data_mof_unit_61484.cif
_audit_creation_date              2013-03-05T16:28:57-0500
_audit_creation_method            fapswitch 2.2
_symmetry_space_group_name_H-M    P1
_symmetry_Int_Tables_number       1
_space_group_crystal_system       triclinic
_cell_length_a                    18.391314
_cell_length_b                    18.391671
_cell_length_c                    51.324674
_cell_angle_alpha                 89.996772
_cell_angle_beta                  89.996001
_cell_angle_gamma                 89.965601
_cell_volume                      17360.4136203

loop_
_atom_site_label
_atom_site_type_symbol
_atom_site_description
_atom_site_fract_x
_atom_site_fract_y
_atom_site_fract_z
_atom_type_partial_charge
Zn1   Zn    Zn3+2 0.000000 0.586670 0.021480 0.971791
Zn2   Zn    Zn3+2 0.413330 0.000000 0.021480 0.973298
Zn3   Zn    Zn3+2 0.000000 0.413330 0.021480 0.972549
Zn4   Zn    Zn3+2 0.586670 0.000000 0.021480 0.970890
Zn5   Zn    Zn3+2 0.500000 0.086670 0.521480 0.971579
Zn6   Zn    Zn3+2 0.913330 0.500000 0.521480 0.971577
Zn7   Zn    Zn3+2 0.500000 0.913330 0.521480 0.971588
Zn8   Zn    Zn3+2 0.086670 0.500000 0.521480 0.971569
Zn9   Zn    Zn3+2 0.913520 0.500000 0.977990 1.070139
Zn10  Zn    Zn3+2 0.500000 0.913520 0.977990 1.065682
Zn11  Zn    Zn3+2 0.086480 0.500000 0.977990 1.032545
Zn12  Zn    Zn3+2 0.500000 0.086480 0.977990 1.067287
Zn13  Zn    Zn3+2 0.413520 0.000000 0.477990 1.065178
Zn14  Zn    Zn3+2 1.000000 0.413520 0.477990 1.065298
Zn15  Zn    Zn3+2 0.586480 0.000000 0.477990 1.065176
Zn16  Zn    Zn3+2 0.000000 0.586480 0.477990 1.065296
O1    O     O_3   0.000000 0.500000 0.999730 -0.510067
O2    O     O_3   0.500000 0.000000 0.999730 -0.515755
O3    O     O_3   0.500000 0.000000 0.499730 -0.515677
O4    O     O_3   0.000000 0.500000 0.499730 -0.515725
O5    O     O_R   0.061010 0.500000 0.941690 -0.624014
O6    O     O_R   0.500000 0.061010 0.941690 -0.623586
O7    O     O_R   0.938990 0.500000 0.941690 -0.624838
O8    O     O_R   0.500000 0.938990 0.941690 -0.626845
O9    O     O_R   0.561010 0.000000 0.441690 -0.626404
O10   O     O_R   0.000000 0.561010 0.441690 -0.626195
O11   O     O_R   0.438990 0.000000 0.441690 -0.626370
O12   O     O_R   1.000000 0.438990 0.441690 -0.626166
O13   O     O_R   1.000000 0.560620 0.057780 -0.643523
O14   O     O_R   0.439380 0.000000 0.057780 -0.643445
O15   O     O_R   1.000000 0.439380 0.057780 -0.643706
O16   O     O_R   0.560620 0.000000 0.057780 -0.643583
O17   O     O_R   0.500000 0.060620 0.557780 -0.643316
O18   O     O_R   0.939380 0.500000 0.557780 -0.643330
O19   O     O_R   0.500000 0.939380 0.557780 -0.643322
O20   O     O_R   0.060620 0.500000 0.557780 -0.643316
O21   O     O_R   0.854100 0.585380 0.984510 -0.573819
O22   O     O_R   0.414620 0.854100 0.984510 -0.586757
O23   O     O_R   0.145900 0.414620 0.984510 -0.589227
O24   O     O_R   0.585380 0.145900 0.984510 -0.584412
O25   O     O_R   0.145900 0.585380 0.984510 -0.634818
O26   O     O_R   0.585380 0.854100 0.984510 -0.573327
O27   O     O_R   0.854100 0.414620 0.984510 -0.582368
O28   O     O_R   0.414620 0.145900 0.984510 -0.572245
O29   O     O_R   0.354100 0.085380 0.484510 -0.582506
O30   O     O_R   0.914620 0.354100 0.484510 -0.573864
O31   O     O_R   0.645900 0.914620 0.484510 -0.582528
O32   O     O_R   0.085380 0.645900 0.484510 -0.573875
O33   O     O_R   0.645900 0.085380 0.484510 -0.573507
O34   O     O_R   0.085380 0.354100 0.484510 -0.582055
O35   O     O_R   0.354100 0.914620 0.484510 -0.573494
O36   O     O_R   0.914620 0.645900 0.484510 -0.582074
O37   O     O_R   0.085710 0.353760 0.014950 -0.660964
O38   O     O_R   0.646240 0.085710 0.014950 -0.664003
O39   O     O_R   0.914290 0.646240 0.014950 -0.665500
O40   O     O_R   0.353760 0.914290 0.014950 -0.662118
O41   O     O_R   0.914290 0.353760 0.014950 -0.663150
O42   O     O_R   0.353760 0.085710 0.014950 -0.663708
O43   O     O_R   0.085710 0.646240 0.014950 -0.653078
O44   O     O_R   0.646240 0.914290 0.014950 -0.665800
O45   O     O_R   0.585710 0.853760 0.514950 -0.663949
O46   O     O_R   0.146240 0.585710 0.514950 -0.665854
O47   O     O_R   0.414290 0.146240 0.514950 -0.663948
O48   O     O_R   0.853760 0.414290 0.514950 -0.665865
O49   O     O_R   0.414290 0.853760 0.514950 -0.665910
O50   O     O_R   0.853760 0.585710 0.514950 -0.664024
O51   O     O_R   0.585710 0.146240 0.514950 -0.665901
O52   O     O_R   0.146240 0.414290 0.514950 -0.664021
C1    C     C_R   0.000001 0.499994 0.929250 0.848311
C2    C     C_R   0.500006 0.000003 0.929250 0.843270
C3    C     C_R   0.500002 1.000000 0.429246 0.840069
C4    C     C_R   1.000000 0.500002 0.429246 0.839858
C5    C     C_R   0.000001 0.499998 0.070267 0.810111
C6    C     C_R   0.499998 0.000001 0.070265 0.811612
C7    C     C_R   0.500001 0.999998 0.570265 0.811942
C8    C     C_R   0.999998 0.500000 0.570265 0.811946
C9    C     C_R   0.859960 0.639861 0.999745 0.829874
C10   C     C_R   0.360055 0.860032 0.999703 0.826932
C11   C     C_R   0.140360 0.360136 0.999804 0.840754
C12   C     C_R   0.639960 0.139936 0.999702 0.828902
C13   C     C_R   0.140086 0.639818 0.999756 0.810531
C14   C     C_R   0.639866 0.859968 0.999743 0.830185
C15   C     C_R   0.860001 0.360077 0.999718 0.831183
C16   C     C_R   0.360126 0.140353 0.999801 0.841404
C17   C     C_R   0.360071 0.139965 0.499697 0.830844
C18   C     C_R   0.860122 0.359963 0.499741 0.829662
C19   C     C_R   0.639930 0.860034 0.499697 0.830913
C20   C     C_R   0.139876 0.640039 0.499741 0.829670
C21   C     C_R   0.640039 0.139876 0.499740 0.829864
C22   C     C_R   0.139965 0.360071 0.499697 0.831054
C23   C     C_R   0.359963 0.860122 0.499741 0.829843
C24   C     C_R   0.860034 0.639930 0.499697 0.831121
C25   C     C_R   0.259101 0.688811 0.985596 -0.178702
C26   C     C_R   0.313823 0.260684 0.985610 -0.014774
C27   C     C_R   0.743280 0.308720 0.984262 -0.086176
C28   C     C_R   0.696162 0.748288 0.982038 -0.077248
C29   C     C_R   0.748249 0.696147 0.982044 -0.077395
C30   C     C_R   0.691311 0.256483 0.984226 -0.086451
C31   C     C_R   0.260699 0.313843 0.985616 -0.032397
C32   C     C_R   0.310880 0.741265 0.985449 -0.086912
C33   C     C_R   0.751624 0.196290 0.481985 -0.076581
C34   C     C_R   0.809075 0.756956 0.484484 -0.086840
C35   C     C_R   0.248385 0.803715 0.481986 -0.076565
C36   C     C_R   0.190937 0.243054 0.484481 -0.086832
C37   C     C_R   0.243054 0.190937 0.484481 -0.086725
C38   C     C_R   0.196287 0.751619 0.481986 -0.076031
C39   C     C_R   0.756958 0.809073 0.484484 -0.086738
C40   C     C_R   0.803719 0.248389 0.481986 -0.076015
C41   C     C_R   0.195219 0.695760 0.999796 -0.030140
C42   C     C_R   0.307453 0.199130 0.001380 -0.111581
C43   C     C_R   0.804931 0.304039 0.999768 -0.043735
C44   C     C_R   0.694680 0.803713 0.000356 -0.050952
C45   C     C_R   0.803689 0.694664 0.000360 -0.051438
C46   C     C_R   0.696045 0.194913 0.999740 -0.042668
C47   C     C_R   0.199143 0.307474 0.001385 -0.110358
C48   C     C_R   0.303944 0.805046 0.999680 -0.037693
C49   C     C_R   0.696289 0.194696 0.500346 -0.051623
C50   C     C_R   0.803710 0.694689 0.499611 -0.041555
C51   C     C_R   0.303714 0.805301 0.500346 -0.051625
C52   C     C_R   0.196287 0.305309 0.499612 -0.041548
C53   C     C_R   0.305309 0.196286 0.499612 -0.041609
C54   C     C_R   0.194696 0.696287 0.500346 -0.051595
C55   C     C_R   0.694689 0.803711 0.499611 -0.041615
C56   C     C_R   0.805301 0.303716 0.500347 -0.051599
C57   C     C_R   0.185794 0.760156 0.014409 -0.177665
C58   C     C_R   0.250632 0.196854 0.019741 -0.195478
C59   C     C_R   0.812068 0.241918 0.015751 -0.194736
C60   C     C_R   0.749256 0.803306 0.019714 -0.192758
C61   C     C_R   0.803300 0.749249 0.019715 -0.193061
C62   C     C_R   0.758118 0.187878 0.015745 -0.195053
C63   C     C_R   0.196855 0.250645 0.019743 -0.194302
C64   C     C_R   0.239687 0.814250 0.014376 -0.193004
C65   C     C_R   0.696774 0.249183 0.519739 -0.193483
C66   C     C_R   0.740718 0.686700 0.515087 -0.195440
C67   C     C_R   0.303219 0.750808 0.519739 -0.193510
C68   C     C_R   0.259264 0.313283 0.515094 -0.195435
C69   C     C_R   0.313285 0.259263 0.515094 -0.195428
C70   C     C_R   0.249184 0.696775 0.519739 -0.193506
C71   C     C_R   0.686697 0.740721 0.515087 -0.195427
C72   C     C_R   0.750806 0.303219 0.519740 -0.193533
H1    H     H_    0.137080 0.768958 0.025841 0.169934
H2    H     H_    0.245803 0.152073 0.033333 0.179386
H3    H     H_    0.858965 0.234899 0.028262 0.175096
H4    H     H_    0.750664 0.844695 0.034714 0.175345
H5    H     H_    0.844692 0.750653 0.034714 0.175099
H6    H     H_    0.765170 0.140994 0.028262 0.175103
H7    H     H_    0.152073 0.245821 0.033336 0.178920
H8    H     H_    0.230840 0.862938 0.025815 0.171784
H9    H     H_    0.655468 0.250520 0.534771 0.175222
H10   H     H_    0.733077 0.639165 0.527235 0.174950
H11   H     H_    0.344520 0.749466 0.534771 0.175217
H12   H     H_    0.266893 0.360807 0.527246 0.174960
H13   H     H_    0.360810 0.266891 0.527246 0.174965
H14   H     H_    0.250522 0.655471 0.534772 0.175228
H15   H     H_    0.639160 0.733082 0.527234 0.174956
H16   H     H_    0.749460 0.344519 0.534772 0.175221
C73   C     C_3   0.360900 0.699326 0.967961 0.765547
C74   C     C_3   0.269851 0.329090 0.957008 0.669185
C75   C     C_3   0.644378 0.295424 0.964849 0.686955
C76   C     C_3   0.721736 0.662002 0.957283 0.692525
C77   C     C_3   0.661999 0.721834 0.957275 0.692795
C78   C     C_3   0.703870 0.355450 0.964915 0.690268
C79   C     C_3   0.329043 0.269830 0.957001 0.678606
C80   C     C_3   0.301872 0.639001 0.968132 0.696592
C81   C     C_3   0.837718 0.222061 0.457169 0.693035
C82   C     C_3   0.797676 0.857467 0.466067 0.686416
C83   C     C_3   0.162300 0.777956 0.457168 0.693031
C84   C     C_3   0.202358 0.142564 0.466055 0.686420
C85   C     C_3   0.142565 0.202356 0.466054 0.686172
C86   C     C_3   0.222052 0.837705 0.457168 0.693338
C87   C     C_3   0.857469 0.797675 0.466067 0.686170
C88   C     C_3   0.777968 0.162310 0.457167 0.693336
C89   C     C_R   0.438435 0.020547 0.804800 0.637197
C90   C     C_R   0.020472 0.438310 0.804796 0.637427
C91   C     C_R   0.561709 0.979527 0.804794 0.637447
C92   C     C_R   0.979490 0.561593 0.804798 0.637179
C93   C     C_R   0.937241 0.516735 0.304792 0.638815
C94   C     C_R   0.484315 0.937006 0.304771 0.640774
C95   C     C_R   0.062765 0.483280 0.304790 0.638821
C96   C     C_R   0.515708 0.062997 0.304768 0.640765
N1    N     N_R   0.500075 0.000038 0.817712 -0.325923
N2    N     N_R   0.999983 0.499950 0.817712 -0.325962
N3    N     N_R   0.000003 0.500009 0.317703 -0.324574
N4    N     N_R   0.500013 0.000001 0.317693 -0.326963
C97   C     C_R   0.564557 0.981926 0.777323 -0.142997
C98   C     C_R   0.981892 0.564452 0.777327 -0.142893
C99   C     C_R   0.435572 0.018138 0.777329 -0.143137
C100  C     C_R   0.018063 0.435459 0.777325 -0.143204
C101  C     C_R   0.065497 0.485979 0.277320 -0.142539
C102  C     C_R   0.519987 0.063898 0.277315 -0.141440
C103  C     C_R   0.934508 0.514027 0.277322 -0.142537
C104  C     C_R   0.480023 0.936108 0.277318 -0.141434
C105  C     C_R   0.500060 0.000027 0.763596 -0.070578
C106  C     C_R   0.999977 0.499958 0.763596 -0.070578
C107  C     C_R   0.000002 0.500001 0.263589 -0.070299
C108  C     C_R   0.500002 0.000004 0.263585 -0.073736
C109  C     C_R   0.628792 0.965406 0.763061 0.311414
C110  C     C_R   0.965395 0.628698 0.763069 0.311435
C111  C     C_R   0.371327 0.034650 0.763074 0.311126
C112  C     C_R   0.034557 0.371217 0.763066 0.311111
C113  C     C_R   0.130664 0.473628 0.263063 0.313850
C114  C     C_R   0.541682 0.126581 0.263078 0.314562
C115  C     C_R   0.869341 0.526373 0.263068 0.313850
C116  C     C_R   0.458317 0.873429 0.263085 0.314559
C117  C     C_R   0.128914 0.472046 0.235844 -0.180430
C118  C     C_R   0.539816 0.125732 0.235853 -0.181802
C119  C     C_R   0.871089 0.527945 0.235848 -0.180404
C120  C     C_R   0.460173 0.874280 0.235861 -0.181771
C121  C     C_R   0.626942 0.963977 0.735845 -0.181664
C122  C     C_R   0.963974 0.626863 0.735852 -0.181700
C123  C     C_R   0.373160 0.036060 0.735857 -0.181689
C124  C     C_R   0.035977 0.373063 0.735850 -0.181658
C125  C     C_R   0.064450 0.485330 0.222174 -0.067502
C126  C     C_R   0.519471 0.063150 0.222181 -0.066343
C127  C     C_R   0.935552 0.514656 0.222176 -0.067561
C128  C     C_R   0.480515 0.936863 0.222185 -0.066385
C129  C     C_R   0.563450 0.981344 0.722179 -0.067183
C130  C     C_R   0.981327 0.563374 0.722183 -0.067190
C131  C     C_R   0.436642 0.018682 0.722186 -0.067130
C132  C     C_R   0.018625 0.436557 0.722182 -0.067124
C133  C     C_R   0.000001 0.499996 0.236001 -0.002677
C134  C     C_R   0.499996 0.000006 0.236004 -0.002482
C135  C     C_R   0.500051 0.000018 0.736008 -0.003092
C136  C     C_R   0.999976 0.499963 0.736008 -0.003096
C137  C     C_R   0.063195 0.485451 0.194796 0.540390
C138  C     C_R   0.518988 0.061991 0.194807 0.540188
C139  C     C_R   0.936806 0.514527 0.194799 0.540435
C140  C     C_R   0.480989 0.938025 0.194811 0.540235
C141  C     C_R   0.562217 0.981596 0.694804 0.539554
C142  C     C_R   0.981589 0.562156 0.694808 0.539557
C143  C     C_R   0.437856 0.018410 0.694810 0.539522
C144  C     C_R   0.018365 0.437786 0.694806 0.539521
N5    N     N_R   0.000001 0.499988 0.181727 -0.359706
N6    N     N_R   0.499987 0.000008 0.181732 -0.359433
N7    N     N_R   0.500032 0.999999 0.681731 -0.359460
N8    N     N_R   0.999978 0.499974 0.681731 -0.359462
O53   O     O_2   0.380751 0.043875 0.818697 -0.453206
O54   O     O_2   0.043782 0.380613 0.818690 -0.452942
O55   O     O_2   0.619401 0.956204 0.818687 -0.454086
O56   O     O_2   0.956183 0.619285 0.818694 -0.454344
O57   O     O_2   0.878305 0.536702 0.318687 -0.459713
O58   O     O_2   0.474326 0.875526 0.318623 -0.457058
O59   O     O_2   0.121701 0.463317 0.318684 -0.459706
O60   O     O_2   0.525705 0.124475 0.318617 -0.457050
H17   H     H_    0.179198 0.462419 0.225386 0.226557
H18   H     H_    0.556553 0.174102 0.225396 0.225830
H19   H     H_    0.820804 0.537568 0.225393 0.226576
H20   H     H_    0.443429 0.825913 0.225406 0.225846
H21   H     H_    0.676508 0.951148 0.725387 0.226527
H22   H     H_    0.951163 0.676437 0.725398 0.226531
H23   H     H_    0.323587 0.048883 0.725405 0.226518
H24   H     H_    0.048786 0.323492 0.725394 0.226514
O61   O     O_2   0.124728 0.471768 0.181327 -0.529845
O62   O     O_2   0.536920 0.122422 0.181348 -0.530364
O63   O     O_2   0.875272 0.528207 0.181331 -0.529629
O64   O     O_2   0.463053 0.877594 0.181355 -0.530203
O65   O     O_2   0.622831 0.964235 0.681341 -0.530026
O66   O     O_2   0.964251 0.622781 0.681349 -0.530025
O67   O     O_2   0.377233 0.035763 0.681354 -0.530038
O68   O     O_2   0.035703 0.377166 0.681346 -0.530032
C145  C     C_R   0.993625 0.565554 0.140074 -0.094127
C146  C     C_R   0.434248 0.995928 0.140065 -0.093315
C147  C     C_R   0.006377 0.434428 0.140075 -0.094110
C148  C     C_R   0.565732 0.004084 0.140063 -0.093313
C149  C     C_R   0.495625 0.065722 0.640065 -0.093744
C150  C     C_R   0.065710 0.495577 0.640065 -0.093745
C151  C     C_R   0.504415 0.934272 0.640067 -0.093713
C152  C     C_R   0.934259 0.504392 0.640066 -0.093716
H25   H     H_    0.988794 0.616443 0.150544 0.151373
H26   H     H_    0.383206 0.992923 0.150527 0.152397
H27   H     H_    0.011209 0.383537 0.150545 0.151368
H28   H     H_    0.616772 0.007090 0.150524 0.152343
H29   H     H_    0.492370 0.116747 0.650526 0.152358
H30   H     H_    0.116734 0.492307 0.650528 0.152355
H31   H     H_    0.507676 0.883247 0.650531 0.152377
H32   H     H_    0.883232 0.507657 0.650529 0.152373
C153  C     C_R   0.993787 0.565652 0.112883 -0.197882
C154  C     C_R   0.434167 0.996030 0.112877 -0.197979
C155  C     C_R   0.006215 0.434335 0.112884 -0.198001
C156  C     C_R   0.565818 0.003978 0.112875 -0.198393
C157  C     C_R   0.495729 0.065807 0.612876 -0.198277
C158  C     C_R   0.065801 0.495698 0.612877 -0.198280
C159  C     C_R   0.504292 0.934186 0.612878 -0.198290
C160  C     C_R   0.934179 0.504286 0.612877 -0.198285
H33   H     H_    0.988836 0.617054 0.102744 0.170385
H34   H     H_    0.382625 0.992880 0.102742 0.170997
H35   H     H_    0.011167 0.382935 0.102745 0.170362
H36   H     H_    0.617363 0.007127 0.102738 0.170787
H37   H     H_    0.492330 0.117337 0.602739 0.170865
H38   H     H_    0.117333 0.492294 0.602741 0.170862
H39   H     H_    0.507685 0.882656 0.602743 0.170866
H40   H     H_    0.882651 0.507694 0.602741 0.170865
C161  C     C_R   0.000001 0.499995 0.099016 -0.015333
C162  C     C_R   0.499994 0.000003 0.099010 -0.015750
C163  C     C_R   0.500006 0.999996 0.599011 -0.015890
C164  C     C_R   0.999992 0.499995 0.599011 -0.015890
C165  C     C_R   0.000001 0.499990 0.153761 0.299006
C166  C     C_R   0.499989 0.000007 0.153758 0.297359
C167  C     C_R   0.500024 0.999997 0.653758 0.297210
C168  C     C_R   0.999982 0.499981 0.653758 0.297215
C169  C     C_R   0.508319 0.065811 0.859300 0.443111
C170  C     C_R   0.065784 0.508193 0.859294 0.443665
C171  C     C_R   0.491821 0.934235 0.859296 0.443543
C172  C     C_R   0.934203 0.491710 0.859302 0.443673
C173  C     C_R   0.006954 0.565940 0.359277 0.441904
C174  C     C_R   0.566320 0.999510 0.359281 0.442108
C175  C     C_R   0.993049 0.434075 0.359279 0.441891
C176  C     C_R   0.433701 0.000491 0.359282 0.442088
C177  C     C_R   0.508010 0.065417 0.886682 -0.292973
C178  C     C_R   0.065403 0.507917 0.886676 -0.294729
C179  C     C_R   0.492090 0.934612 0.886678 -0.294112
C180  C     C_R   0.934593 0.492011 0.886683 -0.292866
C181  C     C_R   0.006736 0.565549 0.386662 -0.294048
C182  C     C_R   0.565897 0.999563 0.386662 -0.294190
C183  C     C_R   0.993265 0.434463 0.386663 -0.294020
C184  C     C_R   0.434118 0.000438 0.386664 -0.294158
H41   H     H_    0.514407 0.116155 0.897150 0.201564
H42   H     H_    0.116148 0.514316 0.897141 0.199453
H43   H     H_    0.485684 0.883867 0.897144 0.202775
H44   H     H_    0.883851 0.485619 0.897153 0.203857
H45   H     H_    0.012161 0.616410 0.397124 0.206332
H46   H     H_    0.617056 0.999153 0.397120 0.205549
H47   H     H_    0.987838 0.383600 0.397127 0.206343
H48   H     H_    0.382957 0.000848 0.397122 0.205561
C185  C     C_R   0.500033 0.000010 0.900491 -0.096735
C186  C     C_R   0.000000 0.499975 0.900491 -0.098014
C187  C     C_R   0.000000 0.500005 0.400479 -0.101088
C188  C     C_R   0.500006 0.000000 0.400479 -0.100535
C189  C     C_R   0.500076 0.000028 0.845721 0.218248
C190  C     C_R   0.999990 0.499948 0.845721 0.218202
C191  C     C_R   0.000002 0.500008 0.345707 0.220250
C192  C     C_R   0.500012 0.000001 0.345703 0.216762
O69   O     O_3   0.373782 0.732188 0.943565 -0.726003
H49   H     H_    0.329331 0.758889 0.938167 0.307752
O70   O     O_3   0.208200 0.313853 0.941555 -0.730475
H50   H     H_    0.182408 0.271262 0.948995 0.303169
O71   O     O_3   0.635247 0.258499 0.940980 -0.728532
H51   H     H_    0.679775 0.229709 0.937326 0.309282
O72   O     O_3   0.771452 0.665366 0.936381 -0.726644
H52   H     H_    0.801194 0.710114 0.938190 0.307970
O73   O     O_3   0.665478 0.771542 0.936374 -0.726139
H53   H     H_    0.710291 0.801186 0.938184 0.307841
O74   O     O_3   0.740719 0.365300 0.941070 -0.727956
H54   H     H_    0.770234 0.321257 0.937405 0.309538
O75   O     O_3   0.313714 0.208204 0.941547 -0.732466
H55   H     H_    0.271106 0.182455 0.948995 0.301734
O76   O     O_3   0.270030 0.624869 0.943645 -0.718436
H56   H     H_    0.238327 0.666501 0.938875 0.309866
O77   O     O_3   0.834128 0.271925 0.436316 -0.733689
H57   H     H_    0.789346 0.301636 0.438194 0.307153
O78   O     O_3   0.762804 0.869038 0.441941 -0.725677
H58   H     H_    0.734026 0.825111 0.437485 0.310685
O79   O     O_3   0.165896 0.728098 0.436316 -0.733676
H59   H     H_    0.210677 0.698386 0.438194 0.307154
O80   O     O_3   0.237259 0.131021 0.441931 -0.725688
H60   H     H_    0.266044 0.174952 0.437484 0.310684
O81   O     O_3   0.131025 0.237256 0.441931 -0.723545
H61   H     H_    0.174969 0.266017 0.437480 0.311547
O82   O     O_3   0.271915 0.834110 0.436315 -0.730174
H62   H     H_    0.301612 0.789317 0.438190 0.307471
O83   O     O_3   0.869038 0.762802 0.441941 -0.723536
H63   H     H_    0.825099 0.734047 0.437482 0.311548
O84   O     O_3   0.728113 0.165910 0.436315 -0.730168
H64   H     H_    0.698415 0.210702 0.438190 0.307471
O85   O     O_3   0.425531 0.680087 0.980691 -0.658921
H65   H     H_    0.450173 0.644540 0.969136 0.383835
O86   O     O_3   0.296443 0.399550 0.952746 -0.678956
H66   H     H_    0.305356 0.403554 0.933733 0.365409
O87   O     O_3   0.577956 0.316984 0.975824 -0.671942
H67   H     H_    0.553113 0.346772 0.962386 0.372063
O88   O     O_3   0.695437 0.591460 0.961458 -0.671881
H68   H     H_    0.673787 0.575699 0.944680 0.351605
O89   O     O_3   0.591400 0.695676 0.961446 -0.674363
H69   H     H_    0.575502 0.674214 0.944654 0.355092
O90   O     O_3   0.681539 0.421484 0.975961 -0.664214
H70   H     H_    0.649421 0.444838 0.962879 0.362266
O91   O     O_3   0.399531 0.296333 0.952730 -0.676845
H71   H     H_    0.403515 0.305288 0.933720 0.358391
O92   O     O_3   0.324430 0.575257 0.980812 -0.690803
H72   H     H_    0.281544 0.542647 0.981419 0.387431
O93   O     O_3   0.908331 0.195760 0.461252 -0.676214
H73   H     H_    0.924058 0.174319 0.444432 0.349751
O94   O     O_3   0.818622 0.922692 0.478025 -0.668158
H74   H     H_    0.851389 0.947415 0.465494 0.360920
O95   O     O_3   0.091686 0.804258 0.461252 -0.676231
H75   H     H_    0.075966 0.825705 0.444431 0.349765
O96   O     O_3   0.181398 0.077325 0.478004 -0.668141
H76   H     H_    0.148647 0.052615 0.465467 0.360899
O97   O     O_3   0.077323 0.181399 0.478003 -0.668175
H77   H     H_    0.052616 0.148643 0.465466 0.360896
O98   O     O_3   0.195748 0.908318 0.461249 -0.676242
H78   H     H_    0.174301 0.924037 0.444429 0.349866
O99   O     O_3   0.922696 0.818619 0.478024 -0.668190
H79   H     H_    0.947417 0.851390 0.465493 0.360916
O100  O     O_3   0.804272 0.091696 0.461249 -0.676259
H80   H     H_    0.825726 0.075983 0.444429 0.349879
N9    N     N_R   0.697469 0.953414 0.775572 0.253269
O101  O     O_R   0.727716 0.006094 0.788563 -0.275924
O102  O     O_R   0.736556 0.897197 0.769168 -0.290802
N10   N     N_R   0.953421 0.697371 0.775584 0.253281
O103  O     O_R   0.006110 0.727597 0.788577 -0.276148
O104  O     O_R   0.897213 0.736474 0.769182 -0.290793
N11   N     N_R   0.302659 0.046652 0.775592 0.253364
O105  O     O_R   0.272414 0.993979 0.788591 -0.275392
O106  O     O_R   0.263574 0.102872 0.769188 -0.290661
N12   N     N_R   0.046530 0.302540 0.775580 0.253353
O107  O     O_R   0.993844 0.272314 0.788578 -0.275204
O108  O     O_R   0.102735 0.263436 0.769174 -0.290635
N13   N     N_R   0.199973 0.466227 0.275582 0.252544
O109  O     O_R   0.226491 0.520686 0.288677 -0.266620
O110  O     O_R   0.242843 0.412903 0.269107 -0.310567
N14   N     N_R   0.569587 0.190401 0.275630 0.251588
O111  O     O_R   0.629265 0.186114 0.289166 -0.276427
O112  O     O_R   0.545394 0.254171 0.268876 -0.298833
N15   N     N_R   0.800032 0.533779 0.275590 0.252546
O113  O     O_R   0.773514 0.479324 0.288691 -0.266621
O114  O     O_R   0.757163 0.587101 0.269114 -0.310550
N16   N     N_R   0.430409 0.809611 0.275642 0.251590
O115  O     O_R   0.370742 0.813908 0.289188 -0.276417
O116  O     O_R   0.454580 0.745837 0.268884 -0.298825
O117  O     O_3   0.516805 0.129369 0.845312 -0.710162
H81   H     H_    0.521877 0.170550 0.857649 0.357668
O118  O     O_3   0.129337 0.516653 0.845301 -0.710426
H82   H     H_    0.170527 0.521725 0.857634 0.357457
O119  O     O_3   0.483357 0.870686 0.845305 -0.709369
H83   H     H_    0.478277 0.829496 0.857639 0.359050
O120  O     O_3   0.870644 0.483235 0.845316 -0.709165
H84   H     H_    0.829460 0.478166 0.857654 0.359342
O121  O     O_3   0.014059 0.629646 0.345278 -0.708211
H85   H     H_    0.018363 0.670927 0.357610 0.360247
O122  O     O_3   0.630445 0.998600 0.345293 -0.706362
H86   H     H_    0.671944 0.998380 0.357629 0.360106
O123  O     O_3   0.985944 0.370371 0.345282 -0.708216
H87   H     H_    0.981640 0.329088 0.357615 0.360250
O124  O     O_3   0.369579 0.001401 0.345297 -0.706365
H88   H     H_    0.328078 0.001621 0.357633 0.360110

loop_
_geom_bond_atom_site_label_1
_geom_bond_atom_site_label_2
_geom_bond_distance
_ccdc_geom_bond_type
O120  H84   0.991672 S    
O81   H61   0.992797 S    
C93   C103  1.411686 A    
C62   H6    1.082970 S    
O119  H83   0.991670 S    
C75   O71   1.410843 S    
C141  O65   1.349660 S    
Zn5   O51   1.949200 S    
C49   C65   1.412502 A    
O71   H51   0.992814 S    
C149  C157  1.395443 A    
O69   H49   0.992860 S    
C92   N2    1.366064 A    
C151  H31   1.082852 S    
N5    C165  1.435361 S    
N11   O106  1.301129 A    
C178  C186  1.403917 A    
C117  H17   1.083703 S    
N9    O102  1.301128 A    
C30   C46   1.386983 A    
C152  H32   1.082851 S    
O49   C23   1.273305 A    
C147  C155  1.395605 A    
C83   O95   1.401342 S    
Zn13  O35   1.942668 S    
O34   C22   1.275809 A    
C116  C120  1.397785 A    
C86   O98   1.401342 S    
C35   C86   1.499155 S    
O52   C22   1.273091 A    
O41   C15   1.273384 A    
C17   C53   1.444331 S    
C61   H5    1.082996 S    
Zn4   O2    1.946059 S    
C70   H14   1.082985 S    
C3    C188  1.476447 S    
C99   C105  1.419098 A    
C46   C62   1.412349 A    
C103  C115  1.422325 A    
C40   C56   1.387242 A    
C9    C45   1.444524 S    
C127  C133  1.407431 A    
C36   C37   1.355135 A    
C68   H12   1.082975 S    
C84   O96   1.401696 S    
C2    C185  1.476062 S    
C139  N5    1.368178 A    
C174  C182  1.405363 A    
O43   C13   1.273564 A    
C6    C162  1.475343 S    
C20   C54   1.445302 S    
C107  C133  1.415966 A    
O22   C10   1.275451 A    
C143  O67   1.349660 S    
C82   O78   1.410607 S    
Zn12  O24   1.942711 S    
C110  N10   1.433884 S    
O80   H60   0.992800 S    
Zn16  O4    1.942816 S    
N3    C191  1.437296 S    
Zn1   O13   1.923676 S    
C104  C116  1.422177 A    
C69   H13   1.082978 S    
C59   H3    1.082972 S    
Zn3   O15   1.923728 S    
C60   H4    1.082995 S    
C25   C32   1.355987 A    
Zn4   O16   1.923667 S    
C72   H16   1.082990 S    
Zn3   O41   1.949260 S    
C84   C85   1.554719 S    
C180  C186  1.403933 A    
O93   H73   0.992138 S    
N12   O108  1.301127 A    
O94   H74   0.991881 S    
C170  C190  1.404572 A    
O11   C3    1.291087 A    
C171  C179  1.405399 A    
C172  C180  1.405392 A    
C145  C165  1.400345 A    
C102  C114  1.422178 A    
C119  H19   1.083701 S    
O90   H70   0.991920 S    
C176  O124  1.380713 S    
O99   H79   0.991887 S    
C116  N16   1.434223 S    
Zn10  O22   1.942654 S    
C121  C129  1.398979 A    
C137  N5    1.368177 A    
Zn12  O28   1.941614 S    
O85   H65   0.992048 S    
Zn13  O29   1.941636 S    
Zn14  O34   1.941629 S    
Zn10  O2    1.942920 S    
C74   O70   1.411990 S    
Zn3   O1    1.945970 S    
Zn15  O33   1.942723 S    
C81   O77   1.410906 S    
O70   H50   0.992393 S    
C160  H40   1.082885 S    
C137  O61   1.349639 S    
C88   O84   1.410894 S    
O82   H62   0.992812 S    
C76   O72   1.410886 S    
C160  C164  1.406248 A    
C97   C109  1.422406 A    
N13   O109  1.301347 A    
C169  O117  1.380674 S    
C26   C79   1.504215 S    
C95   O59   1.348240 S    
C96   N4    1.366039 A    
C22   C52   1.444341 S    
C129  C135  1.407373 A    
C93   O57   1.348239 S    
O117  H81   0.991674 S    
C11   C47   1.453327 S    
O27   C15   1.275579 A    
O78   H58   0.992802 S    
C60   C61   1.405402 A    
C90   N2    1.366059 A    
C173  O121  1.380633 S    
O8    C2    1.291011 A    
O121  H85   0.991671 S    
C4    C187  1.476462 S    
C157  H37   1.082883 S    
C128  C140  1.405149 A    
N14   O111  1.301363 A    
C175  C191  1.404310 A    
C78   O74   1.410599 S    
N8    C168  1.435685 S    
O16   C6    1.285912 A    
O14   C6    1.285921 A    
C89   O53   1.348241 S    
Zn15  O9    1.921107 S    
O23   C11   1.276986 A    
C100  C112  1.422400 A    
C154  C162  1.406230 A    
C55   C71   1.412355 A    
C144  N8    1.368339 A    
O40   C10   1.273400 A    
C33   C88   1.499154 S    
C169  C189  1.404566 A    
C53   C69   1.412357 A    
C24   C50   1.444326 S    
O45   C19   1.273014 A    
C32   C73   1.498670 S    
C158  H38   1.082886 S    
Zn7   O45   1.948157 S    
C57   H1    1.082994 S    
Zn5   O17   1.923676 S    
C156  C162  1.406234 A    
N15   O114  1.301106 A    
C151  C167  1.400531 A    
O9    C3    1.291092 A    
C126  C134  1.407371 A    
C145  H25   1.082842 S    
C50   C66   1.412354 A    
C91   N1    1.366066 A    
C86   O82   1.410899 S    
C150  C158  1.395443 A    
C147  H27   1.082840 S    
C140  O64   1.349655 S    
N6    C166  1.435751 S    
Zn4   O44   1.948182 S    
N16   O116  1.301160 A    
Zn9   O27   1.942668 S    
C170  O118  1.380676 S    
C172  C190  1.404566 A    
C115  N15   1.433918 S    
C66   C71   1.404632 A    
C77   O73   1.410899 S    
Zn9   O7    1.921044 S    
O50   C24   1.273021 A    
Zn10  O8    1.921052 S    
C155  C161  1.406308 A    
C153  H33   1.082887 S    
Zn11  O5    1.921107 S    
O5    C1    1.291001 A    
C155  H35   1.082890 S    
Zn11  O23   1.941633 S    
C120  H20   1.083723 S    
C94   C104  1.411304 A    
O122  H86   0.991673 S    
C48   C64   1.412028 A    
C71   H15   1.082979 S    
C38   C54   1.387225 A    
C180  H44   1.083283 S    
C34   C39   1.355129 A    
C181  C187  1.404092 A    
C142  N8    1.368337 A    
C73   C80   1.552740 S    
C184  H48   1.083250 S    
C74   C79   1.539974 S    
C42   C58   1.407771 A    
C149  H29   1.082851 S    
C21   C49   1.445317 S    
C87   O99   1.401693 S    
C18   C56   1.445297 S    
C23   C51   1.445315 S    
C175  C183  1.405530 A    
C79   O91   1.402466 S    
C80   O92   1.403388 S    
Zn9   O1    1.942907 S    
C158  C164  1.406246 A    
C89   C99   1.411595 A    
C98   C106  1.419089 A    
C10   C48   1.445287 S    
C131  C143  1.405208 A    
N10   O103  1.301330 A    
C111  N11   1.433886 S    
C123  C131  1.398974 A    
Zn1   O1    1.946072 S    
C138  N6    1.368427 A    
C37   C84   1.499017 S    
Zn2   O14   1.923732 S    
C38   C83   1.499147 S    
Zn1   O39   1.948175 S    
C152  C168  1.400527 A    
Zn2   O40   1.949272 S    
N9    O101  1.301331 A    
C157  C163  1.406247 A    
C19   C55   1.444317 S    
Zn3   O37   1.948157 S    
C118  C126  1.399223 A    
C91   O55   1.348241 S    
C127  C139  1.405321 A    
C110  C122  1.397534 A    
C103  C107  1.419060 A    
C125  C137  1.405324 A    
C117  C125  1.399023 A    
C145  C153  1.395604 A    
C146  C166  1.400569 A    
Zn8   O46   1.949214 S    
C113  C117  1.397684 A    
C143  N7    1.368341 A    
C94   O58   1.348300 S    
C122  H22   1.083707 S    
O47   C17   1.273087 A    
O18   C8    1.285926 A    
Zn10  O26   1.941629 S    
O10   C4    1.291109 A    
C32   C48   1.387687 A    
C39   C55   1.387078 A    
C40   C81   1.499149 S    
C177  C185  1.403928 A    
O79   H59   0.992809 S    
O92   H72   0.991620 S    
Zn14  O30   1.942654 S    
Zn15  O3    1.942778 S    
O77   H57   0.992810 S    
C104  C108  1.418876 A    
C118  H18   1.083724 S    
N16   O115  1.301366 A    
Zn1   O43   1.949200 S    
C31   C47   1.396597 A    
C184  C188  1.404048 A    
O88   H68   0.992126 S    
C173  C181  1.405539 A    
Zn5   O47   1.948175 S    
Zn8   O20   1.923667 S    
Zn6   O48   1.949272 S    
C130  C142  1.405211 A    
C7    C163  1.475374 S    
O35   C23   1.275587 A    
C125  C133  1.407433 A    
C75   O87   1.402193 S    
C94   N4    1.366037 A    
N11   O105  1.301332 A    
C179  H43   1.083274 S    
O84   H64   0.992812 S    
O32   C20   1.275609 A    
C124  H24   1.083709 S    
O38   C12   1.272878 A    
C33   C40   1.355427 A    
C82   O94   1.401693 S    
C89   N1    1.366066 A    
C148  H28   1.082857 S    
O12   C4    1.291102 A    
O48   C18   1.273291 A    
C171  O119  1.380673 S    
C88   O100  1.401342 S    
C112  N12   1.433881 S    
Zn16  O10   1.921103 S    
C1    C186  1.476057 S    
C83   O79   1.410903 S    
Zn13  O3    1.942907 S    
C29   C76   1.499234 S    
Zn14  O4    1.942920 S    
C54   C70   1.412501 A    
O33   C21   1.275602 A    
O76   H56   0.992779 S    
C68   C69   1.404639 A    
C159  H39   1.082880 S    
C93   N3    1.365907 A    
O21   C9    1.275633 A    
C58   H2    1.082982 S    
C51   C67   1.412483 A    
Zn6   O18   1.923732 S    
C99   C111  1.422407 A    
C52   C68   1.412358 A    
C14   C44   1.444454 S    
C173  C191  1.404313 A    
C141  N7    1.368342 A    
C156  H36   1.082886 S    
C174  C192  1.404630 A    
Zn7   O49   1.949260 S    
C172  O120  1.380675 S    
C101  C107  1.419061 A    
C124  C132  1.398975 A    
O72   H52   0.992814 S    
C151  C159  1.395454 A    
O25   C13   1.275167 A    
C119  C127  1.399021 A    
C75   C78   1.554785 S    
C112  C124  1.397536 A    
C179  C185  1.403916 A    
C92   O56   1.348241 S    
C13   C41   1.444983 S    
C81   O93   1.401340 S    
C15   C43   1.445439 S    
O36   C24   1.275735 A    
O17   C7    1.285936 A    
O95   H75   0.992138 S    
C113  N13   1.433917 S    
C34   C87   1.499027 S    
Zn11  O1    1.942778 S    
C154  H34   1.082885 S    
C56   C72   1.412481 A    
Zn12  O2    1.942816 S    
Zn16  O36   1.941614 S    
C148  C166  1.400566 A    
O28   C16   1.277015 A    
O100  H80   0.992134 S    
Zn2   O42   1.948176 S    
C130  C136  1.407369 A    
Zn5   O3    1.946072 S    
Zn6   O4    1.945933 S    
C95   C101  1.411688 A    
C33   C49   1.387243 A    
N14   O112  1.301160 A    
C96   C102  1.411299 A    
O46   C20   1.273277 A    
C150  H30   1.082852 S    
C67   H11   1.082990 S    
C26   C42   1.396588 A    
C147  C165  1.400350 A    
C44   C60   1.412359 A    
C183  C187  1.404096 A    
C131  C135  1.407371 A    
C105  C135  1.415919 A    
O13   C5    1.285977 A    
C65   C72   1.405811 A    
C144  O68   1.349663 S    
C78   O90   1.401590 S    
N12   O107  1.301332 A    
C98   C110  1.422400 A    
C97   C105  1.419097 A    
N1    C189  1.437568 S    
C121  H21   1.083711 S    
C36   C52   1.387090 A    
O31   C19   1.275739 A    
C67   C70   1.405811 A    
O74   H54   0.992800 S    
Zn12  O6    1.921103 S    
Zn2   O2    1.945933 S    
O7    C1    1.290970 A    
O86   H66   0.992207 S    
O26   C14   1.275665 A    
Zn15  O31   1.941633 S    
C74   O86   1.402514 S    
C182  C188  1.404050 A    
Zn16  O32   1.942711 S    
C27   C30   1.355579 A    
C73   O69   1.410404 S    
O98   H78   0.992132 S    
C47   C63   1.407789 A    
O73   H53   0.992814 S    
C28   C44   1.387033 A    
O19   C7    1.285946 A    
Zn8   O4    1.946059 S    
C45   C61   1.412377 A    
C152  C160  1.395448 A    
C58   C63   1.398487 A    
O37   C11   1.276034 A    
C85   O81   1.410596 S    
C8    C164  1.475374 S    
C90   O54   1.348238 S    
C76   O88   1.401357 S    
O39   C9    1.273361 A    
O15   C5    1.285981 A    
C146  H26   1.082856 S    
C146  C154  1.395422 A    
O51   C21   1.273275 A    
C28   C77   1.499095 S    
C5    C161  1.475533 S    
C176  C184  1.405358 A    
C90   C100  1.411607 A    
O44   C14   1.273295 A    
C142  O66   1.349660 S    
O24   C12   1.275760 A    
C77   O89   1.401360 S    
N4    C192  1.437589 S    
N13   O110  1.301105 A    
O20   C8    1.285923 A    
C140  N6    1.368425 A    
C34   C50   1.387086 A    
C102  C108  1.418878 A    
C129  C141  1.405210 A    
C81   C88   1.554539 S    
C39   C82   1.499017 S    
C169  C177  1.405402 A    
C82   C87   1.554719 S    
C120  C128  1.399225 A    
C177  H41   1.083281 S    
C91   C97   1.411602 A    
C73   O85   1.401614 S    
C182  H46   1.083251 S    
C83   C86   1.554537 S    
C95   N3    1.365908 A    
C96   O60   1.348301 S    
C149  C167  1.400525 A    
C132  C144  1.405212 A    
C150  C168  1.400528 A    
C64   H8    1.082989 S    
C65   H9    1.082989 S    
C171  C189  1.404567 A    
N10   O104  1.301128 A    
C87   O83   1.410597 S    
C27   C78   1.499781 S    
C159  C163  1.406247 A    
O118  H82   0.991675 S    
C139  O63   1.349641 S    
C178  H42   1.083277 S    
C25   C80   1.503502 S    
C101  C113  1.422326 A    
N2    C190  1.437568 S    
C115  C119  1.397687 A    
C16   C42   1.453374 S    
C174  O122  1.380713 S    
O29   C17   1.275808 A    
O42   C16   1.276037 A    
N15   O113  1.301347 A    
C114  N14   1.434222 S    
C138  O62   1.349657 S    
C28   C29   1.355061 A    
C170  C178  1.405403 A    
Zn9   O21   1.941636 S    
C37   C53   1.387082 A    
N7    C167  1.435685 S    
C63   H7    1.082984 S    
O91   H71   0.992208 S    
C41   C57   1.412470 A    
C12   C46   1.444843 S    
Zn8   O52   1.948182 S    
C43   C59   1.412493 A    
C29   C45   1.387158 A    
C100  C106  1.419094 A    
C132  C136  1.407368 A    
C106  C136  1.415925 A    
O87   H67   0.992121 S    
C66   H10   1.082980 S    
Zn4   O38   1.949214 S    
Zn7   O19   1.923728 S    
C35   C51   1.387260 A    
C181  H45   1.083271 S    
C176  C192  1.404628 A    
C92   C98   1.411602 A    
O83   H63   0.992801 S    
Zn7   O3    1.945970 S    
C122  C130  1.398973 A    
C123  H23   1.083712 S    
C76   C77   1.554488 S    
C85   O97   1.401697 S    
C59   C62   1.404813 A    
C27   C43   1.387934 A    
O89   H69   0.992133 S    
C57   C64   1.404775 A    
O97   H77   0.991873 S    
C26   C31   1.381782 A    
C84   O80   1.410609 S    
C79   O75   1.411989 S    
C80   O76   1.410808 S    
C148  C156  1.395412 A    
O6    C2    1.290992 A    
Zn11  O25   1.942723 S    
C35   C38   1.355429 A    
C111  C123  1.397532 A    
C126  C138  1.405154 A    
C128  C134  1.407372 A    
C109  C121  1.397539 A    
C109  N9    1.433888 S    
O124  H88   0.991676 S    
Zn6   O50   1.948176 S    
C153  C161  1.406307 A    
C30   C75   1.498764 S    
O123  H87   0.991673 S    
C114  C118  1.397785 A    
C31   C74   1.504261 S    
C25   C41   1.388358 A    
Zn13  O11   1.921044 S    
Zn14  O12   1.921052 S    
O75   H55   0.992391 S    
C175  O123  1.380632 S    
C108  C134  1.415581 A    
O96   H76   0.991871 S    
C183  H47   1.083273 S    
C36   C85   1.499023 S    
O30   C18   1.275578 A    
