data_mof_unit_32687.cif
_audit_creation_date              2012-12-10T20:16:51-0500
_audit_creation_method            fapswitch 2.2
_symmetry_space_group_name_H-M    P1
_symmetry_Int_Tables_number       1
_space_group_crystal_system       triclinic
_cell_length_a                    25.638801
_cell_length_b                    25.648581
_cell_length_c                    26.203743
_cell_angle_alpha                 89.993764
_cell_angle_beta                  89.979997
_cell_angle_gamma                 89.979267
_cell_volume                      17231.5493543

loop_
_atom_site_label
_atom_site_type_symbol
_atom_type_description
_atom_site_fract_x
_atom_site_fract_y
_atom_site_fract_z
_atom_type_partial_charge
C1    C     C_1   0.828730 0.671492 0.749780 0.275073
C2    C     C_1   0.171302 0.672143 0.749643 0.287504
C3    C     C_R   0.498390 0.000598 0.446625 -0.016813
C4    C     C_R   0.500000 0.000574 0.053241 -0.007520
C5    C     C_R   0.500108 0.000754 0.946593 -0.002816
C6    C     C_R   0.000690 0.500146 0.053550 -0.002584
C7    C     C_R   0.001143 0.499618 0.946899 -0.010915
C8    C     C_R   0.500613 0.000018 0.609610 0.858462
C9    C     C_R   0.499363 0.000086 0.390397 0.835547
C10   C     C_R   0.000033 0.500093 0.609586 0.845463
C11   C     C_R   0.000028 0.500017 0.390388 0.871307
C12   C     C_R   0.000095 0.500053 0.109691 0.869343
C13   C     C_1   0.328508 0.171266 0.250370 0.278122
C14   C     C_R   0.000256 0.499903 0.890487 0.842345
C15   C     C_R   0.499996 0.000021 0.109564 0.845239
C16   C     C_R   0.500015 0.000050 0.890369 0.869151
C17   C     C_R   0.598912 0.098915 0.750029 0.820732
C18   C     C_R   0.401103 0.900967 0.249867 0.793275
C19   C     C_R   0.901151 0.598899 0.749958 0.814969
C20   C     C_R   0.098957 0.401050 0.250040 0.796109
C21   C     C_R   0.401105 0.901143 0.749992 0.817366
C22   C     C_R   0.598958 0.098972 0.249954 0.799296
C23   C     C_R   0.098918 0.401114 0.750010 0.816971
C24   C     C_1   0.671335 0.827929 0.750629 0.290146
C25   C     C_R   0.901065 0.598930 0.250023 0.810833
C26   C     C_R   0.598912 0.901110 0.250008 0.819377
C27   C     C_R   0.401069 0.098932 0.750013 0.810417
C28   C     C_R   0.901114 0.401135 0.250016 0.815284
C29   C     C_R   0.098934 0.598997 0.749948 0.797205
C30   C     C_R   0.401113 0.098858 0.250012 0.815992
C31   C     C_R   0.598876 0.900967 0.750132 0.796368
C32   C     C_R   0.098884 0.598863 0.249979 0.815106
C33   C     C_R   0.900852 0.401104 0.750104 0.800406
C34   C     C_R   0.771140 0.732178 0.703183 0.289015
C35   C     C_1   0.171556 0.671172 0.249575 0.269153
C36   C     C_R   0.219737 0.257837 0.295087 0.291685
C37   C     C_R   0.267101 0.772262 0.702911 0.288254
C38   C     C_R   0.739346 0.222551 0.294959 0.287799
C39   C     C_R   0.252702 0.291580 0.714418 0.214420
C40   C     C_R   0.744325 0.705941 0.282234 0.288745
C41   C     C_R   0.723994 0.237147 0.703837 0.224224
C42   C     C_R   0.262992 0.775109 0.295193 0.291874
C43   C     C_R   0.772397 0.266754 0.296364 0.282979
C44   C     C_R   0.222934 0.739108 0.703965 0.286988
C45   C     C_R   0.263483 0.224050 0.296853 0.290033
C46   C     C_1   0.824598 0.331695 0.752017 0.233100
C47   C     C_R   0.737721 0.776170 0.704413 0.295020
C48   C     C_R   0.230006 0.730854 0.296150 0.284111
C49   C     C_R   0.756130 0.282140 0.706203 0.229764
C50   C     C_R   0.709523 0.748582 0.287209 0.219375
C51   C     C_R   0.295185 0.256607 0.719573 0.289931
C52   C     C_R   0.276163 0.237036 0.204759 0.288184
C53   C     C_R   0.723620 0.761315 0.796067 0.290931
C54   C     C_R   0.766495 0.273012 0.202953 0.286230
C55   C     C_R   0.237607 0.724319 0.795568 0.287256
C56   C     C_R   0.752014 0.790867 0.213925 0.212889
C57   C     C_1   0.671630 0.828674 0.250305 0.199376
C58   C     C_R   0.243946 0.205552 0.781249 0.289468
C59   C     C_R   0.231298 0.729236 0.202405 0.282523
C60   C     C_R   0.770279 0.267107 0.797822 0.295192
C61   C     C_R   0.270884 0.768397 0.796563 0.281862
C62   C     C_R   0.722538 0.239534 0.204068 0.285745
C63   C     C_R   0.767967 0.728410 0.796844 0.286251
C64   C     C_R   0.243154 0.281216 0.206996 0.292230
C65   C     C_R   0.738830 0.221732 0.795453 0.287288
C66   C     C_R   0.275483 0.762392 0.203048 0.286465
C67   C     C_R   0.209091 0.248122 0.786419 0.213467
C68   C     C_1   0.328550 0.171751 0.750232 0.253178
C69   C     C_R   0.794603 0.756050 0.219105 0.289442
C70   C     C_2   0.588253 0.922657 0.920469 1.021234
C71   C     C_2   0.409370 0.925596 0.078211 1.032487
C72   C     C_2   0.072916 0.592460 0.921812 1.037068
C73   C     C_2   0.085397 0.420298 0.082113 1.013084
C74   C     C_2   0.408753 0.078079 0.920737 1.032405
C75   C     C_2   0.593646 0.073141 0.079603 1.034200
C76   C     C_2   0.937623 0.398043 0.922357 1.030031
C77   C     C_2   0.920151 0.589065 0.079120 1.031052
C78   C     C_2   0.092380 0.425835 0.420622 1.032129
C79   C     C_R   0.788909 0.711188 0.749912 -0.240957
C80   C     C_2   0.911835 0.422743 0.578514 1.026383
C81   C     C_2   0.577028 0.088251 0.420845 1.037902
C82   C     C_2   0.574316 0.907885 0.578671 1.060651
C83   C     C_2   0.907215 0.575755 0.421453 1.033749
C84   C     C_2   0.090063 0.576286 0.579934 1.026366
C85   C     C_2   0.419728 0.913578 0.419737 1.054968
C86   C     C_2   0.425175 0.093953 0.578635 1.031000
C87   C     C_R   0.212003 0.288836 0.250974 -0.236347
C88   C     C_R   0.288342 0.789421 0.749732 -0.238786
C89   C     C_1   0.171923 0.328522 0.250619 0.285981
C90   C     C_R   0.711582 0.211641 0.249492 -0.235339
C91   C     C_R   0.211621 0.289067 0.750367 -0.251927
C92   C     C_R   0.788728 0.711639 0.250628 -0.233455
C93   C     C_R   0.713474 0.209199 0.749190 -0.244976
C94   C     C_R   0.288597 0.788147 0.249068 -0.232484
C95   C     C_R   0.788628 0.289132 0.249740 -0.238697
C96   C     C_R   0.210987 0.712242 0.749720 -0.235229
C97   C     C_R   0.288866 0.211147 0.250664 -0.239887
C98   C     C_R   0.711263 0.788080 0.750394 -0.235415
C99   C     C_R   0.211382 0.710844 0.249363 -0.238570
C100  C     C_1   0.328311 0.828954 0.749759 0.272009
C101  C     C_R   0.782278 0.294127 0.752283 -0.236603
C102  C     C_R   0.711493 0.788947 0.250488 -0.251872
C103  C     C_R   0.288815 0.211716 0.750355 -0.232513
C104  C     C_1   0.638180 0.861268 0.750487 -0.031673
C105  C     C_1   0.361677 0.138119 0.250145 -0.000401
C106  C     C_1   0.138258 0.638692 0.749727 -0.023105
C107  C     C_1   0.861676 0.361893 0.249987 -0.013431
C108  C     C_1   0.361686 0.138446 0.750124 -0.025235
C109  C     C_1   0.638387 0.861798 0.250139 0.018241
C110  C     C_1   0.859864 0.362924 0.751359 -0.031875
C111  C     C_1   0.671692 0.171753 0.249579 0.286772
C112  C     C_1   0.138326 0.638103 0.249789 -0.015996
C113  C     C_1   0.638442 0.138505 0.249780 -0.022371
C114  C     C_1   0.361624 0.861941 0.749857 -0.013449
C115  C     C_1   0.138519 0.361612 0.250233 -0.026936
C116  C     C_1   0.861868 0.638314 0.749837 -0.003063
C117  C     C_1   0.361740 0.861302 0.249458 -0.024638
C118  C     C_1   0.638809 0.137840 0.749633 -0.002339
C119  C     C_1   0.861671 0.638435 0.250211 -0.022176
C120  C     C_1   0.138421 0.361830 0.750127 0.020311
C121  C     C_R   0.593197 0.969868 0.953904 -0.165321
C122  C     C_1   0.171716 0.328757 0.750237 0.197750
C123  C     C_R   0.405686 0.973150 0.045141 -0.178407
C124  C     C_R   0.025065 0.594821 0.954667 -0.177748
C125  C     C_R   0.039964 0.410375 0.047350 -0.165214
C126  C     C_R   0.406493 0.029857 0.953264 -0.175264
C127  C     C_R   0.594940 0.025524 0.046324 -0.182766
C128  C     C_R   0.985753 0.402573 0.954473 -0.182967
C129  C     C_R   0.968220 0.592576 0.046470 -0.176282
C130  C     C_R   0.094539 0.473597 0.453676 -0.168881
C131  C     C_R   0.906788 0.470320 0.545502 -0.184460
C132  C     C_R   0.529949 0.093721 0.454393 -0.177752
C133  C     C_1   0.828486 0.671693 0.250439 0.254092
C134  C     C_R   0.529645 0.906251 0.542532 -0.188656
C135  C     C_R   0.905861 0.527309 0.453727 -0.174259
C136  C     C_R   0.093989 0.529227 0.546155 -0.179023
C137  C     C_R   0.462819 0.908806 0.457339 -0.179601
C138  C     C_R   0.473863 0.094856 0.546688 -0.171747
C139  C     C_R   0.047301 0.508460 0.525478 -0.038392
C140  C     C_R   0.953065 0.508054 0.474489 -0.046045
C141  C     C_R   0.492637 0.047605 0.525721 -0.037208
C142  C     C_R   0.489080 0.954114 0.474816 -0.037261
C143  C     C_R   0.953128 0.492420 0.525370 -0.044018
C144  C     C_1   0.672818 0.170201 0.749346 0.230738
C145  C     C_R   0.047409 0.493129 0.474474 -0.045271
C146  C     C_R   0.506977 0.953469 0.524988 -0.043345
C147  C     C_R   0.507509 0.047543 0.474544 -0.044048
C148  C     C_R   0.547385 0.007191 0.025437 -0.037986
C149  C     C_R   0.453205 0.009793 0.974349 -0.044495
C150  C     C_R   0.989689 0.546426 0.025521 -0.041612
C151  C     C_R   0.998797 0.451933 0.975075 -0.032519
C152  C     C_R   0.452702 0.994135 0.025249 -0.046680
C153  C     C_R   0.547030 0.991900 0.974449 -0.045694
C154  C     C_R   0.013700 0.454011 0.026165 -0.049230
C155  C     C_1   0.328532 0.828016 0.249122 0.293191
C156  C     C_R   0.005446 0.547276 0.974650 -0.048596
C157  C     C_R   0.641781 0.983187 0.976227 0.278859
C158  C     C_R   0.357649 0.986942 0.021656 0.268805
C159  C     C_R   0.009790 0.642457 0.977974 0.268602
C160  C     C_R   0.032477 0.360667 0.024774 0.274475
C161  C     C_R   0.358432 0.012237 0.973389 0.279390
C162  C     C_R   0.642473 0.007639 0.024881 0.280025
C163  C     C_R   0.008889 0.357428 0.975861 0.268428
C164  C     C_R   0.984482 0.641062 0.026222 0.280220
C165  C     C_R   0.142377 0.490513 0.474995 0.277218
C166  C     C_1   0.828435 0.328834 0.249910 0.271762
C167  C     C_R   0.858340 0.483579 0.522570 0.266234
C168  C     C_R   0.517918 0.142226 0.477948 0.271584
C169  C     C_R   0.514445 0.859035 0.518298 0.277178
C170  C     C_R   0.858239 0.509018 0.474352 0.280514
C171  C     C_R   0.142309 0.514918 0.523671 0.275792
C172  C     C_R   0.472870 0.860862 0.482765 0.279012
C173  C     C_R   0.492709 0.142326 0.526326 0.279970
C174  C     C_R   0.000155 0.500396 0.553290 -0.004336
C175  C     C_R   0.000177 0.500452 0.446641 -0.003764
C176  C     C_R   0.500386 0.000321 0.553391 -0.013654
H1    H     H_    0.618864 0.875266 0.867144 0.357586
H2    H     H_    0.881369 0.374241 0.631067 0.359939
H3    H     H_    0.623638 0.117333 0.365995 0.354940
H4    H     H_    0.613029 0.874098 0.636672 0.358677
H5    H     H_    0.868445 0.629876 0.380333 0.356955
H6    H     H_    0.121592 0.622539 0.633687 0.358595
H7    H     H_    0.380439 0.882068 0.361013 0.355909
H8    H     H_    0.370721 0.133400 0.618751 0.358361
H9    H     H_    0.712459 0.898461 0.635490 0.399703
H10   H     H_    0.362831 0.173527 0.384866 0.399856
H11   H     H_    0.099086 0.720189 0.635720 0.400850
H12   H     H_    0.378860 0.880121 0.133225 0.357003
H13   H     H_    0.815358 0.372787 0.380244 0.409567
H14   H     H_    0.437594 0.250669 0.704048 0.396972
H15   H     H_    0.691067 0.827579 0.367859 0.364578
H16   H     H_    0.743104 0.398069 0.694528 0.372436
H17   H     H_    0.192044 0.620568 0.377251 0.413564
H18   H     H_    0.722027 0.097073 0.360680 0.397608
H19   H     H_    0.374861 0.812222 0.619193 0.406415
H20   H     H_    0.092723 0.280469 0.356775 0.397164
H21   H     H_    0.810901 0.624096 0.619849 0.405321
H22   H     H_    0.282291 0.897395 0.365592 0.403765
H23   H     H_    0.117856 0.624207 0.867015 0.357710
H24   H     H_    0.728803 0.134522 0.651021 0.367127
H25   H     H_    0.749653 0.563820 0.300156 0.400677
H26   H     H_    0.175285 0.311630 0.632712 0.362811
H27   H     H_    0.232499 0.411827 0.150240 0.396256
H28   H     H_    0.876958 0.689789 0.879453 0.407081
H29   H     H_    0.598893 0.216706 0.136266 0.400704
H30   H     H_    0.313941 0.876182 0.878091 0.409499
H31   H     H_    0.937143 0.753909 0.203765 0.398458
H32   H     H_    0.189411 0.325852 0.868207 0.362574
H33   H     H_    0.397813 0.781908 0.132462 0.399621
H34   H     H_    0.134574 0.394889 0.136525 0.351328
H35   H     H_    0.716994 0.095958 0.858944 0.416157
H36   H     H_    0.216180 0.601410 0.864836 0.399023
H37   H     H_    0.872125 0.317172 0.118833 0.403691
H38   H     H_    0.599603 0.777520 0.864588 0.398986
H39   H     H_    0.322392 0.136996 0.115344 0.401569
H40   H     H_    0.800724 0.371667 0.888504 0.405876
H41   H     H_    0.121298 0.689103 0.122199 0.409468
H42   H     H_    0.247637 0.063033 0.796266 0.398699
H43   H     H_    0.673229 0.809343 0.133010 0.362684
H44   H     H_    0.293158 0.994946 0.850909 0.385263
H45   H     H_    0.370676 0.133471 0.880578 0.355876
H46   H     H_    0.760546 0.059182 0.084285 0.409494
H47   H     H_    0.973185 0.234062 0.915582 0.413195
H48   H     H_    0.002060 0.706487 0.148318 0.384180
H49   H     H_    0.717649 0.985157 0.858129 0.398541
H50   H     H_    0.246915 0.915591 0.074437 0.415452
H51   H     H_    0.078615 0.753967 0.923828 0.414612
H52   H     H_    0.037499 0.284116 0.142293 0.400458
H53   H     H_    0.790882 0.491195 0.353030 0.386520
H54   H     H_    0.254840 0.578856 0.581577 0.412677
H55   H     H_    0.345816 0.797303 0.481806 0.431654
H56   H     H_    0.628940 0.119475 0.131023 0.361294
H57   H     H_    0.508583 0.208394 0.648830 0.383653
H58   H     H_    0.213508 0.501175 0.354456 0.402850
H59   H     H_    0.741142 0.416577 0.565969 0.425858
H60   H     H_    0.592511 0.250686 0.424998 0.414696
H61   H     H_    0.632606 0.779703 0.526371 0.429526
H62   H     H_    0.896141 0.358109 0.870258 0.371404
H63   H     H_    0.863703 0.625746 0.119176 0.355564
H64   H     H_    0.127219 0.378063 0.370079 0.359848
O1    O     O_3   0.500000 1.000000 0.750000 -0.529070
O2    O     O_R   0.500000 0.957290 0.365830 -0.639435
O3    O     O_2   0.612735 0.731654 0.322595 -0.160423
O4    O     O_2   0.683205 0.723353 0.385130 -0.154120
O5    O     O_3   0.656020 0.815596 0.357129 -0.517472
O6    O     O_2   0.802681 0.309104 0.618428 -0.183900
O7    O     O_2   0.709537 0.328879 0.625053 -0.182039
O8    O     O_3   0.773745 0.387525 0.673932 -0.490935
O9    O     O_2   0.253677 0.707932 0.394946 -0.142930
O10   O     O_2   0.161388 0.719557 0.372726 -0.229135
O11   O     O_3   0.208059 0.634158 0.345518 -0.538342
O12   O     O_2   0.783312 0.180381 0.379621 -0.158378
O13   O     O_R   0.957290 0.500000 0.634170 -0.645999
O14   O     O_2   0.689014 0.196505 0.380967 -0.214428
O15   O     O_3   0.724313 0.117851 0.328889 -0.578447
O16   O     O_2   0.286617 0.753181 0.602334 -0.153240
O17   O     O_2   0.275993 0.844267 0.629068 -0.229317
O18   O     O_3   0.362143 0.796307 0.651323 -0.534371
O19   O     O_2   0.170958 0.208741 0.373283 -0.160610
O20   O     O_2   0.191402 0.301508 0.383792 -0.213549
O21   O     O_3   0.113821 0.275287 0.325507 -0.578161
O22   O     O_2   0.750321 0.711545 0.603251 -0.153534
O23   O     O_2   0.841845 0.723379 0.628123 -0.233555
O24   O     O_R   0.042710 0.500000 0.365830 -0.636828
O25   O     O_3   0.795289 0.636944 0.652073 -0.531946
O26   O     O_2   0.225082 0.811845 0.385163 -0.160495
O27   O     O_2   0.319465 0.797585 0.378073 -0.207893
O28   O     O_3   0.278597 0.878082 0.333057 -0.575080
O29   O     O_2   0.645748 0.236239 0.635756 -0.166455
O30   O     O_2   0.733604 0.226628 0.600379 -0.141903
O31   O     O_3   0.692879 0.147679 0.645716 -0.524122
O32   O     O_2   0.759680 0.645340 0.364266 -0.192132
O33   O     O_2   0.674897 0.636815 0.321690 -0.153980
O34   O     O_3   0.754818 0.595037 0.278497 -0.555831
O35   O     O_R   0.000000 0.457290 0.134170 -0.638326
O36   O     O_2   0.270522 0.388908 0.681003 -0.158405
O37   O     O_2   0.279935 0.319536 0.617459 -0.142866
O38   O     O_3   0.187179 0.346467 0.644136 -0.512852
O39   O     O_2   0.293861 0.329455 0.129358 -0.166765
O40   O     O_2   0.199864 0.314602 0.119766 -0.194648
O41   O     O_3   0.231332 0.388406 0.180280 -0.579221
O42   O     O_2   0.788124 0.748111 0.897119 -0.138683
O43   O     O_2   0.778347 0.656787 0.870837 -0.237387
O44   O     O_3   0.863711 0.705633 0.847501 -0.528405
O45   O     O_2   0.679618 0.283561 0.119948 -0.156315
O46   O     O_R   1.000000 0.542710 0.865830 -0.645312
O47   O     O_2   0.699463 0.190077 0.116836 -0.210991
O48   O     O_3   0.618664 0.221061 0.168455 -0.575893
O49   O     O_2   0.250979 0.788831 0.896804 -0.134584
O50   O     O_2   0.342272 0.777426 0.870899 -0.228192
O51   O     O_3   0.294971 0.863680 0.847525 -0.547336
O52   O     O_2   0.855836 0.739712 0.137805 -0.181797
O53   O     O_2   0.863837 0.825177 0.179190 -0.160606
O54   O     O_3   0.905414 0.746015 0.223885 -0.557131
O55   O     O_2   0.111823 0.230636 0.820379 -0.166102
O56   O     O_2   0.181506 0.221466 0.883638 -0.140760
O57   O     O_R   0.542710 0.000000 0.134170 -0.639198
O58   O     O_3   0.154584 0.314087 0.856603 -0.504286
O59   O     O_2   0.313318 0.722611 0.114503 -0.154078
O60   O     O_2   0.297442 0.816854 0.118387 -0.216579
O61   O     O_3   0.378426 0.778960 0.165041 -0.577252
O62   O     O_2   0.781014 0.179650 0.881591 -0.141692
O63   O     O_2   0.686233 0.192957 0.879470 -0.223698
O64   O     O_3   0.725962 0.116217 0.827983 -0.547301
O65   O     O_2   0.278675 0.684474 0.882691 -0.152883
O66   O     O_2   0.184570 0.701688 0.880957 -0.218728
O67   O     O_3   0.220383 0.620913 0.832464 -0.577748
O68   O     O_R   0.457290 0.000000 0.865830 -0.629861
O69   O     O_2   0.784062 0.257090 0.101420 -0.138210
O70   O     O_2   0.773347 0.347209 0.131048 -0.232115
O71   O     O_3   0.860262 0.299168 0.150205 -0.538996
O72   O     O_2   0.684029 0.718728 0.882525 -0.167946
O73   O     O_2   0.699721 0.813064 0.881843 -0.196682
O74   O     O_3   0.619826 0.776536 0.832383 -0.578160
O75   O     O_2   0.266100 0.227694 0.101641 -0.143064
O76   O     O_2   0.354563 0.233879 0.136928 -0.234258
O77   O     O_3   0.303775 0.146978 0.147007 -0.531713
O78   O     O_2   0.751269 0.282282 0.898659 -0.156503
O79   O     O_R   1.000000 0.542710 0.134170 -0.628614
O80   O     O_2   0.842364 0.271581 0.871895 -0.213017
O81   O     O_3   0.795461 0.359425 0.853024 -0.577532
O82   O     O_2   0.208811 0.751230 0.103079 -0.137801
O83   O     O_2   0.220122 0.659388 0.126979 -0.226661
O84   O     O_3   0.134719 0.706759 0.153144 -0.548428
O85   O     O_2   0.258674 0.143516 0.862301 -0.186427
O86   O     O_2   0.174057 0.135952 0.819198 -0.161267
O87   O     O_3   0.254099 0.094756 0.775671 -0.556355
O88   O     O_2   0.769287 0.887494 0.178293 -0.158360
O89   O     O_2   0.777577 0.816785 0.116015 -0.141825
O90   O     O_R   1.000000 0.457290 0.865830 -0.638520
O91   O     O_3   0.685304 0.844374 0.143656 -0.511157
O92   O     O_2   0.272067 0.960496 0.943053 -0.207395
O93   O     O_2   0.269883 0.055993 0.938377 -0.124760
O94   O     O_3   0.324263 0.005311 0.870867 -0.513683
O95   O     O_2   0.684152 0.996200 0.118493 -0.214034
O96   O     O_2   0.734586 0.960973 0.047744 -0.149987
O97   O     O_3   0.732089 0.061679 0.058844 -0.422295
O98   O     O_2   0.025748 0.318351 0.881953 -0.204395
O99   O     O_2   0.066975 0.272284 0.952484 -0.146843
O100  O     O_3   0.966773 0.261962 0.940956 -0.425050
O101  O     O_R   0.457290 0.000000 0.134170 -0.644762
O102  O     O_2   0.034216 0.728564 0.056426 -0.209421
O103  O     O_2   0.938664 0.728669 0.060861 -0.119985
O104  O     O_3   0.990336 0.675655 0.128691 -0.512011
O105  O     O_2   0.739037 0.019431 0.955802 -0.185414
O106  O     O_2   0.722858 0.926107 0.942875 -0.150124
O107  O     O_3   0.685074 0.992325 0.877218 -0.513111
O108  O     O_2   0.307001 0.992978 0.111380 -0.227696
O109  O     O_2   0.256492 0.015925 0.036240 -0.169630
O110  O     O_3   0.277234 0.917970 0.051115 -0.424099
O111  O     O_2   0.002433 0.692571 0.888119 -0.236138
O112  O     O_3   0.500000 0.000000 0.250000 -0.532082
O113  O     O_R   0.542710 0.000000 0.865830 -0.637329
O114  O     O_2   0.978081 0.742732 0.963080 -0.170355
O115  O     O_3   0.076611 0.724588 0.948287 -0.424507
O116  O     O_2   0.008303 0.259359 0.043511 -0.176937
O117  O     O_2   0.098424 0.287096 0.059010 -0.156170
O118  O     O_3   0.026092 0.315412 0.123154 -0.493015
O119  O     O_2   0.770979 0.457559 0.445815 -0.211619
O120  O     O_2   0.769402 0.553004 0.440248 -0.127660
O121  O     O_3   0.822428 0.501235 0.372480 -0.514188
O122  O     O_2   0.188430 0.505832 0.615471 -0.209084
O123  O     O_2   0.240218 0.478940 0.542293 -0.150390
O124  O     O_R   0.560130 0.102810 0.719600 -0.605702
O125  O     O_3   0.226072 0.578248 0.556364 -0.425082
O126  O     O_2   0.440893 0.777861 0.428366 -0.134278
O127  O     O_2   0.435323 0.770468 0.521524 -0.206236
O128  O     O_3   0.367591 0.828601 0.475775 -0.497906
O129  O     O_2   0.546320 0.227670 0.556380 -0.163894
O130  O     O_2   0.450813 0.231918 0.560957 -0.138266
O131  O     O_3   0.500296 0.176795 0.628693 -0.501842
O132  O     O_2   0.233664 0.537577 0.450584 -0.190679
O133  O     O_2   0.228514 0.442709 0.439668 -0.149052
O134  O     O_3   0.180663 0.502369 0.374334 -0.508068
O135  O     O_R   0.439870 0.897190 0.280400 -0.607725
O136  O     O_2   0.809488 0.487863 0.613501 -0.207768
O137  O     O_2   0.758634 0.514769 0.539798 -0.191850
O138  O     O_3   0.776765 0.415766 0.551368 -0.399216
O139  O     O_2   0.513398 0.192824 0.388115 -0.227954
O140  O     O_2   0.491883 0.244111 0.463149 -0.171784
O141  O     O_3   0.589237 0.220501 0.448361 -0.416009
O142  O     O_2   0.536073 0.775181 0.576079 -0.165810
O143  O     O_2   0.540450 0.763096 0.483325 -0.163041
O144  O     O_3   0.615020 0.814094 0.526779 -0.487649
O145  O     O_R   0.897190 0.560130 0.719600 -0.607736
O146  O     O_R   0.102810 0.439870 0.280400 -0.610627
O147  O     O_R   0.439870 0.897190 0.719600 -0.609020
O148  O     O_R   0.560130 0.102810 0.280400 -0.601190
O149  O     O_R   0.102810 0.439870 0.719600 -0.597729
O150  O     O_R   0.897190 0.560130 0.280400 -0.605831
O151  O     O_R   0.560130 0.897190 0.280400 -0.603649
O152  O     O_3   1.000000 0.500000 0.750000 -0.533015
O153  O     O_R   0.439870 0.102810 0.719600 -0.608096
O154  O     O_R   0.897190 0.439870 0.280400 -0.611036
O155  O     O_R   0.102810 0.560130 0.719600 -0.605071
O156  O     O_R   0.439870 0.102810 0.280400 -0.607011
O157  O     O_R   0.560130 0.897190 0.719600 -0.610540
O158  O     O_R   0.102810 0.560130 0.280400 -0.602880
O159  O     O_R   0.897190 0.439870 0.719600 -0.592593
O160  O     O_R   0.060130 0.602810 0.219600 -0.613068
O161  O     O_R   0.939870 0.397190 0.780400 -0.619773
O162  O     O_R   0.397190 0.060130 0.219600 -0.606257
O163  O     O_3   0.000000 0.500000 0.250000 -0.530036
O164  O     O_R   0.602810 0.939870 0.780400 -0.605060
O165  O     O_R   0.939870 0.397190 0.219600 -0.605692
O166  O     O_R   0.060130 0.602810 0.780400 -0.604985
O167  O     O_R   0.602810 0.939870 0.219600 -0.595558
O168  O     O_R   0.397190 0.060130 0.780400 -0.602690
O169  O     O_R   0.060130 0.397190 0.780400 -0.595852
O170  O     O_R   0.939870 0.602810 0.219600 -0.601094
O171  O     O_R   0.397190 0.939870 0.780400 -0.612064
O172  O     O_R   0.602810 0.060130 0.219600 -0.610275
O173  O     O_R   0.939870 0.602810 0.780400 -0.605693
O174  O     O_R   0.500000 0.957290 0.634170 -0.651079
O175  O     O_R   0.060130 0.397190 0.219600 -0.599280
O176  O     O_R   0.602810 0.060130 0.780400 -0.605815
O177  O     O_R   0.397190 0.939870 0.219600 -0.602860
O178  O     O_2   0.547801 0.897323 0.921218 -0.631929
O179  O     O_R   0.628872 0.906276 0.888927 -0.673169
O180  O     O_2   0.447836 0.897502 0.074960 -0.627960
O181  O     O_R   0.370100 0.912389 0.112685 -0.674343
O182  O     O_2   0.102073 0.554814 0.925208 -0.627658
O183  O     O_R   0.085205 0.632046 0.887369 -0.674844
O184  O     O_2   0.106778 0.462963 0.081424 -0.630720
O185  O     O_R   0.500000 0.042710 0.365830 -0.644120
O186  O     O_R   0.104772 0.381867 0.114611 -0.680324
O187  O     O_2   0.450568 0.099810 0.913338 -0.636880
O188  O     O_R   0.363420 0.100912 0.901356 -0.675309
O189  O     O_2   0.554289 0.100162 0.080709 -0.633000
O190  O     O_R   0.636619 0.088173 0.108712 -0.677102
O191  O     O_2   0.905603 0.433464 0.922495 -0.628630
O192  O     O_R   0.928179 0.354098 0.892423 -0.675300
O193  O     O_2   0.899634 0.546695 0.086734 -0.636950
O194  O     O_R   0.896017 0.633813 0.098296 -0.674408
O195  O     O_2   0.052371 0.399836 0.419259 -0.635227
O196  O     O_R   0.042710 0.500000 0.634170 -0.639082
O197  O     O_R   0.135371 0.409388 0.392207 -0.673986
O198  O     O_2   0.952190 0.397252 0.577113 -0.626955
O199  O     O_R   0.871547 0.406143 0.610349 -0.639835
O200  O     O_2   0.603288 0.048460 0.423336 -0.624967
O201  O     O_R   0.591974 0.127369 0.386915 -0.676376
O202  O     O_2   0.605145 0.944245 0.577033 -0.618963
O203  O     O_R   0.580719 0.868686 0.615106 -0.683736
O204  O     O_2   0.948452 0.598908 0.415141 -0.633950
O205  O     O_R   0.861707 0.597034 0.400851 -0.673326
O206  O     O_2   0.050272 0.602672 0.579176 -0.630800
O207  O     O_R   0.957290 0.500000 0.365830 -0.632008
O208  O     O_R   0.130842 0.591280 0.611905 -0.677227
O209  O     O_2   0.391940 0.952367 0.419803 -0.623990
O210  O     O_R   0.411287 0.874278 0.383864 -0.679689
O211  O     O_2   0.401929 0.052843 0.585332 -0.630970
O212  O     O_R   0.403751 0.139789 0.598392 -0.678002
O213  O     O_2   0.777339 0.815844 0.616450 -0.162228
O214  O     O_2   0.683285 0.798632 0.620060 -0.228612
O215  O     O_3   0.719926 0.879517 0.667614 -0.576692
O216  O     O_2   0.274112 0.232724 0.400113 -0.141021
O217  O     O_2   0.264893 0.144982 0.363923 -0.233495
O218  O     O_R   0.500000 0.042710 0.634170 -0.623057
O219  O     O_3   0.353241 0.193216 0.353722 -0.533763
O220  O     O_2   0.182329 0.781497 0.617871 -0.157587
O221  O     O_2   0.199476 0.687409 0.618061 -0.211148
O222  O     O_3   0.119172 0.722518 0.667925 -0.578511
O223  O     O_2   0.754769 0.284113 0.397539 -0.137393
O224  O     O_2   0.845522 0.274480 0.369219 -0.230367
O225  O     O_3   0.796760 0.360808 0.349261 -0.546687
O226  O     O_2   0.357449 0.242348 0.638478 -0.193085
O227  O     O_2   0.365248 0.326461 0.682415 -0.155893
O228  O     O_3   0.405994 0.245867 0.725275 -0.559351
S1    S     S_3+6 0.729715 0.817239 0.649868 0.111729
S2    S     S_3+6 0.297073 0.791808 0.644199 0.126874
S3    S     S_3+6 0.174017 0.260497 0.346559 0.113286
S4    S     S_3+6 0.789922 0.701876 0.644437 0.127514
S5    S     S_3+6 0.271441 0.815281 0.350215 0.115896
S6    S     S_3+6 0.698792 0.212988 0.644533 0.147111
S7    S     S_3+6 0.732316 0.645159 0.313578 0.131221
S8    S     S_3+6 0.249236 0.337519 0.663037 0.154724
S9    S     S_3+6 0.242394 0.328359 0.156808 0.115679
S10   S     S_3+6 0.798664 0.709419 0.855319 0.129364
S11   S     S_3+6 0.680265 0.233743 0.150142 0.115829
S12   S     S_3+6 0.287824 0.198258 0.355743 0.129840
S13   S     S_3+6 0.290059 0.798711 0.855178 0.133333
S14   S     S_3+6 0.855564 0.767884 0.188053 0.131111
S15   S     S_3+6 0.163350 0.251931 0.837989 0.157319
S16   S     S_3+6 0.315802 0.770139 0.147953 0.117134
S17   S     S_3+6 0.733231 0.177962 0.848453 0.131521
S18   S     S_3+6 0.230423 0.683152 0.850171 0.116161
S19   S     S_3+6 0.795082 0.294463 0.144213 0.129019
S20   S     S_3+6 0.682097 0.767303 0.850495 0.114404
S21   S     S_3+6 0.300683 0.212503 0.145473 0.128286
S22   S     S_3+6 0.790330 0.294174 0.857492 0.112598
S23   S     S_3+6 0.181254 0.732754 0.649692 0.115121
S24   S     S_3+6 0.199553 0.711400 0.144142 0.132918
S25   S     S_3+6 0.231538 0.144291 0.811507 0.129768
S26   S     S_3+6 0.747668 0.835758 0.161716 0.156436
S27   S     S_3+6 0.303614 0.008542 0.931769 0.146097
S28   S     S_3+6 0.699512 0.004991 0.063762 0.175761
S29   S     S_3+6 0.018867 0.301544 0.936532 0.178808
S30   S     S_3+6 0.986826 0.696021 0.067716 0.148214
S31   S     S_3+6 0.699651 0.979768 0.938624 0.149615
S32   S     S_3+6 0.298009 0.979939 0.056128 0.153769
S33   S     S_3+6 0.015194 0.702139 0.943342 0.149088
S34   S     S_3+6 0.792713 0.295603 0.355306 0.131101
S35   S     S_3+6 0.042148 0.303277 0.062011 0.156477
S36   S     S_3+6 0.802708 0.505248 0.433633 0.143822
S37   S     S_3+6 0.200681 0.517948 0.560601 0.175200
S38   S     S_3+6 0.429513 0.806893 0.476929 0.154588
S39   S     S_3+6 0.497568 0.197232 0.567711 0.169059
S40   S     S_3+6 0.198841 0.493083 0.435381 0.147574
S41   S     S_3+6 0.799324 0.476931 0.558018 0.160375
S42   S     S_3+6 0.526670 0.201534 0.443356 0.156424
S43   S     S_3+6 0.550863 0.800408 0.526367 0.167072
S44   S     S_3+6 0.356626 0.268971 0.689543 0.128535
S45   S     S_3+6 0.664490 0.753164 0.339285 0.147089
S46   S     S_3+6 0.760150 0.326732 0.653896 0.122352
S47   S     S_3+6 0.213047 0.698921 0.354585 0.134071
S48   S     S_3+6 0.734167 0.179559 0.348388 0.115081
Zn1   Zn    Zn3+2 0.561040 0.000000 0.793350 1.069905
Zn2   Zn    Zn3+2 0.938960 0.500000 0.706650 1.070047
Zn3   Zn    Zn3+2 0.500000 0.061040 0.293350 1.068478
Zn4   Zn    Zn3+2 0.500000 0.938960 0.706650 1.060431
Zn5   Zn    Zn3+2 0.938960 0.500000 0.293350 1.067550
Zn6   Zn    Zn3+2 0.061040 0.500000 0.706650 1.076715
Zn7   Zn    Zn3+2 0.500000 0.938960 0.293350 1.068388
Zn8   Zn    Zn3+2 0.500000 0.061040 0.706650 1.074372
Zn9   Zn    Zn3+2 0.438960 1.000000 0.206650 1.068028
Zn10  Zn    Zn3+2 1.000000 0.561040 0.793350 1.066624
Zn11  Zn    Zn3+2 1.000000 0.438960 0.206650 1.070336
Zn12  Zn    Zn3+2 0.438960 0.000000 0.793350 1.067747
Zn13  Zn    Zn3+2 0.561040 1.000000 0.206650 1.077018
Zn14  Zn    Zn3+2 0.000000 0.438960 0.793350 1.070842
Zn15  Zn    Zn3+2 0.000000 0.561040 0.206650 1.068069
Zn16  Zn    Zn3+2 0.061040 0.500000 0.293350 1.067189

loop_
_geom_bond_atom_site_label_1
_geom_bond_atom_site_label_2
_ccdc_geom_bond_type
C10   C174  S    
C31   O157  A    
O94   S27   S    
C85   C137  S    
C142  C146  A    
C92   C133  S    
O46   Zn10  S    
H32   O58   S    
O171  Zn12  S    
C21   O171  A    
C131  C143  A    
O149  Zn6   S    
O126  S38   D    
O127  S38   D    
C25   O150  A    
C74   O187  D    
C47   C98   A    
C24   C98   S    
O87   S25   S    
O122  S37   D    
O220  S23   D    
C59   C66   A    
C126  C149  A    
C83   O204  D    
C4    C148  A    
C47   S1    S    
O7    S46   D    
C5    C149  A    
H18   O15   S    
O72   S20   D    
H54   O125  S    
C22   C113  S    
C57   C109  T    
C16   O68   A    
C134  C169  A    
C146  C176  A    
O100  S29   S    
C69   C92   A    
O27   S5    D    
O163  Zn16  S    
O1    Zn12  S    
O113  Zn1   S    
C10   O196  A    
O20   S3    D    
H13   O225  S    
O106  S31   D    
C72   C124  S    
O36   S8    D    
C42   C94   A    
C25   C119  S    
C172  S38   S    
H10   O219  S    
C134  C146  A    
O123  S37   D    
O152  Zn2   S    
C160  C163  A    
O165  Zn11  S    
C71   O181  S    
C66   S16   S    
H23   O183  S    
O132  S40   D    
C81   O200  D    
O177  Zn9   S    
O90   Zn14  S    
H9    O215  S    
C129  C164  A    
O82   S24   D    
C82   C134  S    
C57   C102  S    
C75   O189  D    
C169  S43   S    
C59   S24   S    
C136  C171  A    
C42   S5    S    
C111  C113  T    
C77   C129  S    
O60   S16   D    
C17   C118  S    
C82   O202  D    
O47   S11   D    
O79   Zn15  S    
O107  S31   S    
C60   C65   A    
C46   C110  T    
H15   O5    S    
C16   O113  A    
H1    O179  S    
C148  C153  A    
O146  Zn16  S    
O117  S35   D    
C95   C166  S    
O70   S19   D    
O213  S1    D    
O147  Zn4   S    
C123  C152  A    
C21   O147  A    
O52   S14   D    
C26   O151  A    
O11   S47   S    
C11   C175  S    
O152  Zn14  S    
H2    O199  S    
C81   C132  S    
C138  C141  A    
C84   O206  D    
O63   S17   D    
C38   C90   A    
O119  S36   D    
H48   O104  S    
O96   S28   D    
O56   S15   D    
C2    C96   S    
C73   O186  S    
C38   C43   A    
H37   O71   S    
H35   O64   S    
C6    C12   S    
C130  C165  A    
C27   C108  S    
O9    S47   D    
O153  Zn8   S    
C2    C106  T    
C13   C97   S    
C71   O180  D    
C141  C147  A    
C19   O173  A    
C58   C67   A    
O89   S26   D    
C15   O57   A    
O93   S27   D    
H42   O87   S    
O217  S12   D    
H8    O212  S    
O214  S1    D    
O19   S3    D    
C157  C162  A    
H57   O131  S    
C61   S13   S    
C165  C171  A    
H63   O194  S    
C39   C51   A    
C137  C142  A    
C89   C115  T    
C3    C147  A    
O78   S22   D    
C86   O211  D    
C10   O13   A    
C68   C103  S    
O163  Zn5   S    
C125  C160  A    
O58   S15   S    
C33   O161  A    
C3    C9    S    
C31   O164  A    
C71   C123  S    
H38   O74   S    
C73   O184  D    
C40   S7    S    
C160  S35   S    
O10   S47   D    
O185  Zn3   S    
O12   S48   D    
C135  C170  A    
O101  Zn9   S    
O124  Zn8   S    
O110  S32   S    
O15   S48   S    
H56   O190  S    
O84   S24   S    
H59   O138  S    
C83   O205  S    
C17   O124  A    
O4    S45   D    
C94   C155  S    
C137  C172  A    
O37   S8    D    
C84   C136  S    
C117  C155  T    
O105  S31   D    
O41   S9    S    
O142  S43   D    
H3    O201  S    
C50   S45   S    
C64   C87   A    
C77   O194  S    
O54   S14   S    
C78   O197  S    
O112  Zn7   S    
C65   C93   A    
C157  S31   S    
C131  C167  A    
O112  Zn13  S    
C85   O209  D    
C90   C111  S    
O34   S7    S    
H50   O110  S    
C12   O35   A    
C84   O208  S    
O25   S4    S    
C4    C152  A    
C46   C101  S    
H29   O48   S    
O216  S12   D    
C145  C175  A    
O81   S22   S    
C100  C114  T    
O114  S33   D    
C22   O172  A    
C91   C122  S    
H51   O115  S    
O222  S23   S    
O61   S16   S    
H33   O61   S    
O13   Zn2   S    
C19   O145  A    
O121  S36   S    
C44   C96   A    
C34   C79   A    
C9    O185  A    
C42   C48   A    
C11   O24   A    
O31   S6    S    
C26   C109  S    
C54   C95   A    
C93   C144  S    
O69   S19   D    
O53   S14   D    
C127  C162  A    
O174  Zn4   S    
C30   C105  S    
O164  Zn1   S    
O62   S17   D    
C43   S34   S    
O223  S34   D    
C125  C154  A    
C17   O176  A    
H14   O228  S    
C26   O167  A    
O43   S10   D    
C29   O166  A    
C132  C147  A    
H40   O81   S    
C55   C96   A    
C27   O153  A    
C20   O175  A    
C20   C115  S    
C8    C176  S    
O137  S41   D    
C65   S17   S    
C53   C98   A    
O112  Zn3   S    
C82   O203  S    
C74   O188  S    
H16   O8    S    
O97   S28   S    
C31   C104  S    
C78   C130  S    
C56   C102  A    
C36   S3    S    
O134  S40   S    
C162  S28   S    
C53   C63   A    
O68   Zn12  S    
H6    O208  S    
C19   C116  S    
O168  Zn12  S    
C73   C125  S    
C51   S44   S    
C55   C61   A    
C81   O201  S    
O219  S12   S    
C30   O162  A    
C75   C127  S    
H21   O25   S    
O170  Zn15  S    
C29   O155  A    
C40   C92   A    
C30   O156  A    
C23   O149  A    
C78   O195  D    
C37   C44   A    
C39   S8    S    
C56   C69   A    
C12   O79   A    
C159  C164  A    
O30   S6    D    
C139  C174  A    
O152  Zn10  S    
C33   C110  S    
O85   S25   D    
O163  Zn15  S    
C35   C112  T    
C130  C145  A    
O6    S46   D    
H4    O203  S    
O207  Zn5   S    
C49   S46   S    
C37   C88   A    
O227  S44   D    
O138  S41   S    
C158  S32   S    
C62   S11   S    
O125  S37   S    
C121  C153  A    
H20   O21   S    
O49   S13   D    
C49   C101  A    
C72   O183  S    
O131  S39   S    
C51   C103  A    
O21   S3    S    
C54   S19   S    
O144  S43   S    
C59   C99   A    
O32   S7    D    
C41   C49   A    
O65   S18   D    
O139  S42   D    
C158  C161  A    
C22   O148  A    
C25   O170  A    
C45   S12   S    
C76   O191  D    
C41   C93   A    
C20   O146  A    
C141  C176  A    
C43   C95   A    
C140  C143  A    
O86   S25   D    
C67   S15   S    
O29   S6    D    
C126  C161  A    
O23   S4    D    
O33   S7    D    
C127  C148  A    
C80   C131  S    
O67   S18   S    
H5    O205  S    
O95   S28   D    
C136  C139  A    
H11   O222  S    
C64   S9    S    
O175  Zn11  S    
C135  C140  A    
O221  S23   D    
O50   S13   D    
H46   O97   S    
C13   C105  T    
C52   C64   A    
O73   S20   D    
C21   C114  S    
C54   C62   A    
O2    Zn7   S    
H43   O91   S    
O80   S22   D    
C27   O168  A    
H62   O192  S    
C173  S39   S    
C50   C102  A    
H27   O41   S    
H12   O181  S    
O102  S30   D    
O135  Zn7   S    
C69   S14   S    
C138  C173  A    
H34   O186  S    
C41   S6    S    
O167  Zn13  S    
C18   C117  S    
C88   C100  S    
C7    C151  A    
O64   S17   S    
C56   S26   S    
O155  Zn6   S    
O18   S2    S    
O160  Zn15  S    
C76   C128  S    
C18   O177  A    
O8    S46   S    
O145  Zn2   S    
O158  Zn16  S    
H7    O210  S    
O57   Zn13  S    
C80   O199  S    
C48   C99   A    
C159  S33   S    
C32   C112  S    
C86   O212  S    
O51   S13   S    
O1    Zn4   S    
O162  Zn9   S    
O76   S21   D    
O16   S2    D    
O109  S32   D    
H45   O188  S    
O154  Zn5   S    
O5    S45   S    
H61   O144  S    
C32   O158  A    
O129  S39   D    
C15   O101  A    
C28   O165  A    
O116  S35   D    
C75   O190  S    
C63   S10   S    
C170  S36   S    
C140  C175  A    
C40   C50   A    
O173  Zn10  S    
O224  S34   D    
O74   S20   S    
C6    C150  A    
C129  C150  A    
O22   S4    D    
H64   O197  S    
O44   S10   S    
O17   S2    D    
C87   C89   S    
O91   S26   S    
O1    Zn1   S    
C34   C47   A    
C143  C174  A    
O218  Zn8   S    
O225  S34   S    
C77   O193  D    
H24   O31   S    
O228  S44   S    
O77   S21   S    
C37   S2    S    
C70   C121  S    
O14   S48   D    
C168  S42   S    
O166  Zn10  S    
O1    Zn8   S    
C63   C79   A    
O40   S9    D    
H22   O28   S    
C119  C133  T    
O92   S27   D    
O143  S43   D    
C14   O46   A    
C118  C144  T    
C23   O169  A    
O104  S30   S    
C5    C153  A    
O130  S39   D    
C28   C107  S    
C124  C159  A    
C70   O178  D    
C52   C97   A    
O152  Zn6   S    
C151  C154  A    
O136  S41   D    
C5    C16   S    
O163  Zn11  S    
C72   O182  D    
C7    C14   S    
O39   S9    D    
O120  S36   D    
C38   S48   S    
O42   S10   D    
H49   O107  S    
O169  Zn14  S    
C1    C116  T    
O115  S33   S    
C171  S37   S    
O55   S15   D    
H25   O34   S    
H39   O77   S    
O150  Zn5   S    
C107  C166  T    
C34   S4    S    
O108  S32   D    
O151  Zn7   S    
O75   S21   D    
C3    C142  A    
C35   C99   S    
C9    O2    A    
C67   C91   A    
O133  S40   D    
C120  C122  T    
C163  S29   S    
C167  C170  A    
C11   O207  A    
C36   C87   A    
C168  C173  A    
O83   S24   D    
C32   O160  A    
C7    C156  A    
C53   S20   S    
O71   S19   S    
O140  S42   D    
C149  C152  A    
C23   C120  S    
H26   O38   S    
O103  S30   D    
O35   Zn11  S    
O112  Zn9   S    
H41   O84   S    
C18   O135  A    
O156  Zn3   S    
C128  C163  A    
O98   S29   D    
C24   C104  T    
H36   O67   S    
C48   S47   S    
C167  S41   S    
C61   C88   A    
H60   O141  S    
C165  S40   S    
C128  C151  A    
C164  S30   S    
C70   O179  S    
C60   S22   S    
C36   C45   A    
O159  Zn2   S    
C6    C154  A    
C8    O174  A    
H58   O134  S    
O226  S44   D    
O172  Zn13  S    
O24   Zn16  S    
O148  Zn3   S    
C161  S27   S    
C14   O90   A    
C124  C156  A    
H53   O121  S    
O176  Zn1   S    
C169  C172  A    
O88   S26   D    
C85   O210  S    
C33   O159  A    
H19   O18   S    
H47   O100  S    
C60   C101  A    
O28   S5    S    
O48   S11   S    
O59   S16   D    
O3    S45   D    
O45   S11   D    
O38   S8    S    
C29   C106  S    
C139  C145  A    
O215  S1    S    
C83   C135  S    
C39   C91   A    
O118  S35   S    
C132  C168  A    
H55   O128  S    
O196  Zn6   S    
O128  S38   S    
C123  C158  A    
C80   O198  D    
C150  C156  A    
C58   S25   S    
O99   S29   D    
C66   C94   A    
C4    C15   S    
H52   O118  S    
O161  Zn14  S    
H30   O51   S    
C45   C97   A    
O111  S33   D    
C55   S18   S    
C74   C126  S    
C1    C79   S    
C62   C90   A    
C8    O218  A    
O157  Zn4   S    
C52   S21   S    
O66   S18   D    
H17   O11   S    
H31   O54   S    
O141  S42   S    
H44   O94   S    
C86   C138  S    
C76   O192  S    
C28   O154  A    
C44   S23   S    
C121  C157  A    
C58   C103  A    
C68   C108  T    
H28   O44   S    
O26   S5    D    
