data_mof_unit_31079.cif
_audit_creation_date              2012-10-26T20:45:12-0400
_audit_creation_method            fapswitch 2.2
_symmetry_space_group_name_H-M    P1
_symmetry_Int_Tables_number       1
_space_group_crystal_system       triclinic
_cell_length_a                    12.709661
_cell_length_b                    13.863478
_cell_length_c                    23.426957
_cell_angle_alpha                 89.100739
_cell_angle_beta                  92.776266
_cell_angle_gamma                 98.261699
_cell_volume                      4080.0400235

loop_
_atom_site_label
_atom_site_type_symbol
_atom_type_description
_atom_site_fract_x
_atom_site_fract_y
_atom_site_fract_z
_atom_type_partial_charge
C1    C     C_R   0.483460 0.315979 0.496592 0.528890
C2    C     C_R   0.519685 0.602285 0.695362 -0.011129
C3    C     C_R   0.529217 0.456996 0.233689 0.308491
C4    C     C_R   0.521836 0.616003 0.754706 0.303293
C5    C     C_R   0.507842 0.546033 0.209389 0.223715
C6    C     C_R   0.503068 0.535716 0.791777 0.226994
C7    C     C_1   0.526247 0.787696 0.501788 -0.055730
C8    C     C_1   0.473670 0.212757 0.493163 -0.048886
C9    C     C_2   0.542014 0.979854 0.506758 0.287780
C10   C     C_2   0.457548 0.020812 0.486779 0.288238
C11   C     C_1   0.465317 0.125779 0.490069 -0.022207
C12   C     C_R   0.516641 0.684310 0.500567 0.525833
C13   C     C_1   0.534146 0.874779 0.503735 -0.027045
C14   C     C_2   0.026129 0.465749 0.487710 0.249655
C15   C     C_2   0.973978 0.533444 0.511679 0.252108
C16   C     C_R   0.500748 0.502043 0.390752 0.542479
C17   C     C_R   0.499035 0.497836 0.609553 0.545117
C18   C     C_1   0.855007 0.521407 0.509903 0.174390
C19   C     C_1   0.145054 0.478359 0.489876 0.164548
C20   C     C_R   0.597248 0.576282 0.882633 0.422410
C21   C     C_R   0.410283 0.545018 0.118276 0.376170
C22   C     C_R   0.407552 0.545598 0.877763 0.370936
C23   C     C_R   0.484609 0.622044 0.244160 0.033376
C24   C     C_R   0.599614 0.582251 0.121463 0.424229
C25   C     C_R   0.404512 0.551971 0.937566 -0.008948
C26   C     C_R   0.598970 0.600789 0.062049 -0.020193
C27   C     C_R   0.501418 0.576507 0.969752 -0.148972
C28   C     C_R   0.501786 0.578069 0.030002 -0.146001
C29   C     C_R   0.598720 0.593863 0.941924 -0.015214
C30   C     C_R   0.405481 0.554179 0.058251 -0.004955
C31   C     C_R   0.308007 0.531767 0.965975 0.249140
C32   C     C_R   0.692511 0.639455 0.033508 0.286581
C33   C     C_R   0.307863 0.538683 0.025858 0.260228
C34   C     C_R   0.483786 0.439663 0.770437 0.029925
C35   C     C_R   0.694042 0.628715 0.973703 0.296368
C36   C     C_3   0.188903 0.402562 0.935424 0.044041
C37   C     C_3   0.086625 0.372900 0.899105 -0.235538
C38   C     C_3   0.057315 0.262289 0.897029 -0.496920
C39   C     C_3   0.764653 0.764101 0.095637 0.021605
C40   C     C_3   0.823721 0.860208 0.073442 -0.299173
C41   C     C_3   0.817530 0.943565 0.114407 -0.482954
C42   C     C_3   0.152604 0.598052 0.044003 0.050154
C43   C     C_3   0.170951 0.667245 0.094955 -0.258185
C44   C     C_3   0.099548 0.746763 0.089219 -0.499996
C45   C     C_R   0.479030 0.606553 0.304075 -0.023614
C46   C     C_3   0.831290 0.740634 0.938213 0.042075
C47   C     C_3   0.752406 0.802455 0.908471 -0.285967
C48   C     C_3   0.807001 0.905062 0.894974 -0.492743
C49   C     C_3   0.471224 0.720493 0.216863 -0.254758
C50   C     C_3   0.576783 0.788999 0.218683 -0.449829
C51   C     C_3   0.471855 0.354599 0.813381 -0.259511
C52   C     C_3   0.579912 0.326206 0.832646 -0.431788
C53   C     C_3   0.448106 0.685255 0.342239 -0.253064
C54   C     C_3   0.327355 0.676911 0.345845 -0.406866
C55   C     C_3   0.456865 0.316541 0.691172 -0.290699
C56   C     C_R   0.480938 0.423540 0.710191 -0.020379
C57   C     C_3   0.465597 0.289960 0.629325 -0.417536
C58   C     C_3   0.555671 0.346937 0.319059 -0.256455
C59   C     C_3   0.455388 0.279359 0.335186 -0.453137
C60   C     C_3   0.536123 0.692346 0.656922 -0.265133
C61   C     C_3   0.429647 0.724384 0.637888 -0.431155
C62   C     C_3   0.464035 0.328822 0.175219 0.027465
C63   C     C_3   0.485056 0.223733 0.169255 -0.270908
C64   C     C_3   0.388473 0.159544 0.142197 -0.488247
C65   C     C_3   0.465626 0.748115 0.796513 0.018097
C66   C     C_3   0.482417 0.858015 0.785283 -0.274976
C67   C     C_R   0.502802 0.516934 0.328381 -0.023511
C68   C     C_3   0.391209 0.905814 0.806912 -0.486712
C69   C     C_3   0.276276 0.006816 0.455425 0.003930
C70   C     C_3   0.221392 0.008234 0.512289 -0.263943
C71   C     C_3   0.123765 0.060582 0.505953 -0.494051
C72   C     C_3   0.715432 0.989636 0.550256 0.010220
C73   C     C_3   0.698563 0.949765 0.611106 -0.269576
C74   C     C_3   0.784460 0.888476 0.630560 -0.490064
C75   C     C_3   0.984524 0.694393 0.544971 0.005759
C76   C     C_3   0.979632 0.749710 0.487801 -0.268023
C77   C     C_3   0.914591 0.833352 0.491690 -0.493872
C78   C     C_R   0.498619 0.506583 0.672471 -0.007470
C79   C     C_3   0.020578 0.309774 0.447659 0.005388
C80   C     C_3   0.070735 0.323217 0.389208 -0.254138
C81   C     C_3   0.142643 0.246295 0.379633 -0.486829
C82   C     C_R   0.529358 0.442662 0.293346 -0.019332
Cu1   Cu    Cu3+1 0.395330 0.493960 0.496390 0.944782
Cu2   Cu    Cu3+1 0.604670 0.506040 0.503610 0.971619
H1    H     H_    0.176848 0.373552 0.979606 0.155588
H2    H     H_    0.908710 0.853331 0.068254 0.163090
H3    H     H_    0.096859 0.171971 0.382458 0.137344
H4    H     H_    0.786745 0.878429 0.031512 0.148356
H5    H     H_    0.733208 0.952536 0.120110 0.144939
H6    H     H_    0.859534 0.012504 0.096696 0.152312
H7    H     H_    0.856005 0.929009 0.156643 0.148019
H8    H     H_    0.067053 0.566651 0.040677 0.180492
H9    H     H_    0.169238 0.640147 0.003647 0.142847
H10   H     H_    0.153472 0.625384 0.135066 0.216801
H11   H     H_    0.255556 0.701726 0.097687 0.154896
H12   H     H_    0.115851 0.790316 0.049600 0.137278
H13   H     H_    0.254446 0.369607 0.916767 0.125745
H14   H     H_    0.115098 0.796113 0.126493 0.144645
H15   H     H_    0.014515 0.713741 0.087969 0.197848
H16   H     H_    0.899883 0.742137 0.910413 0.161697
H17   H     H_    0.865621 0.773533 0.978681 0.150426
H18   H     H_    0.719465 0.767781 0.867833 0.233733
H19   H     H_    0.685552 0.808532 0.936441 0.130197
H20   H     H_    0.840814 0.942334 0.934767 0.139182
H21   H     H_    0.748097 0.948120 0.874415 0.147764
H22   H     H_    0.871795 0.902008 0.865177 0.153166
H23   H     H_    0.605742 0.806128 0.263284 0.149146
H24   H     H_    0.020449 0.404989 0.917342 0.186514
H25   H     H_    0.638085 0.754904 0.197572 0.169304
H26   H     H_    0.566446 0.858139 0.195952 0.124048
H27   H     H_    0.441703 0.713029 0.171673 0.151200
H28   H     H_    0.409921 0.755286 0.237517 0.138444
H29   H     H_    0.625127 0.310097 0.795450 0.153007
H30   H     H_    0.627758 0.385795 0.857510 0.198499
H31   H     H_    0.568004 0.260274 0.860422 0.124119
H32   H     H_    0.431006 0.372024 0.851719 0.160019
H33   H     H_    0.419655 0.289577 0.796414 0.121296
H34   H     H_    0.293952 0.604945 0.363524 0.184272
H35   H     H_    0.097393 0.401681 0.854889 0.203976
H36   H     H_    0.307877 0.734579 0.374270 0.154765
H37   H     H_    0.288677 0.685938 0.303000 0.139892
H38   H     H_    0.484749 0.681421 0.385791 0.158095
H39   H     H_    0.479753 0.759484 0.327524 0.136554
H40   H     H_    0.400416 0.315709 0.602997 0.183409
H41   H     H_    0.545778 0.318189 0.614425 0.183801
H42   H     H_    0.454791 0.209298 0.625558 0.123629
H43   H     H_    0.512374 0.274265 0.715313 0.150277
H44   H     H_    0.374483 0.287531 0.702819 0.143452
H45   H     H_    0.412016 0.313140 0.367693 0.166395
H46   H     H_    0.121611 0.228834 0.877916 0.143226
H47   H     H_    0.401390 0.261993 0.296965 0.143161
H48   H     H_    0.477804 0.210233 0.353264 0.139319
H49   H     H_    0.598997 0.307805 0.288917 0.187228
H50   H     H_    0.610548 0.360782 0.357282 0.168493
H51   H     H_    0.443569 0.793305 0.612954 0.129246
H52   H     H_    0.381267 0.668118 0.610834 0.199690
H53   H     H_    0.383729 0.737410 0.675343 0.147737
H54   H     H_    0.585839 0.754015 0.679271 0.180771
H55   H     H_    0.581299 0.679707 0.619162 0.156583
H56   H     H_    0.445930 0.357673 0.131933 0.169880
H57   H     H_    0.982743 0.243245 0.870406 0.152791
H58   H     H_    0.392622 0.328582 0.201265 0.135289
H59   H     H_    0.554344 0.222353 0.142231 0.180637
H60   H     H_    0.504407 0.193660 0.212114 0.161197
H61   H     H_    0.318781 0.158154 0.169203 0.149965
H62   H     H_    0.406487 0.083944 0.138323 0.142120
H63   H     H_    0.368518 0.187373 0.098873 0.149815
H64   H     H_    0.462105 0.735930 0.843380 0.156942
H65   H     H_    0.387811 0.715875 0.775773 0.146905
H66   H     H_    0.558292 0.891176 0.807177 0.167845
H67   H     H_    0.488229 0.872343 0.738653 0.161837
H68   H     H_    0.044436 0.232042 0.940737 0.147591
H69   H     H_    0.314787 0.875159 0.784702 0.153014
H70   H     H_    0.406096 0.985476 0.798269 0.141271
H71   H     H_    0.385088 0.893814 0.853703 0.147365
H72   H     H_    0.220403 0.962520 0.424828 0.148511
H73   H     H_    0.291644 0.080558 0.435464 0.124191
H74   H     H_    0.196632 0.932068 0.526979 0.168520
H75   H     H_    0.277359 0.045837 0.545453 0.158693
H76   H     H_    0.148322 0.138594 0.495353 0.146326
H77   H     H_    0.082461 0.055833 0.546811 0.141853
H78   H     H_    0.067528 0.026756 0.471738 0.141283
H79   H     H_    0.795264 0.752983 0.140110 0.190483
H80   H     H_    0.789628 0.042958 0.551351 0.153948
H81   H     H_    0.729529 0.932187 0.520132 0.124305
H82   H     H_    0.700408 0.011701 0.640868 0.167787
H83   H     H_    0.619645 0.904140 0.613221 0.156057
H84   H     H_    0.779510 0.822923 0.603359 0.147918
H85   H     H_    0.772648 0.864222 0.675485 0.158481
H86   H     H_    0.864718 0.931879 0.628125 0.142391
H87   H     H_    0.032536 0.743872 0.576322 0.154728
H88   H     H_    0.904879 0.676721 0.563349 0.131385
H89   H     H_    0.061763 0.779129 0.475898 0.168528
H90   H     H_    0.678948 0.772784 0.097330 0.101724
H91   H     H_    0.942625 0.699867 0.453448 0.164207
H92   H     H_    0.830661 0.803931 0.499838 0.155203
H93   H     H_    0.916284 0.874758 0.450714 0.143773
H94   H     H_    0.947757 0.883629 0.526630 0.140263
H95   H     H_    0.962314 0.241852 0.446250 0.156449
H96   H     H_    0.080067 0.297586 0.482556 0.119684
H97   H     H_    0.006483 0.317652 0.355002 0.172916
H98   H     H_    0.118621 0.396442 0.385749 0.171173
H99   H     H_    0.210045 0.253508 0.412029 0.156545
H100  H     H_    0.175576 0.256530 0.336556 0.149924
N1    N     N_R   0.502843 0.552666 0.852280 -0.402528
N2    N     N_R   0.506220 0.557851 0.148184 -0.396307
N3    N     N_1   0.238030 0.484870 0.490960 -0.208303
N4    N     N_1   0.761970 0.515130 0.509040 -0.200565
O1    O     O_R   0.399110 0.356330 0.496510 -0.512866
O2    O     O_2   0.320600 0.520471 0.146886 -0.484618
O3    O     O_2   0.316591 0.530732 0.844939 -0.480515
O4    O     O_2   0.692547 0.585104 0.152107 -0.459443
O5    O     O_3   0.212276 0.505347 0.935631 -0.524878
O6    O     O_3   0.784620 0.683538 0.062672 -0.540119
O7    O     O_3   0.212114 0.519630 0.052739 -0.525452
O8    O     O_3   0.790025 0.641123 0.946681 -0.505586
O9    O     O_3   0.556864 0.385431 0.199049 -0.553405
O10   O     O_3   0.553592 0.708530 0.776726 -0.576077
O11   O     O_3   0.369029 0.961215 0.462068 -0.598924
O12   O     O_R   0.600890 0.643670 0.503490 -0.506294
O13   O     O_3   0.630794 0.039915 0.531000 -0.592463
O14   O     O_3   0.036486 0.611319 0.539988 -0.598274
O15   O     O_3   0.964165 0.387946 0.458988 -0.597573
O16   O     O_R   0.575900 0.366540 0.502610 -0.471240
O17   O     O_R   0.424100 0.633460 0.497390 -0.479847
O18   O     O_R   0.411590 0.494870 0.414830 -0.502150
O19   O     O_R   0.588410 0.505130 0.585170 -0.495059
O20   O     O_R   0.588370 0.505070 0.420930 -0.488920
O21   O     O_R   0.411630 0.494930 0.579070 -0.491321
O22   O     O_2   0.688871 0.581463 0.855242 -0.444622

loop_
_geom_bond_atom_site_label_1
_geom_bond_atom_site_label_2
_ccdc_geom_bond_type
C25   C31   A    
C15   C18   S    
C66   C68   S    
C55   C56   S    
C34   C56   A    
C23   C45   A    
C71   H78   S    
C54   H36   S    
C64   H61   S    
C27   C29   A    
C1    C8    S    
C72   H81   S    
C41   H5    S    
C73   H83   S    
C68   H71   S    
C10   O11   S    
C18   N4    T    
C74   H84   S    
C21   N2    A    
C53   C54   S    
Cu2   O12   S    
C26   C32   A    
C71   H76   S    
C6    N1    S    
C59   H47   S    
C34   C51   S    
C62   C63   S    
Cu1   Cu2   S    
C44   H12   S    
C38   H46   S    
C36   C37   S    
C24   C26   A    
C66   H66   S    
Cu1   O18   S    
C17   O21   A    
C53   H38   S    
C58   C82   S    
C57   H41   S    
C44   H15   S    
C2    C60   S    
C23   C49   S    
C48   H20   S    
C50   H26   S    
C43   H10   S    
C56   C78   A    
C24   N2    A    
C70   H75   S    
C73   C74   S    
C40   H2    S    
C9    C13   S    
C36   O5    S    
C74   H85   S    
C19   N3    T    
C20   N1    A    
C44   H14   S    
C48   H22   S    
C47   C48   S    
C22   C25   A    
C5    C23   A    
C45   C67   A    
C69   H73   S    
C63   H60   S    
C31   C33   A    
C70   C71   S    
C80   H98   S    
C9    C10   D    
C49   H27   S    
Cu2   O16   S    
C4    O10   S    
C41   H6    S    
C45   C53   S    
C63   C64   S    
C47   H18   S    
Cu1   N3    S    
C42   O7    S    
C5    N2    S    
C62   H58   S    
C39   H90   S    
C38   H68   S    
C46   H17   S    
C75   O14   S    
C20   C29   A    
C58   H49   S    
C72   H80   S    
C7    C12   S    
C39   O6    S    
C59   H48   S    
C69   H72   S    
C47   H19   S    
C16   O18   A    
C51   C52   S    
C32   C35   A    
C17   O19   A    
C76   C77   S    
C37   H24   S    
C4    C6    A    
C68   H69   S    
C53   H39   S    
C57   H42   S    
C31   O5    S    
C73   H82   S    
C3    C5    A    
C58   C59   S    
C52   H29   S    
C50   H25   S    
C58   H50   S    
C6    C34   A    
C60   C61   S    
C70   H74   S    
C2    C4    A    
C75   C76   S    
C55   C57   S    
C37   C38   S    
C2    C78   A    
Cu2   O20   S    
C43   H11   S    
C48   H21   S    
C37   H35   S    
C8    C11   T    
C14   O15   S    
C3    C82   A    
C12   O12   A    
C24   O4    S    
C16   C67   S    
Cu1   O21   S    
C80   H97   S    
C3    O9    S    
C65   H64   S    
C36   H13   S    
C9    O13   S    
C35   O8    S    
C49   H28   S    
C42   H9    S    
C32   O6    S    
C40   C41   S    
C41   H7    S    
C54   H37   S    
C55   H43   S    
C49   C50   S    
C77   H92   S    
C79   O15   S    
C54   H34   S    
C43   C44   S    
C75   H87   S    
C50   H23   S    
C38   H57   S    
C79   H95   S    
C79   C80   S    
Cu2   N4    S    
C42   C43   S    
C81   H99   S    
C39   H79   S    
C20   O22   S    
C39   C40   S    
C15   O14   S    
C61   H51   S    
C52   H31   S    
C46   H16   S    
C46   C47   S    
C76   H89   S    
C71   H77   S    
C30   C33   A    
C64   H62   S    
C14   C15   D    
C14   C19   S    
Cu1   O1    S    
C76   H91   S    
C51   H32   S    
C62   O9    S    
C80   C81   S    
C16   O20   A    
C46   O8    S    
C52   H30   S    
C36   H1    S    
C25   C27   A    
C21   C30   A    
C29   C35   A    
C68   H70   S    
C26   C28   A    
C77   H94   S    
C12   O17   A    
C40   H4    S    
C22   N1    A    
C59   H45   S    
C66   H67   S    
C64   H63   S    
C57   H40   S    
C81   H3    S    
Cu2   O19   S    
C61   H53   S    
C21   O2    S    
C72   C73   S    
C28   C30   A    
C17   C78   S    
C51   H33   S    
C42   H8    S    
C65   H65   S    
C69   C70   S    
C77   H93   S    
C74   H86   S    
C10   C11   S    
C60   H55   S    
C65   O10   S    
C7    C13   T    
C55   H44   S    
C33   O7    S    
C67   C82   A    
Cu1   O17   S    
C65   C66   S    
C75   H88   S    
C69   O11   S    
C63   H59   S    
C79   H96   S    
C81   H100  S    
C62   H56   S    
C22   O3    S    
C1    O16   A    
C61   H52   S    
C60   H54   S    
C72   O13   S    
C27   C28   A    
C1    O1    A    
