data_mof_unit_52414.cif
_audit_creation_date              2013-03-05T16:47:43-0500
_audit_creation_method            fapswitch 2.2
_symmetry_space_group_name_H-M    P1
_symmetry_Int_Tables_number       1
_space_group_crystal_system       triclinic
_cell_length_a                    10.90218
_cell_length_b                    13.028491
_cell_length_c                    11.682291
_cell_angle_alpha                 99.407783
_cell_angle_beta                  93.974747
_cell_angle_gamma                 90.125286
_cell_volume                      1632.9306412

loop_
_atom_site_label
_atom_site_type_symbol
_atom_site_description
_atom_site_fract_x
_atom_site_fract_y
_atom_site_fract_z
_atom_type_partial_charge
O1    O     O_R   0.506570 0.354460 0.582000 -0.581425
O2    O     O_R   0.493430 0.645540 0.418000 -0.581437
O3    O     O_R   0.490940 0.341410 0.386200 -0.580172
O4    O     O_R   0.509060 0.658590 0.613800 -0.580166
C1    C     C_R   0.500655 0.299679 0.479227 0.932756
C2    C     C_R   0.499346 0.700321 0.520772 0.932599
O5    O     O_R   0.327460 0.506540 0.597900 -0.560996
O6    O     O_R   0.672540 0.493460 0.402100 -0.561014
O7    O     O_R   0.311830 0.493480 0.402100 -0.594785
O8    O     O_R   0.688170 0.506520 0.597900 -0.594789
C3    C     C_R   0.262084 0.500949 0.499603 0.881243
C4    C     C_R   0.737915 0.499054 0.500398 0.881200
Cu1   Cu    Cu3+1 0.509250 0.507730 0.615930 1.016222
Cu2   Cu    Cu3+1 0.490750 0.492270 0.384070 1.016211
H1    H     H_    0.225977 0.538559 0.983313 0.146407
H2    H     H_    0.774031 0.461452 0.016692 0.146401
C5    C     C_R   0.195187 0.615844 0.153590 -0.161206
C6    C     C_R   0.804820 0.384165 0.846415 -0.161219
H3    H     H_    0.234761 0.688443 0.138937 0.176484
H4    H     H_    0.765249 0.311565 0.861071 0.176474
C7    C     C_R   0.151298 0.608601 0.261435 -0.117527
C8    C     C_R   0.848707 0.391407 0.738569 -0.117513
H5    H     H_    0.156331 0.676053 0.329528 0.166519
H6    H     H_    0.843675 0.323954 0.670477 0.166529
C9    C     C_R   0.101435 0.514359 0.281283 0.017733
C10   C     C_R   0.898566 0.485650 0.718719 0.017735
C11   C     C_R   0.095420 0.427750 0.192140 -0.192543
C12   C     C_R   0.904578 0.572260 0.807859 -0.192558
H7    H     H_    0.057251 0.354836 0.207757 0.185860
H8    H     H_    0.942744 0.645175 0.792240 0.185855
C13   C     C_R   0.137660 0.433829 0.082779 0.516420
C14   C     C_R   0.862341 0.566182 0.917221 0.516424
C15   C     C_R   0.188880 0.529650 0.064630 -0.215987
C16   C     C_R   0.811125 0.470360 0.935373 -0.215987
C17   C     C_R   0.925995 0.503335 0.398287 -0.160524
C18   C     C_R   0.074005 0.496672 0.601714 -0.160503
H9    H     H_    0.869262 0.506995 0.319084 0.158301
H10   H     H_    0.130738 0.493013 0.680917 0.158307
C19   C     C_R   0.871939 0.497673 0.502129 -0.036289
C20   C     C_R   0.128062 0.502333 0.497872 -0.036291
C21   C     C_R   0.947165 0.493620 0.605309 0.015480
C22   C     C_R   0.052835 0.506387 0.394692 0.015483
C23   C     C_R   0.489433 0.812708 0.530843 -0.278206
C24   C     C_R   0.510558 0.187292 0.469157 -0.278197
C25   C     C_R   0.614987 0.028440 0.398867 -0.152644
C26   C     C_R   0.384999 0.971558 0.601135 -0.152701
C27   C     C_R   0.598874 0.134327 0.399904 0.256055
C28   C     C_R   0.401129 0.865673 0.600107 0.256113
C29   C     C_R   0.438044 0.133896 0.536261 0.294503
C30   C     C_R   0.561926 0.866105 0.463725 0.294542
C31   C     C_R   0.455605 0.026669 0.534961 -0.056115
C32   C     C_R   0.544372 0.973332 0.465035 -0.056094
H11   H     H_    0.686888 0.991056 0.348662 0.233802
H12   H     H_    0.313099 0.008935 0.651344 0.233784
N1    N     N_R   0.523180 0.519350 0.790130 -0.197239
N2    N     N_R   0.476820 0.480650 0.209870 -0.197241
C33   C     C_R   0.444608 0.371345 0.021946 -0.282732
C34   C     C_R   0.555392 0.628654 0.978054 -0.282711
C35   C     C_R   0.441088 0.387629 0.143581 0.143888
C36   C     C_R   0.558911 0.612371 0.856419 0.143902
C37   C     C_R   0.514244 0.560420 0.156665 0.004869
C38   C     C_R   0.485758 0.439578 0.843334 0.004871
C39   C     C_R   0.517235 0.548043 0.034051 0.021694
C40   C     C_R   0.482765 0.451955 0.965948 0.021697
H13   H     H_    0.456091 0.366881 0.790698 0.187683
H14   H     H_    0.543912 0.633115 0.209301 0.187718
H15   H     H_    0.589461 0.675572 0.815638 0.153151
H16   H     H_    0.410536 0.324429 0.184362 0.153144
H17   H     H_    0.417015 0.296289 0.972189 0.195723
H18   H     H_    0.582984 0.703710 0.027811 0.195748
O9    O     O_3   0.131829 0.342314 0.001547 -0.579433
C41   C     C_3   0.138563 0.359135 0.885930 -0.218610
H19   H     H_    0.234714 0.374329 0.867819 0.170263
H20   H     H_    0.078699 0.423425 0.866191 0.138809
H21   H     H_    0.106225 0.287574 0.826376 0.231570
O10   O     O_3   0.868168 0.657699 0.998451 -0.579431
C42   C     C_3   0.861439 0.640880 0.114070 -0.218618
H22   H     H_    0.921308 0.576593 0.133810 0.138812
H23   H     H_    0.765289 0.625680 0.132182 0.170256
H24   H     H_    0.893771 0.712443 0.173621 0.231570
N3    N     N_R   0.653918 0.811284 0.395784 0.107996
O11   O     O_R   0.648234 0.807104 0.283478 -0.412689
O12   O     O_R   0.738816 0.759811 0.445151 -0.387770
N4    N     N_R   0.346016 0.188714 0.604166 0.108021
O13   O     O_R   0.351641 0.192882 0.716473 -0.412675
O14   O     O_R   0.261236 0.240303 0.554789 -0.387810
N5    N     N_R   0.322015 0.812242 0.664977 0.134556
O15   O     O_R   0.297106 0.854697 0.769399 -0.327808
O16   O     O_R   0.257961 0.731527 0.613090 -0.393226
N6    N     N_R   0.678019 0.187759 0.335060 0.134546
O17   O     O_R   0.703041 0.145267 0.230676 -0.327796
O18   O     O_R   0.742020 0.268501 0.386962 -0.393248

loop_
_geom_bond_atom_site_label_1
_geom_bond_atom_site_label_2
_geom_bond_distance
_ccdc_geom_bond_type
C24   C29   1.409011 A    
Cu2   N2    2.010912 S    
N5    O15   1.301459 A    
C11   H7    1.083662 S    
N3    O11   1.301334 A    
C19   C21   1.418560 A    
C42   H22   1.106967 S    
O5    C3    1.300360 A    
O1    C1    1.289943 A    
C29   N4    1.440233 S    
C17   H9    1.084516 S    
N4    O14   1.301668 A    
C33   C35   1.405231 A    
C34   C36   1.405228 A    
N1    C38   1.370187 A    
C25   C27   1.389265 A    
O4    Cu1   1.969703 S    
C37   C39   1.417688 A    
C17   C22   1.387054 A    
C38   C40   1.417690 A    
H2    C16   1.081017 S    
C37   H14   1.077240 S    
C36   H15   1.079335 S    
C29   C31   1.408244 A    
C30   C32   1.408220 A    
C13   C15   1.419576 A    
C23   C28   1.409290 A    
C24   C27   1.409305 A    
C20   C22   1.418561 A    
C25   H11   1.080596 S    
Cu1   Cu2   2.676525 S    
C18   C21   1.387052 A    
O2    C2    1.289945 A    
C5    C15   1.397879 A    
C41   H21   1.109084 S    
N3    O12   1.301612 A    
C42   H23   1.107401 S    
C26   C28   1.389276 A    
C11   C13   1.401801 A    
C31   C32   1.419053 A    
C18   C20   1.397340 A    
O10   C42   1.410030 S    
C41   H20   1.106966 S    
C34   H18   1.083162 S    
C25   C32   1.402569 A    
C26   C31   1.402581 A    
C5    C7    1.395480 A    
C14   C16   1.419576 A    
C17   C19   1.397341 A    
O7    Cu2   1.976241 S    
C35   H16   1.079335 S    
O7    C3    1.284787 A    
N6    O18   1.300266 A    
C12   C14   1.401800 A    
O6    C4    1.300360 A    
C26   H12   1.080589 S    
C28   N5    1.436415 S    
N4    O13   1.301387 A    
C6    C16   1.397880 A    
O3    Cu2   1.969702 S    
O8    C4    1.284786 A    
O4    C2    1.290489 A    
C1    C24   1.454517 S    
C2    C23   1.454524 S    
C7    H5    1.083186 S    
C27   N6    1.436439 S    
C8    H6    1.083187 S    
O1    Cu1   1.971004 S    
C33   C40   1.401585 A    
C42   H24   1.109085 S    
C34   C39   1.401583 A    
C7    C9    1.401602 A    
O6    Cu2   1.978254 S    
C38   H13   1.077258 S    
C6    C8    1.395480 A    
C41   H19   1.107400 S    
O3    C1    1.290486 A    
O8    Cu1   1.976241 S    
C9    C22   1.479488 S    
C14   O10   1.395563 S    
C23   C30   1.408980 A    
C9    C11   1.402882 A    
C10   C12   1.402883 A    
N2    C35   1.367302 A    
C4    C19   1.460073 S    
C18   H10   1.084516 S    
O9    C41   1.410032 S    
N6    O17   1.301540 A    
C12   H8    1.083664 S    
C5    H3    1.082354 S    
C6    H4    1.082354 S    
C3    C20   1.460071 S    
O2    Cu2   1.971005 S    
C39   C40   1.404386 A    
O5    Cu1   1.978254 S    
C10   C21   1.479488 S    
C8    C10   1.401603 A    
N5    O16   1.300247 A    
N2    C37   1.370179 A    
C33   H17   1.083161 S    
N1    C36   1.367302 A    
H1    C15   1.081017 S    
C30   N3    1.440169 S    
C13   O9    1.395563 S    
Cu1   N1    2.010913 S    
