data_mof_unit_33944.cif
_audit_creation_date              2012-12-10T18:12:30-0500
_audit_creation_method            fapswitch 2.2
_symmetry_space_group_name_H-M    P1
_symmetry_Int_Tables_number       1
_space_group_crystal_system       triclinic
_cell_length_a                    9.397182
_cell_length_b                    10.748219
_cell_length_c                    17.304302
_cell_angle_alpha                 90.431063
_cell_angle_beta                  87.336404
_cell_angle_gamma                 90.142617
_cell_volume                      1745.84418019

loop_
_atom_site_label
_atom_site_type_symbol
_atom_type_description
_atom_site_fract_x
_atom_site_fract_y
_atom_site_fract_z
_atom_type_partial_charge
C1    C     C_R   0.500251 0.740092 0.500042 0.809432
C2    C     C_R   0.348876 0.462321 0.774703 -0.365407
C3    C     C_R   0.412034 0.509890 0.141245 -0.275088
C4    C     C_R   0.400594 0.516901 0.221622 0.161568
C5    C     C_R   0.657671 0.492566 0.225293 -0.342729
C6    C     C_R   0.668445 0.484978 0.144848 0.489511
C7    C     C_R   0.544558 0.493222 0.102886 0.011052
C8    C     C_2   0.466583 0.421004 0.977476 -0.152563
C9    C     C_2   0.554267 0.491159 0.018643 -0.157959
C10   C     C_R   0.524198 0.505088 0.264656 -0.118791
C11   C     C_3   0.437800 0.926798 0.423661 -0.032288
C12   C     C_R   0.483302 0.499865 0.650226 0.849675
C13   C     C_3   0.438927 0.071916 0.423080 0.283835
C14   C     C_3   0.410661 0.926829 0.571364 -0.442815
C15   C     C_3   0.654285 0.928933 0.504700 -0.457935
C16   C     C_3   0.499827 0.877807 0.499899 0.088866
C17   C     C_3   0.499225 0.121557 0.500336 0.076958
C18   C     C_3   0.410924 0.070934 0.572587 -0.062466
C19   C     C_3   0.654026 0.071467 0.505959 -0.418668
C20   C     C_3   0.911986 0.382777 0.531490 -0.189462
C21   C     C_3   0.079533 0.381125 0.531990 -0.184959
C22   C     C_3   0.924183 0.510624 0.419116 -0.191439
C23   C     C_R   0.499796 0.259729 0.500806 0.819211
C24   C     C_3   0.913601 0.603567 0.545015 -0.206938
C25   C     C_3   0.091565 0.508947 0.419634 -0.181936
C26   C     C_3   0.080987 0.602226 0.545169 -0.193992
C27   C     C_R   0.516934 0.503155 0.349787 0.836305
C28   C     C_R   0.479007 0.486254 0.734747 -0.230616
C29   C     C_R   0.606297 0.485793 0.775100 0.420330
C30   C     C_R   0.603629 0.442498 0.851286 0.018891
C31   C     C_R   0.472054 0.428362 0.892566 0.002539
C32   C     C_R   0.344360 0.433259 0.853240 0.453654
Cu1   Cu    Cu3+1 0.357600 0.500140 0.499960 0.914841
Cu2   Cu    Cu3+1 0.642400 0.499860 0.500040 0.906190
H1    H     H_    0.509088 0.892053 0.374872 0.166200
H2    H     H_    0.327517 0.106283 0.419345 0.063797
H3    H     H_    0.300220 0.889420 0.571653 0.178006
H4    H     H_    0.703385 0.894593 0.557765 0.184826
H5    H     H_    0.721830 0.895673 0.454162 0.181304
H6    H     H_    0.724459 0.106092 0.457234 0.214064
H7    H     H_    0.700487 0.105107 0.560392 0.156869
H8    H     H_    0.456974 0.892208 0.625180 0.149910
H9    H     H_    0.465457 0.102247 0.625241 0.150732
H10   H     H_    0.877607 0.301288 0.497117 0.137711
H11   H     H_    0.865988 0.370007 0.591322 0.166458
H12   H     H_    0.113700 0.368212 0.592104 0.161195
H13   H     H_    0.118597 0.299152 0.497822 0.151856
H14   H     H_    0.888755 0.432326 0.382184 0.141564
H15   H     H_    0.132181 0.430038 0.383060 0.150386
H16   H     H_    0.878551 0.694384 0.522370 0.137741
H17   H     H_    0.754312 0.486672 0.256782 0.166436
H18   H     H_    0.869905 0.597164 0.605382 0.180763
H19   H     H_    0.114858 0.597535 0.605792 0.143372
H20   H     H_    0.121359 0.692208 0.521731 0.155401
H21   H     H_    0.888894 0.598072 0.391872 0.145219
H22   H     H_    0.134163 0.596215 0.393222 0.182074
H23   H     H_    0.635005 0.549741 0.990461 0.189100
H24   H     H_    0.317036 0.520036 0.108636 0.171750
H25   H     H_    0.249963 0.465799 0.745044 0.186795
H26   H     H_    0.383422 0.366184 0.006795 0.156499
N1    N     N_3   0.856560 0.499750 0.498270 -0.114422
N2    N     N_3   0.143860 0.496700 0.498910 -0.124162
O1    O     O_R   0.379740 0.682430 0.499960 -0.567586
O2    O     O_R   0.620260 0.682190 0.500020 -0.618024
O3    O     O_R   0.365800 0.500150 0.613560 -0.603573
O4    O     O_R   0.606310 0.499910 0.613620 -0.548127
O5    O     O_R   0.379740 0.317810 0.499980 -0.583454
O6    O     O_R   0.620260 0.317570 0.500040 -0.603153
O7    O     O_R   0.393690 0.500090 0.386380 -0.561844
O8    O     O_R   0.634200 0.499850 0.386440 -0.603815
O9    O     O_3   0.734280 0.522342 0.739158 -0.615702
C33   C     C_3   0.768168 0.645392 0.762746 0.041028
H27   H     H_    0.883494 0.660039 0.748592 0.160212
H28   H     H_    0.752594 0.660046 0.826367 0.132579
C34   C     C_3   0.683120 0.743878 0.720385 -0.374466
H29   H     H_    0.689826 0.725740 0.657190 0.227142
H30   H     H_    0.569230 0.739794 0.740522 0.201968
C35   C     C_3   0.739437 0.874732 0.735568 -0.953157
H31   H     H_    0.734538 0.895565 0.798643 0.267790
H32   H     H_    0.673539 0.944029 0.706228 0.250328
H33   H     H_    0.851397 0.883465 0.712562 0.250614
O10   O     O_3   0.801479 0.475118 0.107608 -0.619360
C36   C     C_3   0.829843 0.349134 0.088111 0.077094
H34   H     H_    0.895914 0.348174 0.033217 0.180741
H35   H     H_    0.732279 0.293496 0.076836 0.133751
C37   C     C_3   0.914030 0.287403 0.151089 -0.380626
H36   H     H_    0.010688 0.343577 0.161736 0.220920
H37   H     H_    0.847389 0.283029 0.205723 0.210971
C38   C     C_3   0.958827 0.155625 0.127622 -0.919505
H38   H     H_    0.863649 0.097700 0.116785 0.261468
H39   H     H_    0.017189 0.112793 0.174976 0.261242
H40   H     H_    0.029966 0.157434 0.074551 0.247756
N3    N     N_3   0.295057 0.876116 0.411447 -0.612529
H41   H     H_    0.218614 0.919681 0.447949 0.198691
H42   H     H_    0.268659 0.893629 0.354592 0.203257
O11   O     O_3   0.530138 0.111606 0.359911 -0.637834
C39   C     C_3   0.460346 0.186911 0.306799 0.051363
H43   H     H_    0.544081 0.243579 0.276376 0.174200
H44   H     H_    0.384070 0.253725 0.335488 0.132195
C40   C     C_3   0.387006 0.106871 0.246710 -0.365901
H45   H     H_    0.460101 0.031401 0.225827 0.235624
H46   H     H_    0.289426 0.064208 0.273652 0.193249
C41   C     C_3   0.345266 0.184033 0.177684 -0.917648
H47   H     H_    0.268699 0.257704 0.196790 0.258784
H48   H     H_    0.294033 0.123073 0.134967 0.255264
H49   H     H_    0.441012 0.227426 0.148982 0.257477
N4    N     N_3   0.265394 0.120537 0.578940 -0.611605
H50   H     H_    0.203415 0.081073 0.536618 0.202111
H51   H     H_    0.218950 0.095056 0.632640 0.218409
N5    N     N_3   0.263523 0.538977 0.258487 -0.597556
H52   H     H_    0.225143 0.623467 0.238435 0.218225
H53   H     H_    0.194392 0.468605 0.241500 0.194542
O12   O     O_3   0.213504 0.419107 0.892221 -0.610898
C42   C     C_3   0.175711 0.291473 0.894231 0.049101
H54   H     H_    0.098600 0.278941 0.944158 0.165455
H55   H     H_    0.267804 0.229486 0.904860 0.117944
C43   C     C_3   0.104112 0.251501 0.819954 -0.364989
H56   H     H_    0.024613 0.322450 0.804679 0.233021
H57   H     H_    0.185512 0.244182 0.771503 0.207079
C44   C     C_3   0.030096 0.125630 0.829409 -0.936235
H58   H     H_    0.108278 0.053069 0.843900 0.258877
H59   H     H_    0.981265 0.098980 0.774431 0.254988
H60   H     H_    0.944709 0.130632 0.875926 0.258518
N6    N     N_3   0.733219 0.405531 0.885498 -0.593942
H61   H     H_    0.779274 0.334624 0.851201 0.237079
H62   H     H_    0.804452 0.480151 0.885775 0.232218

loop_
_geom_bond_atom_site_label_1
_geom_bond_atom_site_label_2
_ccdc_geom_bond_type
C10   C27   S    
C24   H18   S    
C22   H14   S    
C1    O2    A    
C24   N1    S    
C6    O10   S    
C14   C18   S    
C25   H22   S    
Cu2   O4    S    
C42   H54   S    
Cu1   O3    S    
C15   C19   S    
N3    H41   S    
C12   C28   S    
C28   C29   A    
C24   C26   S    
O12   C42   S    
C3    C7    A    
C43   H57   S    
C5    C6    A    
C35   H32   S    
C15   C16   S    
C26   H20   S    
C2    C32   A    
C23   O5    A    
C20   N1    S    
C18   N4    S    
C39   H44   S    
N5    H52   S    
C36   H34   S    
Cu1   N2    S    
C22   C25   S    
N4    H50   S    
C32   O12   S    
C38   H39   S    
Cu2   O8    S    
C9    H23   S    
C20   H11   S    
C27   O7    A    
C44   H60   S    
Cu1   O7    S    
C14   H8    S    
C11   N3    S    
N3    H42   S    
N4    H51   S    
C33   C34   S    
C1    O1    A    
Cu2   O2    S    
C20   H10   S    
C44   H59   S    
C39   H43   S    
N5    H53   S    
C24   H16   S    
C13   O11   S    
C13   H2    S    
C33   H28   S    
C43   C44   S    
Cu2   O6    S    
C37   H36   S    
C8    C9    D    
C12   O4    A    
Cu2   N1    S    
C23   O6    A    
C34   H29   S    
C15   H4    S    
C29   C30   A    
C11   C16   S    
C31   C32   A    
Cu1   O1    S    
O11   C39   S    
C40   H46   S    
C17   C18   S    
C41   H48   S    
C1    C16   S    
C17   C23   S    
C38   H40   S    
C34   H30   S    
C15   H5    S    
C21   N2    S    
C6    C7    A    
C27   O8    A    
C36   H35   S    
C30   N6    S    
C14   C16   S    
C4    C10   A    
C3    C4    A    
C26   H19   S    
C39   C40   S    
C44   H58   S    
Cu1   O5    S    
N6    H62   S    
C21   H12   S    
C7    C9    S    
C4    N5    S    
C35   H31   S    
C8    C31   S    
C29   O9    S    
C33   H27   S    
C37   C38   S    
C42   H55   S    
C22   H21   S    
C12   O3    A    
C13   C17   S    
C11   H1    S    
C26   N2    S    
C5    C10   A    
C43   H56   S    
C8    H26   S    
C22   N1    S    
C11   C13   S    
C35   H33   S    
C30   C31   A    
C2    H25   S    
C40   H45   S    
C17   C19   S    
Cu1   Cu2   S    
C41   H49   S    
C37   H37   S    
C25   N2    S    
C40   C41   S    
C34   C35   S    
C25   H15   S    
C42   C43   S    
C19   H6    S    
C3    H24   S    
O9    C33   S    
C36   C37   S    
C20   C21   S    
O10   C36   S    
C41   H47   S    
C5    H17   S    
C2    C28   A    
C21   H13   S    
C38   H38   S    
C18   H9    S    
C19   H7    S    
N6    H61   S    
C14   H3    S    
