data_mof_unit_22799.cif
_audit_creation_date              2012-12-11T17:36:15-0500
_audit_creation_method            fapswitch 2.2
_symmetry_space_group_name_H-M    P1
_symmetry_Int_Tables_number       1
_space_group_crystal_system       triclinic
_cell_length_a                    25.799344
_cell_length_b                    6.885002
_cell_length_c                    21.720915
_cell_angle_alpha                 90.463055
_cell_angle_beta                  96.275902
_cell_angle_gamma                 90.443778
_cell_volume                      3834.86211744

loop_
_atom_site_label
_atom_site_type_symbol
_atom_type_description
_atom_site_fract_x
_atom_site_fract_y
_atom_site_fract_z
_atom_type_partial_charge
O1    O     O_R   0.208650 0.594520 0.175450 -0.541409
O2    O     O_R   0.791350 0.405480 0.824550 -0.539168
O3    O     O_R   0.291350 0.094520 0.324550 -0.538741
O4    O     O_R   0.708650 0.905480 0.675450 -0.538514
O5    O     O_R   0.192980 0.260780 0.300160 -0.545713
O6    O     O_R   0.807020 0.739220 0.699840 -0.545861
O7    O     O_R   0.307020 0.760780 0.199840 -0.546237
O8    O     O_R   0.692980 0.239220 0.800160 -0.544003
C1    C     C_R   0.179678 0.433074 0.319682 0.713562
C2    C     C_R   0.820898 0.566623 0.681005 0.699310
C3    C     C_R   0.320417 0.933020 0.180464 0.708943
C4    C     C_R   0.679621 0.066978 0.819599 0.715880
O9    O     O_R   0.202550 0.264660 0.174420 -0.536572
O10   O     O_R   0.797450 0.735340 0.825580 -0.535349
O11   O     O_R   0.297450 0.764660 0.325580 -0.536293
O12   O     O_R   0.702550 0.235340 0.674420 -0.535929
O13   O     O_R   0.300990 0.096480 0.197920 -0.505599
O14   O     O_R   0.699010 0.903520 0.802080 -0.503074
O15   O     O_R   0.199010 0.596480 0.302080 -0.505619
O16   O     O_R   0.800990 0.403520 0.697920 -0.530419
C5    C     C_R   0.191041 0.431927 0.150896 0.735740
C6    C     C_R   0.808880 0.567989 0.849112 0.740705
C7    C     C_R   0.308851 0.934835 0.348911 0.738441
C8    C     C_R   0.691232 0.064925 0.651018 0.738097
O17   O     O_3   0.282290 0.427760 0.257860 -0.362914
O18   O     O_3   0.717710 0.572240 0.742140 -0.356890
O19   O     O_3   0.217710 0.927760 0.242140 -0.364367
O20   O     O_3   0.782290 0.072240 0.757860 -0.376068
V1    V     V_3+5 0.244010 0.152080 0.248540 1.472229
V2    V     V_3+5 0.755990 0.847920 0.751460 1.450198
V3    V     V_3+5 0.255990 0.652080 0.251460 1.469142
V4    V     V_3+5 0.744010 0.347920 0.748540 1.445358
C9    C     C_R   0.658548 0.047470 0.591313 -0.108234
C10   C     C_R   0.342198 0.948099 0.408232 -0.113523
C11   C     C_R   0.842129 0.567847 0.908905 -0.109160
C12   C     C_R   0.157352 0.430130 0.091347 -0.120356
C13   C     C_R   0.652422 0.949230 0.483443 0.461106
C14   C     C_R   0.349383 0.970935 0.519995 0.441310
C15   C     C_R   0.856019 0.682035 0.016034 0.453710
C16   C     C_R   0.142095 0.298056 0.986908 0.437819
C17   C     C_R   0.682134 0.998081 0.539028 -0.272268
C18   C     C_R   0.319065 0.960814 0.462846 -0.250365
C19   C     C_R   0.824589 0.663710 0.959133 -0.281233
C20   C     C_R   0.175122 0.334738 0.041198 -0.268642
C21   C     C_R   0.604151 0.052262 0.588158 -0.204761
C22   C     C_R   0.396594 0.950825 0.410149 -0.201229
C23   C     C_R   0.893174 0.498064 0.913523 -0.196117
C24   C     C_R   0.105498 0.492426 0.087226 -0.207570
C25   C     C_R   0.572009 0.005287 0.532346 -0.000691
C26   C     C_R   0.429338 0.971498 0.467156 0.011678
C27   C     C_R   0.927764 0.521697 0.968984 -0.000687
C28   C     C_R   0.069956 0.455767 0.033104 0.003759
C29   C     C_R   0.596903 0.960225 0.478458 -0.060046
C30   C     C_R   0.404737 0.986126 0.522790 -0.067694
C31   C     C_R   0.907734 0.608540 0.021244 -0.047430
C32   C     C_R   0.089565 0.362177 0.981581 -0.053128
C33   C     C_R   0.516101 0.000087 0.528906 0.026525
C34   C     C_R   0.485463 0.974958 0.470647 0.031235
C35   C     C_R   0.981820 0.466656 0.973615 0.026254
C36   C     C_R   0.015437 0.503825 0.029322 0.024956
C37   C     C_R   0.511837 0.949372 0.417729 -0.300651
C38   C     C_R   0.490011 0.015864 0.582357 -0.273276
C39   C     C_R   0.992915 0.578922 0.080622 -0.278947
C40   C     C_R   0.003321 0.376949 0.923937 -0.269605
C41   C     C_R   0.566225 0.926751 0.421215 0.429033
C42   C     C_R   0.435756 0.015305 0.579778 0.379263
C43   C     C_R   0.939716 0.618904 0.078191 0.447431
C44   C     C_R   0.056110 0.330291 0.926469 0.408314
H1    H     H_    0.411526 0.939388 0.365938 0.100393
H2    H     H_    0.588411 0.093362 0.630250 0.103068
H3    H     H_    0.094085 0.563469 0.127881 0.109189
H4    H     H_    0.904993 0.434877 0.871854 0.102315
H5    H     H_    0.276915 0.958815 0.461259 0.139641
H6    H     H_    0.724286 0.994030 0.541775 0.145212
H7    H     H_    0.214941 0.283661 0.044772 0.148395
H8    H     H_    0.786321 0.728216 0.952957 0.141259
H9    H     H_    0.490744 0.944646 0.372639 0.123041
H10   H     H_    0.510631 0.022847 0.628140 0.134564
H11   H     H_    0.015174 0.603421 0.124814 0.128525
H12   H     H_    0.979945 0.336692 0.881777 0.130822
C45   C     C_R   0.435689 0.805632 0.091580 -0.147574
C46   C     C_R   0.565050 0.195469 0.909575 -0.146945
C47   C     C_R   0.065219 0.304990 0.410094 -0.146762
C48   C     C_R   0.937098 0.696679 0.593543 -0.130176
H13   H     H_    0.461864 0.684626 0.088259 0.121898
H14   H     H_    0.539196 0.317180 0.913402 0.122959
H15   H     H_    0.039029 0.182921 0.413818 0.123015
H16   H     H_    0.963246 0.819235 0.590446 0.120517
C49   C     C_R   0.396013 0.791862 0.130809 -0.259186
C50   C     C_R   0.604546 0.208989 0.870091 -0.258284
C51   C     C_R   0.104501 0.290856 0.370344 -0.257671
C52   C     C_R   0.897327 0.709232 0.632754 -0.217216
H17   H     H_    0.392774 0.660237 0.157135 0.154230
H18   H     H_    0.607974 0.341171 0.844100 0.156505
H19   H     H_    0.107471 0.157842 0.344055 0.155519
H20   H     H_    0.893950 0.841590 0.659188 0.132663
C53   C     C_R   0.361558 0.947067 0.136865 -0.080763
C54   C     C_R   0.638599 0.052936 0.863385 -0.084931
C55   C     C_R   0.138917 0.447446 0.363749 -0.084619
C56   C     C_R   0.862960 0.551833 0.638597 -0.121614
C57   C     C_R   0.367038 0.116575 0.101064 0.346827
C58   C     C_R   0.632887 0.882760 0.898810 0.354011
C59   C     C_R   0.133868 0.618738 0.399599 0.351133
C60   C     C_R   0.869520 0.380559 0.603107 0.321549
C61   C     C_R   0.407301 0.128273 0.062015 -0.228354
C62   C     C_R   0.592738 0.871198 0.938023 -0.233015
C63   C     C_R   0.094006 0.630736 0.439163 -0.228490
C64   C     C_R   0.908837 0.371241 0.563469 -0.176221
H21   H     H_    0.411737 0.257996 0.035050 0.107320
H22   H     H_    0.588110 0.740939 0.964667 0.105749
H23   H     H_    0.089878 0.761796 0.466137 0.107279
H24   H     H_    0.912905 0.239869 0.536625 0.132998
C65   C     C_R   0.441744 0.974457 0.057348 0.096214
C66   C     C_R   0.558737 0.025961 0.943376 0.096768
C67   C     C_R   0.059560 0.475555 0.444315 0.094019
C68   C     C_R   0.943093 0.527228 0.558843 0.062262
C69   C     C_1   0.483108 0.991850 0.017254 -0.043295
C70   C     C_1   0.517468 0.008653 0.983601 -0.042212
C71   C     C_1   0.018517 0.493529 0.484781 -0.040149
C72   C     C_1   0.984322 0.510577 0.518613 -0.042694
O21   O     O_3   0.591163 0.890905 0.368383 -0.549278
C73   C     C_3   0.565593 0.751972 0.326531 0.088294
H25   H     H_    0.591407 0.728610 0.289474 0.148471
H26   H     H_    0.528947 0.809342 0.302123 0.104231
C74   C     C_3   0.557008 0.553004 0.356105 -0.353145
H27   H     H_    0.594757 0.496095 0.377601 0.193796
H28   H     H_    0.530296 0.566216 0.392638 0.194023
C75   C     C_3   0.533327 0.406562 0.307685 -0.792606
H29   H     H_    0.494915 0.458131 0.286114 0.221140
H30   H     H_    0.527556 0.264931 0.330067 0.244368
H31   H     H_    0.559735 0.384900 0.271155 0.231011
O22   O     O_3   0.413326 0.030614 0.634628 -0.562722
C76   C     C_3   0.416688 0.225576 0.655535 0.119334
H32   H     H_    0.399968 0.325951 0.618595 0.110541
H33   H     H_    0.458033 0.267291 0.670087 0.108464
C77   C     C_3   0.385754 0.246332 0.711278 -0.284974
H34   H     H_    0.343959 0.212883 0.696739 0.209483
H35   H     H_    0.400423 0.140920 0.747460 0.199592
C78   C     C_3   0.390693 0.451188 0.738722 -0.848378
H36   H     H_    0.431992 0.484454 0.755828 0.236617
H37   H     H_    0.366859 0.462610 0.778154 0.233955
H38   H     H_    0.376593 0.559334 0.703336 0.231019
O23   O     O_3   0.919024 0.673339 0.132050 -0.545651
C79   C     C_3   0.918312 0.512945 0.172624 0.085601
H39   H     H_    0.910215 0.570435 0.218508 0.143971
H40   H     H_    0.956794 0.439916 0.180458 0.102985
C80   C     C_3   0.875254 0.364760 0.150251 -0.336261
H41   H     H_    0.836789 0.437346 0.145776 0.188531
H42   H     H_    0.882013 0.304650 0.104213 0.199477
C81   C     C_3   0.874044 0.196477 0.195389 -0.766184
H43   H     H_    0.911818 0.118694 0.199540 0.246712
H44   H     H_    0.842601 0.092322 0.178165 0.245269
H45   H     H_    0.866320 0.250870 0.241769 0.215207
O24   O     O_3   0.073957 0.237597 0.875955 -0.552274
C82   C     C_3   0.070289 0.360360 0.823509 0.113170
H46   H     H_    0.110371 0.385998 0.810934 0.148620
H47   H     H_    0.053506 0.506640 0.831203 0.093832
C83   C     C_3   0.038054 0.258310 0.769091 -0.322297
H48   H     H_    0.057488 0.120896 0.757903 0.202996
H49   H     H_    0.998729 0.221439 0.782123 0.185319
C84   C     C_3   0.031893 0.386053 0.711657 -0.833726
H50   H     H_    0.011078 0.521801 0.721254 0.233216
H51   H     H_    0.008799 0.306769 0.673079 0.235919
H52   H     H_    0.070682 0.423385 0.697112 0.233294
O25   O     O_3   0.678772 0.894079 0.434010 -0.544827
C85   C     C_3   0.687788 0.691051 0.435937 0.133241
H53   H     H_    0.682819 0.636396 0.387374 0.154084
H54   H     H_    0.659416 0.608026 0.461194 0.085532
C86   C     C_3   0.743677 0.647683 0.463722 -0.359399
H55   H     H_    0.771661 0.733852 0.439352 0.213699
H56   H     H_    0.748904 0.688284 0.513554 0.192150
C87   C     C_3   0.755969 0.432174 0.458071 -0.762854
H57   H     H_    0.728993 0.343844 0.483169 0.243430
H58   H     H_    0.796561 0.405294 0.478655 0.247983
H59   H     H_    0.752193 0.386266 0.408631 0.229776
O26   O     O_3   0.323621 0.972779 0.572637 -0.562971
C88   C     C_3   0.321462 0.781945 0.596336 0.138164
H60   H     H_    0.319557 0.795822 0.647017 0.151568
H61   H     H_    0.357055 0.695375 0.590413 0.106063
C89   C     C_3   0.272444 0.672829 0.567858 -0.373284
H62   H     H_    0.237341 0.759938 0.574421 0.209422
H63   H     H_    0.274099 0.650290 0.517453 0.201682
C90   C     C_3   0.267652 0.474415 0.597664 -0.798277
H64   H     H_    0.301712 0.383251 0.589946 0.253100
H65   H     H_    0.231677 0.399612 0.576530 0.240403
H66   H     H_    0.265445 0.490919 0.648225 0.227776
O27   O     O_3   0.840615 0.798349 0.063557 -0.544014
C91   C     C_3   0.788346 0.764650 0.075360 0.093444
H67   H     H_    0.788494 0.743231 0.126012 0.137175
H68   H     H_    0.770312 0.630295 0.052985 0.089731
C92   C     C_3   0.755277 0.943735 0.057468 -0.306870
H69   H     H_    0.770985 0.070547 0.085758 0.194354
H70   H     H_    0.757186 0.979549 0.008040 0.196088
C93   C     C_3   0.698387 0.910635 0.068015 -0.827098
H71   H     H_    0.681821 0.784881 0.039919 0.232666
H72   H     H_    0.675370 0.041696 0.053938 0.236603
H73   H     H_    0.695190 0.882632 0.117754 0.228562
O28   O     O_3   0.161795 0.198458 0.939036 -0.553717
C94   C     C_3   0.168608 0.999504 0.954316 0.124198
H74   H     H_    0.143584 0.911713 0.919453 0.152612
H75   H     H_    0.156899 0.959088 0.000672 0.099303
C95   C     C_3   0.225565 0.943762 0.951144 -0.330592
H76   H     H_    0.235683 0.965160 0.903203 0.204416
H77   H     H_    0.251466 0.038864 0.982824 0.201825
C96   C     C_3   0.235237 0.732575 0.969554 -0.816981
H78   H     H_    0.227392 0.710487 0.018297 0.235153
H79   H     H_    0.276569 0.695706 0.965584 0.233030
H80   H     H_    0.209752 0.633852 0.938646 0.244616
O29   O     O_3   0.332400 0.267752 0.103901 -0.650253
H81   H     H_    0.341513 0.373265 0.076081 0.275569
O30   O     O_3   0.667204 0.730792 0.895478 -0.648780
H82   H     H_    0.658034 0.625104 0.923198 0.272150
O31   O     O_3   0.168555 0.771406 0.396323 -0.649172
H83   H     H_    0.159775 0.877984 0.424268 0.273694
O32   O     O_3   0.837012 0.222240 0.604567 -0.647877
H84   H     H_    0.847064 0.159627 0.645007 0.287414

loop_
_geom_bond_atom_site_label_1
_geom_bond_atom_site_label_2
_ccdc_geom_bond_type
O17   V3    S    
C55   C59   A    
O1    C5    A    
O25   C85   S    
O19   V1    S    
C9    C21   A    
C86   H55   S    
O12   C8    A    
O3    C7    A    
C80   H41   S    
C10   C18   A    
C56   C60   A    
O32   H84   S    
C11   C23   A    
C75   H29   S    
C84   H50   S    
C25   C33   A    
C33   C38   A    
C5    C12   S    
C39   H11   S    
O31   H83   S    
C89   H62   S    
O7    C3    A    
C6    C11   S    
C35   C40   A    
C26   C30   A    
C95   H77   S    
C62   C66   A    
C36   C39   A    
C40   C44   A    
C61   C65   A    
C80   H42   S    
C14   C18   A    
C24   C28   A    
C44   O24   S    
C90   H65   S    
C62   H22   S    
O4    C8    A    
C78   H38   S    
C58   O30   S    
C93   H73   S    
C82   H47   S    
O23   C79   S    
O1    V3    S    
O13   V1    S    
O2    V4    S    
O3    V1    S    
C22   H1    S    
C61   H21   S    
C28   C36   A    
C83   C84   S    
C17   H6    S    
C1    O15   A    
C15   C31   A    
C91   H68   S    
C37   H9    S    
O22   C76   S    
C16   C32   A    
C95   C96   S    
O2    C6    A    
C94   C95   S    
C58   C62   A    
O28   C94   S    
C10   C22   A    
C41   O21   S    
C11   C19   A    
C59   O31   S    
C16   C20   A    
C4    C54   S    
C87   H59   S    
C13   C29   A    
C7    C10   S    
C34   C37   A    
O11   C7    A    
C93   H71   S    
O15   V3    S    
C35   C36   A    
C48   C68   A    
C82   C83   S    
C85   H54   S    
C40   H12   S    
C43   O23   S    
O10   V2    S    
C79   C80   S    
C84   H51   S    
C89   H63   S    
C50   H18   S    
O5    V1    S    
C96   H79   S    
C52   H20   S    
O17   V1    S    
C78   H36   S    
C39   C43   A    
C57   C61   A    
O7    V3    S    
C95   H76   S    
C38   C42   A    
O19   V3    S    
C92   H69   S    
C26   C34   A    
C47   C67   A    
O20   V4    S    
C80   C81   S    
C46   C66   A    
C77   H35   S    
C90   H66   S    
C2    O16   A    
O18   V4    S    
C77   H34   S    
C15   C19   A    
C57   O29   S    
C32   C44   A    
C81   H45   S    
C49   H17   S    
O4    V2    S    
C64   H24   S    
C49   C53   A    
C91   H67   S    
C77   C78   S    
C83   H48   S    
C20   H7    S    
C90   H64   S    
C92   H70   S    
O5    C1    A    
C23   C27   A    
C76   C77   S    
C14   O26   S    
O30   H82   S    
C14   C30   A    
C21   C25   A    
O8    C4    A    
C88   C89   S    
C4    O14   A    
O29   H81   S    
O24   C82   S    
O9    C5    A    
C13   O25   S    
C78   H37   S    
C2    C56   S    
C63   C67   A    
O21   C73   S    
C66   C70   S    
C37   C41   A    
C65   C69   S    
C79   H40   S    
O26   C88   S    
O6    V2    S    
O18   V2    S    
C67   C71   S    
C91   C92   S    
C74   H27   S    
C86   C87   S    
C81   H44   S    
C12   C20   A    
C27   C35   A    
C24   H3    S    
C73   H26   S    
C75   H31   S    
C93   H72   S    
C94   H75   S    
C60   C64   A    
C84   H52   S    
C29   C41   A    
C87   H57   S    
C52   C56   A    
C76   H33   S    
O16   V4    S    
C96   H80   S    
O9    V1    S    
C19   H8    S    
C96   H78   S    
C3    O13   A    
C18   H5    S    
C21   H2    S    
C63   H23   S    
C38   H10   S    
C48   H16   S    
C60   O32   S    
C50   C54   A    
C79   H39   S    
C75   H30   S    
C47   H15   S    
O6    C2    A    
C31   C43   A    
C71   C72   T    
C89   C90   S    
O11   V3    S    
C30   C42   A    
O12   V4    S    
C47   C51   A    
C22   C26   A    
C8    C9    S    
C46   C50   A    
C42   O22   S    
C3    C53   S    
C9    C17   A    
C64   C68   A    
C73   C74   S    
O20   V2    S    
C92   C93   S    
C15   O27   S    
O27   C91   S    
C54   C58   A    
C69   C70   T    
C46   H14   S    
C83   H49   S    
O10   C6    A    
C33   C34   A    
C76   H32   S    
O8    V4    S    
C16   O28   S    
C74   C75   S    
C25   C29   A    
C87   H58   S    
C88   H61   S    
C12   C24   A    
C27   C31   A    
C45   C49   A    
C13   C17   A    
C45   H13   S    
C23   H4    S    
O14   V2    S    
C51   H19   S    
C68   C72   S    
C94   H74   S    
C85   C86   S    
C1    C55   S    
C88   H60   S    
C45   C65   A    
C82   H46   S    
C74   H28   S    
C81   H43   S    
C59   C63   A    
C48   C52   A    
C51   C55   A    
C73   H25   S    
C85   H53   S    
C53   C57   A    
C28   C32   A    
C86   H56   S    
