data_mof_unit_12276.cif
_audit_creation_date              2012-12-11T14:39:40-0500
_audit_creation_method            fapswitch 2.2
_symmetry_space_group_name_H-M    P1
_symmetry_Int_Tables_number       1
_space_group_crystal_system       triclinic
_cell_length_a                    7.359535
_cell_length_b                    13.843331
_cell_length_c                    16.906464
_cell_angle_alpha                 90.076566
_cell_angle_beta                  99.511517
_cell_angle_gamma                 90.292589
_cell_volume                      1698.73296199

loop_
_atom_site_label
_atom_site_type_symbol
_atom_type_description
_atom_site_fract_x
_atom_site_fract_y
_atom_site_fract_z
_atom_type_partial_charge
O1    O     O_R   0.525340 0.338340 0.164530 -0.539931
O2    O     O_R   0.474660 0.661660 0.835470 -0.542703
O3    O     O_R   0.974660 0.838340 0.835470 -0.541649
O4    O     O_R   0.025340 0.161660 0.164530 -0.543683
O5    O     O_R   0.253520 0.352000 0.336710 -0.538278
O6    O     O_R   0.746480 0.648000 0.663290 -0.537053
O7    O     O_R   0.246480 0.852000 0.663290 -0.538579
O8    O     O_R   0.753520 0.148000 0.336710 -0.537733
O9    O     O_R   0.083330 0.168380 0.337300 -0.535064
O10   O     O_R   0.916670 0.831620 0.662700 -0.536038
O11   O     O_R   0.416670 0.668380 0.662700 -0.533287
O12   O     O_R   0.583330 0.331620 0.337300 -0.533888
C1    C     C_R   0.433400 0.369315 0.362804 0.681199
C2    C     C_R   0.566390 0.631299 0.636843 0.684548
C3    C     C_R   0.066810 0.868675 0.636868 0.683227
C4    C     C_R   0.933130 0.133233 0.364836 0.681123
O13   O     O_R   0.195840 0.349670 0.165140 -0.540541
O14   O     O_R   0.804160 0.650330 0.834860 -0.539204
O15   O     O_R   0.304160 0.849670 0.834860 -0.544471
O16   O     O_R   0.695840 0.150330 0.165140 -0.542154
C5    C     C_R   0.356655 0.374359 0.139141 0.666581
C6    C     C_R   0.642539 0.624325 0.859878 0.684940
C7    C     C_R   0.143459 0.875680 0.859550 0.665586
C8    C     C_R   0.856647 0.125569 0.138963 0.684434
O17   O     O_3   0.387830 0.193120 0.250910 -0.379883
O18   O     O_3   0.612170 0.806880 0.749090 -0.383897
O19   O     O_3   0.112170 0.693120 0.749090 -0.376534
O20   O     O_3   0.887830 0.306880 0.250910 -0.377994
V1    V     V_3+5 0.113010 0.264540 0.250910 1.382201
V2    V     V_3+5 0.886990 0.735460 0.749090 1.374395
V3    V     V_3+5 0.386990 0.764540 0.749090 1.359485
V4    V     V_3+5 0.613010 0.235460 0.250910 1.384612
C9    C     C_R   0.889695 0.193105 0.525769 -0.174307
C10   C     C_R   0.102606 0.807999 0.477225 -0.166865
C11   C     C_R   0.599610 0.695269 0.478294 -0.168219
C12   C     C_R   0.385053 0.308092 0.520199 -0.165868
C13   C     C_R   0.859435 0.222107 0.601482 -0.152950
C14   C     C_R   0.129194 0.777925 0.401504 -0.142177
C15   C     C_R   0.622347 0.727400 0.402817 -0.140373
C16   C     C_R   0.349521 0.278342 0.594470 -0.154540
C17   C     C_R   0.894459 0.158633 0.666376 0.183496
C18   C     C_R   0.093714 0.841294 0.336878 0.134656
C19   C     C_R   0.584231 0.665206 0.337291 0.134967
C20   C     C_R   0.385567 0.340795 0.659902 0.141500
C21   C     C_R   0.967215 0.067702 0.655786 -0.183524
C22   C     C_R   0.023153 0.932902 0.347362 -0.182511
C23   C     C_R   0.517568 0.572108 0.346673 -0.187279
C24   C     C_R   0.462625 0.431649 0.651672 -0.177695
C25   C     C_R   0.983175 0.033632 0.578983 0.029603
C26   C     C_R   0.012401 0.968167 0.424028 0.038758
C27   C     C_R   0.510732 0.535110 0.422847 0.038779
C28   C     C_R   0.480747 0.467044 0.576140 0.034709
C29   C     C_R   0.947415 0.098043 0.512582 0.056801
C30   C     C_R   0.048659 0.903925 0.490327 0.058628
C31   C     C_R   0.547029 0.598563 0.489964 0.059181
C32   C     C_R   0.445757 0.403465 0.509097 0.059376
C33   C     C_R   0.031219 0.936349 0.567841 -0.153768
C34   C     C_R   0.967483 0.066017 0.434894 -0.155450
C35   C     C_R   0.468012 0.436564 0.432573 -0.155240
C36   C     C_R   0.530037 0.564636 0.566851 -0.155358
H1    H     H_    0.861500 0.244810 0.477407 0.129574
H2    H     H_    0.130358 0.756211 0.525531 0.129469
H3    H     H_    0.628175 0.746281 0.527373 0.129285
H4    H     H_    0.358073 0.256678 0.471377 0.131062
H5    H     H_    0.805165 0.293502 0.609038 0.124968
H6    H     H_    0.180218 0.705871 0.393696 0.124958
H7    H     H_    0.671676 0.800243 0.395800 0.122895
H8    H     H_    0.293600 0.206782 0.600746 0.125083
H9    H     H_    0.001188 0.021882 0.707897 0.102586
H10   H     H_    0.987211 0.978245 0.295027 0.101998
H11   H     H_    0.481028 0.527206 0.293856 0.096270
H12   H     H_    0.499112 0.476214 0.704665 0.096810
H13   H     H_    0.122539 0.076507 0.061222 0.152360
H14   H     H_    0.917231 0.909507 0.959068 0.162585
H15   H     H_    0.365208 0.552080 0.922560 0.154719
H16   H     H_    0.578228 0.399492 0.034062 0.155878
C37   C     C_2   0.148906 0.960593 0.917044 -0.083974
C38   C     C_2   0.854455 0.049298 0.073251 -0.083386
C39   C     C_2   0.352387 0.455651 0.077967 -0.075089
C40   C     C_2   0.643857 0.545655 0.923390 -0.083798
C41   C     C_2   0.018673 0.966403 0.967126 -0.178035
C42   C     C_2   0.003369 0.037518 0.034819 -0.163819
C43   C     C_2   0.477344 0.456220 0.025403 -0.168356
C44   C     C_2   0.489800 0.525109 0.955979 -0.176557
C45   C     C_3   0.143547 0.816540 0.257366 -0.385155
C46   C     C_3   0.293779 0.886480 0.239266 -0.281698
C47   C     C_3   0.310190 0.883462 0.151701 -0.823131
H17   H     H_    0.393230 0.945768 0.139232 0.226251
H18   H     H_    0.374520 0.815220 0.136900 0.249264
H19   H     H_    0.173393 0.890913 0.114432 0.248095
H20   H     H_    0.262612 0.962467 0.253121 0.207096
H21   H     H_    0.427750 0.868562 0.276610 0.188893
H22   H     H_    0.194635 0.741179 0.256417 0.164754
H23   H     H_    0.016973 0.823065 0.211792 0.169970
C48   C     C_3   0.839848 0.183460 0.745575 -0.369660
C49   C     C_3   0.656360 0.135288 0.754499 -0.369331
C50   C     C_3   0.666179 0.026231 0.766405 -0.632381
H24   H     H_    0.687474 0.989213 0.710581 0.235560
H25   H     H_    0.777126 0.007375 0.816609 0.217826
H26   H     H_    0.532838 0.999646 0.780227 0.198264
H27   H     H_    0.612130 0.166924 0.807702 0.191938
H28   H     H_    0.550917 0.151205 0.701495 0.204405
H29   H     H_    0.949317 0.162197 0.795721 0.169599
H30   H     H_    0.822003 0.262751 0.749722 0.144266
C51   C     C_3   0.338292 0.313966 0.738985 -0.393829
C52   C     C_3   0.195013 0.383873 0.761595 -0.281928
C53   C     C_3   0.179461 0.371309 0.848530 -0.826727
H31   H     H_    0.103448 0.432883 0.866958 0.232261
H32   H     H_    0.111271 0.301614 0.856953 0.249357
H33   H     H_    0.315951 0.373094 0.886427 0.245926
H34   H     H_    0.233816 0.460416 0.753474 0.204430
H35   H     H_    0.059280 0.370800 0.723379 0.190533
H36   H     H_    0.284080 0.238779 0.738832 0.169965
H37   H     H_    0.467778 0.319436 0.782701 0.161040
C54   C     C_3   0.626657 0.693129 0.257585 -0.373582
C55   C     C_3   0.775366 0.625986 0.235591 -0.289756
C56   C     C_3   0.768758 0.627965 0.146710 -0.839081
H38   H     H_    0.631605 0.605385 0.115184 0.257105
H39   H     H_    0.797931 0.702410 0.129997 0.245169
H40   H     H_    0.871706 0.577690 0.131182 0.233810
H41   H     H_    0.913116 0.649695 0.266639 0.191299
H42   H     H_    0.756583 0.549521 0.252459 0.209877
H43   H     H_    0.497317 0.686518 0.213592 0.183463
H44   H     H_    0.676419 0.769072 0.257218 0.162505
C57   C     C_3   0.685930 0.988998 0.047622 -0.333105
C58   C     C_3   0.709971 0.881496 0.068779 -0.352459
C59   C     C_3   0.589536 0.819844 0.005091 -0.737758
H45   H     H_    0.441955 0.836961 0.003300 0.237383
H46   H     H_    0.625698 0.833351 0.944868 0.234950
H47   H     H_    0.610753 0.742192 0.017521 0.202753
H48   H     H_    0.854740 0.858505 0.073354 0.200999
H49   H     H_    0.673709 0.868023 0.128847 0.193699
H50   H     H_    0.575028 0.016890 0.076330 0.169313
H51   H     H_    0.648978 0.997951 0.982297 0.193881
C60   C     C_3   0.277488 0.042095 0.900394 -0.323194
C61   C     C_3   0.311166 0.126163 0.959742 -0.300548
C62   C     C_3   0.461873 0.192760 0.942323 -0.855737
H52   H     H_    0.594577 0.154511 0.945946 0.240975
H53   H     H_    0.421524 0.222226 0.882044 0.241586
H54   H     H_    0.478963 0.251883 0.986979 0.229414
H55   H     H_    0.183460 0.168795 0.957376 0.201738
H56   H     H_    0.359821 0.099881 0.020369 0.199375
H57   H     H_    0.410925 0.009697 0.894769 0.177645
H58   H     H_    0.223004 0.071912 0.840234 0.148217
C63   C     C_3   0.810130 0.484523 0.948241 -0.336834
C64   C     C_3   0.779913 0.380883 0.915465 -0.323762
C65   C     C_3   0.892002 0.307851 0.971028 -0.775130
H59   H     H_    0.038026 0.331054 0.986681 0.242222
H60   H     H_    0.835289 0.300320 0.027582 0.227952
H61   H     H_    0.884955 0.236309 0.941030 0.212754
H62   H     H_    0.633915 0.359392 0.908830 0.203198
H63   H     H_    0.813164 0.377063 0.854069 0.188614
H64   H     H_    0.928659 0.517084 0.926923 0.166620
H65   H     H_    0.836874 0.483467 0.014171 0.192366
C66   C     C_3   0.225169 0.539050 0.089818 -0.332396
C67   C     C_3   0.214765 0.626083 0.032667 -0.294133
C68   C     C_3   0.081824 0.703109 0.048917 -0.857903
H66   H     H_    0.939167 0.680675 0.023755 0.246034
H67   H     H_    0.097349 0.717067 0.113878 0.256073
H68   H     H_    0.110636 0.770034 0.017238 0.224397
H69   H     H_    0.352490 0.659786 0.037077 0.207485
H70   H     H_    0.159463 0.604241 0.971170 0.198545
H71   H     H_    0.088787 0.506959 0.087022 0.170398
H72   H     H_    0.266939 0.566302 0.152059 0.156125

loop_
_geom_bond_atom_site_label_1
_geom_bond_atom_site_label_2
_ccdc_geom_bond_type
C57   H51   S    
C49   H27   S    
C47   H17   S    
O1    C5    A    
C68   H66   S    
C49   H28   S    
O13   V1    S    
O3    C7    A    
C48   C49   S    
C40   C44   D    
O15   V3    S    
C50   H24   S    
C60   C61   S    
C52   H35   S    
C45   C46   S    
C62   H53   S    
C58   C59   S    
C55   H42   S    
C51   H36   S    
C67   C68   S    
C65   H60   S    
O9    C4    A    
C14   C18   A    
O10   C3    A    
C56   H39   S    
O4    C8    A    
O11   C2    A    
H15   C44   S    
O8    C4    A    
C52   C53   S    
C54   C55   S    
C10   H2    S    
C25   C33   A    
C55   C56   S    
C18   C22   A    
O10   V2    S    
C61   H56   S    
C28   C36   A    
C65   H59   S    
C19   C54   S    
C45   H22   S    
C40   C63   S    
O16   C8    A    
C13   H5    S    
O2    C6    A    
C53   H31   S    
O14   V2    S    
C37   C41   D    
C16   C20   A    
O5    C1    A    
O4    V1    S    
O11   V3    S    
O9    V1    S    
C63   H64   S    
C53   H32   S    
O17   V4    S    
C60   H57   S    
C62   H52   S    
C67   H70   S    
O18   V3    S    
C68   H67   S    
C10   C14   A    
C31   C36   A    
O12   V4    S    
O19   V2    S    
C3    C33   S    
C24   H12   S    
H16   C43   S    
C50   H25   S    
C48   H29   S    
C63   C64   S    
O5    V1    S    
C52   H34   S    
C9    C29   A    
C62   H54   S    
C54   H43   S    
C55   H41   S    
C11   C31   A    
O8    V4    S    
C14   H6    S    
C51   H37   S    
C12   C16   A    
C65   H61   S    
O7    V3    S    
C56   H40   S    
C46   C47   S    
C23   C27   A    
C66   H71   S    
C20   C51   S    
C21   H9    S    
O1    V4    S    
C41   C42   S    
O2    V3    S    
C26   C34   A    
O3    V2    S    
C11   C15   A    
C59   H46   S    
C61   H55   S    
C12   C32   A    
O6    C2    A    
C45   H23   S    
C38   C42   D    
C43   C44   S    
C21   C25   A    
C49   C50   S    
C5    C39   S    
C18   C45   S    
C4    C34   S    
C7    C37   S    
C23   H11   S    
C64   H63   S    
C63   H65   S    
C8    C38   S    
C60   H58   S    
O6    V2    S    
C67   H69   S    
C10   C30   A    
C68   H68   S    
C47   H18   S    
C57   C58   S    
C53   H33   S    
C27   C35   A    
H14   C41   S    
C59   H45   S    
H13   C42   S    
C50   H26   S    
C48   H30   S    
O15   C7    A    
C9    C13   A    
C64   C65   S    
O16   V4    S    
C57   H50   S    
O20   V1    S    
C54   H44   S    
O14   C6    A    
C15   H7    S    
C61   C62   S    
C15   C19   A    
C29   C34   A    
C1    C35   S    
C66   H72   S    
C2    C36   S    
C51   C52   S    
C22   C26   A    
C32   C35   A    
C46   H20   S    
C59   H47   S    
C6    C40   S    
C26   C30   A    
C46   H21   S    
C56   H38   S    
C39   C43   D    
C17   C48   S    
C58   H48   S    
C25   C29   A    
O7    C3    A    
C27   C31   A    
C13   C17   A    
O13   C5    A    
C22   H10   S    
C58   H49   S    
C39   C66   S    
C64   H62   S    
C20   C24   A    
C24   C28   A    
O12   C1    A    
C9    H1    S    
C16   H8    S    
C47   H19   S    
C66   C67   S    
C17   C21   A    
C11   H3    S    
C37   C60   S    
C12   H4    S    
C38   C57   S    
C19   C23   A    
C28   C32   A    
C30   C33   A    
