data_mof_unit_54116.cif
_audit_creation_date              2013-03-05T15:40:48-0500
_audit_creation_method            fapswitch 2.2
_symmetry_space_group_name_H-M    P1
_symmetry_Int_Tables_number       1
_space_group_crystal_system       triclinic
_cell_length_a                    7.795734
_cell_length_b                    8.574078
_cell_length_c                    14.871693
_cell_angle_alpha                 90.929116
_cell_angle_beta                  85.878082
_cell_angle_gamma                 93.036116
_cell_volume                      990.002527205

loop_
_atom_site_label
_atom_site_type_symbol
_atom_site_description
_atom_site_fract_x
_atom_site_fract_y
_atom_site_fract_z
_atom_type_partial_charge
O1    O     O_R   0.389250 0.738570 0.505970 -0.609548
O2    O     O_R   0.610750 0.261430 0.494030 -0.609552
O3    O     O_R   0.678390 0.711620 0.490370 -0.629802
O4    O     O_R   0.321610 0.288380 0.509630 -0.629807
C1    C     C_R   0.545254 0.794481 0.497668 0.960512
C2    C     C_R   0.454746 0.205519 0.502332 0.960503
O5    O     O_R   0.355420 0.513510 0.639950 -0.599457
O6    O     O_R   0.644580 0.486490 0.360050 -0.599475
O7    O     O_R   0.644560 0.486560 0.624350 -0.617753
O8    O     O_R   0.355440 0.513440 0.375650 -0.617757
C3    C     C_R   0.502003 0.498846 0.672658 0.874154
C4    C     C_R   0.497998 0.501157 0.327342 0.874136
Zn1   Zn    Zn3+2 0.306940 0.517990 0.510420 0.990978
Zn2   Zn    Zn3+2 0.693060 0.482010 0.489580 0.990972
C5    C     C_R   0.411034 0.379706 0.189525 -0.120777
C6    C     C_R   0.588975 0.620298 0.810470 -0.120610
C7    C     C_R   0.493320 0.503695 0.232363 -0.078742
C8    C     C_R   0.506698 0.496301 0.767635 -0.078803
C9    C     C_R   0.575171 0.627886 0.185461 -0.128168
C10   C     C_R   0.424971 0.372045 0.814533 -0.128216
C11   C     C_R   0.575651 0.630408 0.092051 -0.000785
C12   C     C_R   0.424567 0.369487 0.907939 -0.000775
C13   C     C_R   0.496198 0.501924 0.046927 0.003036
C14   C     C_R   0.503985 0.497994 0.953063 0.002971
C15   C     C_R   0.410779 0.376497 0.096087 -0.004682
C16   C     C_R   0.589356 0.623448 0.903904 -0.004674
C17   C     C_R   0.659004 0.755510 0.043198 0.220663
C18   C     C_R   0.341312 0.244333 0.956792 0.220652
C19   C     C_R   0.667703 0.751382 0.948848 0.225170
C20   C     C_R   0.332527 0.248518 0.051144 0.225126
H1    H     H_    0.353680 0.284217 0.230069 0.177523
H2    H     H_    0.646232 0.715829 0.769928 0.177594
H3    H     H_    0.639192 0.720645 0.222825 0.178771
H4    H     H_    0.360958 0.279278 0.777170 0.178797
C21   C     C_2   0.569348 0.957631 0.496305 -0.340170
C22   C     C_2   0.430652 0.042369 0.503696 -0.340173
H5    H     H_    0.700791 0.007533 0.489215 0.189385
H6    H     H_    0.299209 0.992466 0.510785 0.189388
N1    N     N_2   0.950330 0.457950 0.475660 -0.165273
N2    N     N_2   0.049670 0.542050 0.524340 -0.165268
H7    H     H_    0.013892 0.382623 0.431933 0.206390
H8    H     H_    0.986107 0.617377 0.568067 0.206409
N3    N     N_R   0.742445 0.883722 0.088786 0.230528
O9    O     O_R   0.652686 0.978095 0.140235 -0.349196
O10   O     O_R   0.907677 0.910923 0.074887 -0.236388
N4    N     N_R   0.258146 0.115963 0.911201 0.230435
O11   O     O_R   0.348117 0.021880 0.859659 -0.349550
O12   O     O_R   0.093013 0.088242 0.925242 -0.236176
N5    N     N_R   0.755070 0.878125 0.899245 0.245584
O13   O     O_R   0.714113 0.021285 0.916442 -0.287373
O14   O     O_R   0.885142 0.851752 0.842181 -0.334507
N6    N     N_R   0.245203 0.121774 0.100755 0.245543
O15   O     O_R   0.286498 0.978662 0.083733 -0.287528
O16   O     O_R   0.114896 0.148083 0.157671 -0.334231

loop_
_geom_bond_atom_site_label_1
_geom_bond_atom_site_label_2
_geom_bond_distance
_ccdc_geom_bond_type
C4    C7    1.416133 S    
O7    Zn2   2.012862 S    
C3    C8    1.416126 S    
C5    H1    1.082706 S    
C6    H2    1.082713 S    
N3    O10   1.299151 A    
C21   C22   1.331389 D    
O6    C4    1.286597 A    
N3    O9    1.301054 A    
C10   H4    1.083466 S    
N5    O14   1.301502 A    
C22   H6    1.087962 S    
C11   C17   1.408616 A    
N1    H7    1.029326 S    
C6    C8    1.382774 A    
C12   C18   1.408656 A    
C19   N5    1.436777 S    
O5    C3    1.286602 A    
O7    C3    1.287422 A    
C18   N4    1.433487 S    
O2    C2    1.281676 A    
O3    Zn2   1.977846 S    
O8    C4    1.287432 A    
O1    C1    1.281676 A    
C1    C21   1.401795 S    
C18   C20   1.399883 A    
C9    C11   1.389414 A    
C2    C22   1.401796 S    
C8    C10   1.384088 A    
C11   C13   1.418125 A    
C6    C16   1.389557 A    
O2    Zn2   1.965305 S    
C12   C14   1.418151 A    
C5    C15   1.389556 A    
C17   C19   1.399872 A    
C10   C12   1.389418 A    
C13   C14   1.392802 A    
N4    O12   1.299181 A    
C17   N3    1.433428 S    
O5    Zn1   1.990894 S    
C13   C15   1.419191 A    
O1    Zn1   1.965303 S    
N6    O15   1.301318 A    
C21   H5    1.087962 S    
C16   C19   1.409594 A    
O4    C2    1.285755 A    
N5    O13   1.301393 A    
C9    H3    1.083457 S    
N1    N2    1.283867 D    
C5    C7    1.382774 A    
C20   N6    1.436724 S    
N4    O11   1.301080 A    
C15   C20   1.409561 A    
Zn1   N2    2.022532 S    
O6    Zn2   1.990895 S    
C7    C9    1.384071 A    
Zn2   N1    2.022531 S    
C14   C16   1.419217 A    
O4    Zn1   1.977848 S    
N6    O16   1.301430 A    
N2    H8    1.029326 S    
O3    C1    1.285755 A    
O8    Zn1   2.012864 S    
