data_mof_unit_23307.cif
_audit_creation_date              2012-12-11T16:57:22-0500
_audit_creation_method            fapswitch 2.2
_symmetry_space_group_name_H-M    P1
_symmetry_Int_Tables_number       1
_space_group_crystal_system       triclinic
_cell_length_a                    14.488859
_cell_length_b                    16.189629
_cell_length_c                    6.957601
_cell_angle_alpha                 89.999903
_cell_angle_beta                  99.041708
_cell_angle_gamma                 90.000032
_cell_volume                      1611.7598738

loop_
_atom_site_label
_atom_site_type_symbol
_atom_type_description
_atom_site_fract_x
_atom_site_fract_y
_atom_site_fract_z
_atom_type_partial_charge
O1    O     O_R   0.584990 0.413650 0.534420 -0.535130
O2    O     O_R   0.584990 0.586350 0.534420 -0.535126
O3    O     O_R   0.596190 0.585230 0.208380 -0.531197
O4    O     O_R   0.596190 0.414770 0.208380 -0.531199
O5    O     O_R   0.415010 0.586420 0.976930 -0.538852
O6    O     O_R   0.415010 0.413580 0.976930 -0.538853
C1    C     C_R   0.618362 0.614534 0.384118 0.712758
C2    C     C_R   0.618361 0.385466 0.384118 0.712743
O7    O     O_3   0.440560 0.500000 0.319140 -0.384893
V1    V     V_3+5 0.511030 0.500000 0.068070 1.498621
O8    O     O_R   0.403810 0.414840 0.643540 -0.548472
O9    O     O_R   0.403810 0.585160 0.643540 -0.548464
C3    C     C_R   0.381343 0.386277 0.805407 0.794740
C4    C     C_R   0.381347 0.613726 0.805407 0.794742
V2    V     V_3+5 0.488970 0.500000 0.560620 1.453832
O10   O     O_3   0.559440 0.500000 0.859420 -0.365022
H1    H     H_    0.179507 0.797686 0.815087 0.133160
H2    H     H_    0.179491 0.202326 0.815090 0.133161
H3    H     H_    0.339869 0.705712 0.092975 0.163968
H4    H     H_    0.339819 0.294331 0.092990 0.163980
C5    C     C_2   0.309737 0.679482 0.795649 -0.345747
C6    C     C_2   0.309732 0.320521 0.795646 -0.345741
C7    C     C_2   0.295404 0.720226 0.957134 -0.117324
C8    C     C_2   0.295378 0.279796 0.957137 -0.117362
C9    C     C_2   0.202393 0.823287 0.117759 -0.068009
C10   C     C_2   0.202398 0.176709 0.117755 -0.068005
C11   C     C_2   0.221171 0.783767 0.955256 -0.145052
C12   C     C_2   0.221158 0.216243 0.955256 -0.145012
H5    H     H_    0.267586 0.693703 0.656788 0.122833
H6    H     H_    0.267599 0.306282 0.656778 0.122836
C13   C     C_R   0.683739 0.741647 0.566953 -0.081206
C14   C     C_R   0.683737 0.258351 0.566949 -0.081265
C15   C     C_R   0.684316 0.685717 0.413159 -0.132769
C16   C     C_R   0.684315 0.314283 0.413159 -0.132752
C17   C     C_R   0.748538 0.701034 0.284575 -0.080430
C18   C     C_R   0.748536 0.298965 0.284573 -0.080435
H7    H     H_    0.752131 0.659551 0.164290 0.127711
H8    H     H_    0.752128 0.340448 0.164290 0.127709
C19   C     C_R   0.813672 0.766437 0.318302 -0.078072
C20   C     C_R   0.813670 0.233561 0.318301 -0.078081
H9    H     H_    0.865996 0.773008 0.224966 0.192412
H10   H     H_    0.865992 0.226989 0.224965 0.192418
C21   C     C_R   0.816358 0.819127 0.480021 -0.110434
C22   C     C_R   0.816357 0.180873 0.480020 -0.110430
C23   C     C_R   0.748527 0.806375 0.600011 -0.033015
C24   C     C_R   0.748525 0.193623 0.600007 -0.033024
C25   C     C_3   0.762625 0.791947 0.813816 1.007921
C26   C     C_3   0.762619 0.208048 0.813813 1.007932
C27   C     C_3   0.690574 0.723413 0.778596 0.394356
C28   C     C_3   0.690567 0.276581 0.778592 0.394363
H11   H     H_    0.717807 0.660548 0.818875 0.022673
H12   H     H_    0.717799 0.339446 0.818880 0.022680
O11   O     O_R   0.921430 0.915960 0.371040 -0.529572
O12   O     O_R   0.921430 0.084040 0.371040 -0.529572
O13   O     O_R   0.910450 0.087500 0.697310 -0.509744
O14   O     O_R   0.910450 0.912500 0.697310 -0.509745
O15   O     O_R   0.091710 0.087460 0.928430 -0.552159
O16   O     O_R   0.091710 0.912540 0.928430 -0.552161
C29   C     C_R   0.887907 0.114244 0.519312 0.742602
C30   C     C_R   0.887907 0.885755 0.519312 0.742603
O17   O     O_3   0.065970 0.000000 0.586140 -0.402974
V3    V     V_3+5 0.995640 1.000000 0.837400 1.603336
O18   O     O_R   0.103020 0.915700 0.261710 -0.553403
O19   O     O_R   0.103020 0.084300 0.261710 -0.553405
C31   C     C_R   0.126915 0.886899 0.101402 0.707472
C32   C     C_R   0.126919 0.113099 0.101403 0.707466
V4    V     V_3+5 0.017940 1.000000 0.344880 1.479283
O20   O     O_3   0.947330 0.000000 0.046180 -0.320716
C33   C     C_3   0.259154 0.806568 0.317353 -0.370970
C34   C     C_3   0.352382 0.853525 0.342926 -0.349599
C35   C     C_3   0.413599 0.831585 0.535141 -0.625038
H13   H     H_    0.479528 0.867678 0.550660 0.249108
H14   H     H_    0.431431 0.764818 0.538420 0.237428
H15   H     H_    0.376892 0.846492 0.659473 0.226747
H16   H     H_    0.391514 0.838963 0.222065 0.222303
H17   H     H_    0.338316 0.921040 0.339979 0.188884
H18   H     H_    0.220106 0.825942 0.434958 0.177935
H19   H     H_    0.270456 0.739239 0.338980 0.170111
C36   C     C_3   0.259174 0.193420 0.317336 -0.371055
C37   C     C_3   0.352435 0.146521 0.342817 -0.349635
C38   C     C_3   0.413689 0.168508 0.534961 -0.624946
H20   H     H_    0.431454 0.235290 0.538194 0.237356
H21   H     H_    0.377040 0.153572 0.659358 0.226788
H22   H     H_    0.479651 0.132467 0.550405 0.249120
H23   H     H_    0.338423 0.078997 0.339917 0.188900
H24   H     H_    0.391519 0.161098 0.221894 0.222329
H25   H     H_    0.270429 0.260751 0.339001 0.170121
H26   H     H_    0.220166 0.174001 0.434956 0.177959
F1    F     F_    0.735735 0.858716 0.916336 -0.619793
F2    F     F_    0.735727 0.141276 0.916324 -0.619795
F3    F     F_    0.851793 0.763522 0.882520 -0.765386
F4    F     F_    0.851786 0.236472 0.882525 -0.765384
F5    F     F_    0.608222 0.742502 0.846259 -0.654484
F6    F     F_    0.608213 0.257490 0.846244 -0.654491

loop_
_geom_bond_atom_site_label_1
_geom_bond_atom_site_label_2
_ccdc_geom_bond_type
O16   V3    S    
O18   C31   A    
O13   C29   A    
O1    C2    A    
C1    C15   S    
C33   H18   S    
O2    C1    A    
O15   C32   A    
O4    C2    A    
C36   H25   S    
C38   H20   S    
O15   V3    S    
C19   H9    S    
C4    C5    S    
C17   H7    S    
O3    C1    A    
C22   C29   S    
V2    O10   S    
O13   V3    S    
C37   H24   S    
C14   C16   A    
O8    V2    S    
H4    C8    S    
C27   H11   S    
C28   H12   S    
C13   C15   A    
C34   C35   S    
O1    V2    S    
C7    C11   S    
O7    V1    S    
C16   C18   A    
C20   H10   S    
C26   F2    S    
C25   F1    S    
C33   H19   S    
C33   C34   S    
C25   F3    S    
C13   C27   S    
C36   H26   S    
C38   H21   S    
O11   C30   A    
C22   C24   A    
C24   C26   S    
O12   C29   A    
C23   C25   S    
O18   V4    S    
V4    O20   S    
C10   C32   S    
O19   V4    S    
C18   C20   A    
C9    C31   S    
C25   C27   S    
C35   H14   S    
H3    C7    S    
C28   F6    S    
C19   C21   A    
O12   V4    S    
C5    H5    S    
O14   C30   A    
H1    C11   S    
C17   C19   A    
C37   H23   S    
O17   V4    S    
O16   C31   A    
O9    V2    S    
C20   C22   A    
H2    C12   S    
C2    C16   S    
O2    V2    S    
C21   C23   A    
C14   C28   S    
O5    C4    A    
C21   C30   S    
O9    C4    A    
C5    C7    D    
C34   H17   S    
O14   V3    S    
C9    C33   S    
O4    V1    S    
C38   H22   S    
C6    H6    S    
C14   C24   A    
C8    C12   S    
C37   C38   S    
O6    V1    S    
C35   H15   S    
C9    C11   D    
C10   C12   D    
C10   C36   S    
V3    O20   S    
C18   H8    S    
O7    V2    S    
O5    V1    S    
O3    V1    S    
V1    O10   S    
O6    C3    A    
O8    C3    A    
C26   C28   S    
C15   C17   A    
C3    C6    S    
C6    C8    D    
O17   V3    S    
O11   V4    S    
C26   F4    S    
C36   C37   S    
C35   H13   S    
C13   C23   A    
C34   H16   S    
C27   F5    S    
O19   C32   A    
