data_mof_unit_68417.cif
_audit_creation_date              2012-12-10T16:55:46-0500
_audit_creation_method            fapswitch 2.2
_symmetry_space_group_name_H-M    P1
_symmetry_Int_Tables_number       1
_space_group_crystal_system       triclinic
_cell_length_a                    8.017172
_cell_length_b                    8.827867
_cell_length_c                    10.614624
_cell_angle_alpha                 94.417193
_cell_angle_beta                  84.029357
_cell_angle_gamma                 90.274672
_cell_volume                      744.946493115

loop_
_atom_site_label
_atom_site_type_symbol
_atom_type_description
_atom_site_fract_x
_atom_site_fract_y
_atom_site_fract_z
_atom_type_partial_charge
C1    C     C_R   0.541173 0.792541 0.497142 0.911369
C2    C     C_R   0.458803 0.207433 0.502362 0.881922
C3    C     C_R   0.499596 0.498982 0.741649 0.980678
C4    C     C_R   0.500408 0.501306 0.258425 1.017807
C5    C     C_3   0.430200 0.627833 0.970675 0.293550
C6    C     C_3   0.569621 0.372645 0.029609 0.268251
C7    C     C_3   0.587620 0.618855 0.040849 0.256273
C8    C     C_3   0.412303 0.381564 0.959414 0.179997
C9    C     C_3   0.499307 0.502374 0.123887 -0.452692
C10   C     C_3   0.500602 0.498056 0.876310 -0.466986
C11   C     C_3   0.341160 0.510783 0.054091 0.317093
C12   C     C_3   0.658740 0.489507 0.946150 0.307203
C13   C     C_2   0.560298 0.949436 0.478311 0.157039
C14   C     C_2   0.439425 0.050428 0.520467 0.133810
N1    N     N_2   0.950320 0.457950 0.465730 0.096483
N2    N     N_2   0.049680 0.542050 0.534270 0.096410
O1    O     O_R   0.389250 0.738570 0.508410 -0.581771
O2    O     O_R   0.610750 0.261430 0.491590 -0.593178
O3    O     O_R   0.678390 0.711620 0.486450 -0.550753
O4    O     O_R   0.321610 0.288380 0.513550 -0.545533
O5    O     O_R   0.355460 0.513510 0.697030 -0.550693
O6    O     O_R   0.644540 0.486490 0.302970 -0.551799
O7    O     O_R   0.644600 0.486560 0.675070 -0.587517
O8    O     O_R   0.355400 0.513440 0.324930 -0.582278
Zn1   Zn    Zn3+2 0.306940 0.517990 0.514670 1.221480
Zn2   Zn    Zn3+2 0.693060 0.482010 0.485330 1.214638
S1    S     S_3+6 0.697305 0.782185 0.092558 0.174229
O9    O     O_2   0.571044 0.892281 0.161634 -0.199605
O10   O     O_2   0.821986 0.738575 0.179663 -0.197152
O11   O     O_3   0.796779 0.860144 0.966182 -0.434428
H1    H     H_    0.886588 0.923311 0.000480 0.415044
S2    S     S_3+6 0.305157 0.216817 0.906991 0.185760
O12   O     O_2   0.216628 0.146399 0.019727 -0.156689
O13   O     O_2   0.179569 0.257625 0.819688 -0.178119
O14   O     O_3   0.448871 0.094596 0.831129 -0.419048
H2    H     H_    0.528025 0.157580 0.779719 0.330134
Cl1   Cl    Cl    0.337103 0.799185 0.935626 -0.311129
Cl2   Cl    Cl    0.660617 0.201083 0.066301 -0.355393
Cl3   Cl    Cl    0.128025 0.528176 0.119746 -0.331455
Cl4   Cl    Cl    0.871857 0.471178 0.880434 -0.334631
S3    S     S_3+6 0.015233 0.288969 0.384007 0.244135
O15   O     O_2   0.185242 0.290045 0.312003 -0.262841
O16   O     O_2   0.008733 0.167946 0.476005 -0.163861
O17   O     O_3   0.880745 0.249565 0.275552 -0.424481
H3    H     H_    0.941764 0.178227 0.210216 0.426020
S4    S     S_3+6 0.984858 0.711033 0.615820 0.244332
O18   O     O_2   0.990648 0.831847 0.523654 -0.163373
O19   O     O_2   0.815182 0.709789 0.688312 -0.255118
O20   O     O_3   0.120107 0.750543 0.723664 -0.424165
H4    H     H_    0.061293 0.825468 0.787034 0.426772
Cl5   Cl    Cl    0.741821 0.991325 0.381551 -0.351002
Cl6   Cl    Cl    0.257778 0.008700 0.617141 -0.354739

loop_
_geom_bond_atom_site_label_1
_geom_bond_atom_site_label_2
_ccdc_geom_bond_type
C12   Cl4   S    
C1    C13   S    
C6    Cl2   S    
C5    Cl1   S    
S1    O10   D    
C9    C11   S    
S3    O15   D    
C1    O1    A    
O14   H2    S    
O2    Zn2   S    
O1    Zn1   S    
S2    O12   D    
C6    C9    S    
C4    O6    A    
C5    C10   S    
C3    C10   S    
C13   C14   D    
O17   H3    S    
S1    O11   S    
C11   Cl3   S    
S3    O16   D    
S4    O20   S    
C7    C12   S    
C10   C12   S    
C8    C11   S    
C2    C14   S    
C5    C11   S    
C6    C12   S    
O11   H1    S    
C4    O8    A    
S3    O17   S    
S4    O19   D    
C3    O5    A    
C1    O3    A    
O4    Zn1   S    
C2    O4    A    
N1    N2    D    
C8    S2    S    
S2    O14   S    
C7    C9    S    
N2    Zn1   S    
C7    S1    S    
O8    Zn1   S    
N1    S3    S    
C8    C10   S    
O20   H4    S    
O6    Zn2   S    
O7    Zn2   S    
N2    S4    S    
S1    O9    D    
C5    C7    S    
O3    Zn2   S    
O5    Zn1   S    
S4    O18   D    
N1    Zn2   S    
C6    C8    S    
C4    C9    S    
C13   Cl5   S    
C3    O7    A    
C14   Cl6   S    
C2    O2    A    
S2    O13   D    
