data_mof_unit_56319.cif
_audit_creation_date              2012-12-11T17:35:56-0500
_audit_creation_method            fapswitch 2.2
_symmetry_space_group_name_H-M    P1
_symmetry_Int_Tables_number       1
_space_group_crystal_system       triclinic
_cell_length_a                    19.850167
_cell_length_b                    19.85638
_cell_length_c                    20.69495
_cell_angle_alpha                 107.771373
_cell_angle_beta                  106.974945
_cell_angle_gamma                 110.931276
_cell_volume                      6475.98055553

loop_
_atom_site_label
_atom_site_type_symbol
_atom_type_description
_atom_site_fract_x
_atom_site_fract_y
_atom_site_fract_z
_atom_type_partial_charge
C1    C     C_R   0.721670 0.720567 0.645028 -0.148446
C2    C     C_R   0.530589 0.697350 0.460767 -0.234863
C3    C     C_R   0.582089 0.189215 0.272468 -0.087254
C4    C     C_R   0.554614 0.244643 0.271231 -0.117680
C5    C     C_R   0.526849 0.270967 0.323456 -0.170518
C6    C     C_R   0.620111 0.745590 0.763724 0.062561
C7    C     C_R   0.666992 0.779018 0.842543 -0.183895
C8    C     C_R   0.636505 0.803438 0.892854 -0.102007
C9    C     C_R   0.558947 0.794254 0.864968 -0.097941
C10   C     C_R   0.511767 0.760560 0.786733 -0.104019
C11   C     C_R   0.542152 0.736174 0.736334 -0.131922
C12   C     C_R   0.517351 0.447627 0.292662 -0.127412
C13   C     C_R   0.428548 0.271360 0.500453 -0.138491
C14   C     C_R   0.338989 0.563717 0.567060 -0.029508
C15   C     C_R   0.561608 0.517701 0.289921 0.039991
C16   C     C_R   0.267823 0.495368 0.542209 0.064666
C17   C     C_R   0.475946 0.719416 0.474900 -0.082768
C18   C     C_R   0.259815 0.282528 0.275152 -0.017695
C19   C     C_3   0.035980 0.453218 0.626606 -0.186341
C20   C     C_3   0.027672 0.530824 0.655588 -0.191789
C21   C     C_R   0.455412 0.227122 0.461269 0.054490
C22   C     C_1   0.814613 0.494595 0.551477 -0.033444
C23   C     C_1   0.208104 0.492602 0.566620 -0.023329
C24   C     C_3   0.956469 0.412730 0.552279 -0.182755
C25   C     C_R   0.532842 0.553049 0.718648 -0.136099
C26   C     C_3   0.950131 0.490195 0.581140 0.205528
C27   C     C_3   0.005376 0.449598 0.514641 0.052639
C28   C     C_3   0.083652 0.489538 0.587939 0.104425
C29   C     C_3   0.997773 0.526502 0.542363 -0.261582
C30   C     C_3   0.075847 0.565903 0.616247 0.055653
C31   C     C_1   0.875850 0.491889 0.568859 -0.051627
C32   C     C_R   0.516857 0.482127 0.725565 0.034424
C33   C     C_1   0.154279 0.490727 0.581594 -0.060493
C34   C     C_3   0.363878 0.904547 0.450089 -0.345916
C35   C     C_3   0.437145 0.988743 0.483576 0.707486
C36   C     C_1   0.426207 0.143094 0.437771 -0.035305
C37   C     C_R   0.667477 0.432588 0.477712 -0.145193
C38   C     C_1   0.445696 0.763723 0.445449 0.074782
C39   C     C_3   0.325899 0.912053 0.377070 -0.154375
C40   C     C_3   0.400109 0.996229 0.411981 -0.065744
C41   C     C_3   0.370354 0.873488 0.340926 -0.145981
C42   C     C_3   0.408072 0.867703 0.414033 -0.075642
C43   C     C_R   0.742578 0.498661 0.526261 0.038513
C44   C     C_3   0.444288 0.959364 0.375923 -0.373989
C45   C     C_3   0.480600 0.951973 0.448139 0.704317
C46   C     C_1   0.408307 0.074160 0.421867 0.061131
C47   C     C_1   0.424218 0.806279 0.426207 0.069263
C48   C     C_R   0.596846 0.523864 0.236925 0.145304
C49   C     C_R   0.464704 0.418165 0.653270 -0.119131
C50   C     C_R   0.593437 0.455430 0.186167 -0.185194
C51   C     C_R   0.618326 0.459382 0.130566 -0.171846
C52   C     C_R   0.646845 0.532084 0.124537 0.224828
C53   C     C_R   0.657052 0.601851 0.179258 -0.183630
C54   C     C_R   0.579102 0.581172 0.354992 -0.146347
C55   C     C_R   0.631756 0.597884 0.234718 -0.185818
C56   C     C_R   0.646514 0.541392 0.929092 -0.165777
C57   C     C_R   0.618742 0.544799 0.860805 -0.185570
C58   C     C_R   0.607944 0.468919 0.933117 0.220983
C59   C     C_R   0.552172 0.476196 0.795547 0.143212
C60   C     C_R   0.518648 0.402364 0.798385 -0.166554
C61   C     C_R   0.735924 0.567616 0.536453 0.033746
C62   C     C_R   0.546888 0.398887 0.866622 -0.173868
C63   C     C_R   0.788297 0.848396 0.765828 0.136271
C64   C     C_R   0.772765 0.908023 0.805042 -0.166002
C65   C     C_R   0.271521 0.429250 0.501027 -0.140519
C66   C     C_R   0.836958 0.984046 0.861691 -0.166230
C67   C     C_R   0.916885 0.001783 0.876787 0.223496
C68   C     C_R   0.931028 0.945865 0.831105 -0.187903
C69   C     C_R   0.867595 0.869313 0.777068 -0.182065
C70   C     C_R   0.102701 0.118821 0.080857 -0.171212
C71   C     C_R   0.172026 0.163633 0.149304 -0.167991
C72   C     C_R   0.042767 0.142154 0.067432 0.232507
C73   C     C_R   0.499923 0.273483 0.435175 0.016079
C74   C     C_R   0.183375 0.232829 0.205639 0.147744
C75   C     C_R   0.122235 0.254274 0.194660 -0.192922
C76   C     C_R   0.458573 0.693877 0.525730 0.700781
C77   C     C_R   0.051660 0.208521 0.125630 -0.194721
C78   C     C_R   0.651605 0.717348 0.710675 0.029928
C79   C     C_R   0.724344 0.764127 0.712410 -0.017043
C80   C     C_R   0.353703 0.296393 0.214049 0.101256
C81   C     C_R   0.370852 0.234099 0.185571 -0.207098
C82   C     C_R   0.382035 0.219033 0.120011 -0.120784
C83   C     C_R   0.373956 0.264607 0.081396 -0.101308
C84   C     C_R   0.353078 0.324188 0.107435 -0.104987
C85   C     C_R   0.341662 0.339212 0.172876 -0.112784
C86   C     C_R   0.145692 0.650745 0.654428 0.132934
C87   C     C_R   0.337369 0.309701 0.280452 0.021248
C88   C     C_R   0.144220 0.705334 0.624715 -0.144915
C89   C     C_R   0.210483 0.783383 0.660184 -0.096483
C90   C     C_R   0.278523 0.807378 0.725323 -0.066059
C91   C     C_R   0.280301 0.753461 0.755309 -0.124685
C92   C     C_R   0.214078 0.675482 0.720159 -0.156918
C93   C     C_R   0.994707 0.401835 0.436641 0.135247
C94   C     C_R   0.978581 0.427062 0.380158 -0.139119
C95   C     C_R   0.971658 0.383415 0.308987 -0.107241
C96   C     C_R   0.980882 0.314532 0.293754 -0.092995
C97   C     C_R   0.996714 0.288951 0.349577 -0.114273
C98   C     C_R   0.268001 0.308112 0.347928 -0.147807
C99   C     C_R   0.003402 0.332248 0.420697 -0.154617
C100  C     C_R   0.803631 0.647872 0.561271 0.114645
C101  C     C_R   0.874869 0.683785 0.628733 -0.158841
C102  C     C_R   0.940397 0.757807 0.649754 -0.139396
C103  C     C_R   0.935255 0.796567 0.603824 -0.083612
C104  C     C_R   0.864826 0.761007 0.536434 -0.115174
C105  C     C_R   0.799391 0.686678 0.514909 -0.169919
C106  C     C_R   0.525958 0.242334 0.377411 0.084314
C107  C     C_R   0.555623 0.187835 0.379221 -0.147073
C108  C     C_R   0.582791 0.160981 0.326594 -0.110328
F1    F     F_    0.410834 0.708120 0.556877 -0.737604
F2    F     F_    0.472620 0.049106 0.557293 -0.671982
F3    F     F_    0.560559 0.972541 0.485761 -0.674668
H1    H     H_    0.759400 0.746859 0.621557 0.137389
H2    H     H_    0.979564 0.556065 0.508175 0.119738
H3    H     H_    0.905835 0.349830 0.525510 0.126221
H4    H     H_    0.331570 0.881711 0.480939 0.178213
H5    H     H_    0.477670 0.983051 0.346139 0.167115
H6    H     H_    0.342659 0.824477 0.282204 0.141689
H7    H     H_    0.262129 0.897001 0.347522 0.142643
H8    H     H_    0.648219 0.601939 0.860158 0.117131
H9    H     H_    0.570924 0.613156 0.764365 0.122734
H10   H     H_    0.695268 0.596341 0.979275 0.123714
H11   H     H_    0.678884 0.658128 0.175316 0.120319
H12   H     H_    0.231480 0.366650 0.484524 0.099118
H13   H     H_    0.635798 0.651935 0.273088 0.116514
H14   H     H_    0.467968 0.348040 0.749151 0.118582
H15   H     H_    0.611162 0.404533 0.090000 0.124044
H16   H     H_    0.516839 0.342758 0.868896 0.123494
H17   H     H_    0.569305 0.397852 0.187217 0.115442
H18   H     H_    0.216452 0.143644 0.158432 0.125981
H19   H     H_    0.095240 0.064983 0.038437 0.123584
H20   H     H_    0.992325 0.959096 0.842174 0.119400
H21   H     H_    0.654715 0.370910 0.458863 0.139056
H22   H     H_    0.881139 0.825071 0.746677 0.134545
H23   H     H_    0.220044 0.295399 0.364732 0.108688
H24   H     H_    0.129869 0.307001 0.238710 0.128863
H25   H     H_    0.824524 0.027472 0.895201 0.130058
H26   H     H_    0.004793 0.225411 0.117044 0.118500
H27   H     H_    0.711777 0.895741 0.793595 0.146768
H28   H     H_    0.440586 0.354357 0.637120 0.098949
H29   H     H_    0.623590 0.643958 0.377932 0.086413
H30   H     H_    0.373921 0.196251 0.213225 0.129871
H31   H     H_    0.396288 0.171574 0.098809 0.114840
H32   H     H_    0.382784 0.253008 0.030745 0.106555
H33   H     H_    0.345574 0.358592 0.076848 0.113625
H34   H     H_    0.557171 0.708749 0.423932 0.148937
H35   H     H_    0.324907 0.385100 0.192292 0.113082
H36   H     H_    0.092300 0.687896 0.574217 0.108903
H37   H     H_    0.209155 0.825227 0.637044 0.112816
H38   H     H_    0.329833 0.867724 0.752553 0.109510
H39   H     H_    0.333033 0.772040 0.805720 0.104941
H40   H     H_    0.216274 0.634133 0.743783 0.112233
H41   H     H_    0.971956 0.480596 0.390960 0.105536
H42   H     H_    0.959469 0.403215 0.265714 0.110407
H43   H     H_    0.975821 0.281037 0.238752 0.101342
H44   H     H_    0.004031 0.235703 0.337817 0.109288
H45   H     H_    0.506698 0.388408 0.258511 0.109687
H46   H     H_    0.016202 0.312099 0.463662 0.111183
H47   H     H_    0.879548 0.654815 0.665229 0.118048
H48   H     H_    0.995033 0.785301 0.701847 0.114986
H49   H     H_    0.985941 0.853994 0.620313 0.105396
H50   H     H_    0.861120 0.790760 0.500592 0.113898
H51   H     H_    0.745951 0.659062 0.461904 0.115644
H52   H     H_    0.560055 0.167598 0.422478 0.133367
H53   H     H_    0.605319 0.119010 0.328417 0.116960
H54   H     H_    0.603555 0.168778 0.232022 0.102837
H55   H     H_    0.554928 0.267389 0.229922 0.108893
H56   H     H_    0.360130 0.622925 0.611573 0.150427
H57   H     H_    0.506447 0.314042 0.322206 0.124334
H58   H     H_    0.726753 0.785423 0.864876 0.123388
H59   H     H_    0.672877 0.829135 0.953438 0.109774
H60   H     H_    0.535334 0.813038 0.903942 0.100907
H61   H     H_    0.451594 0.753221 0.765095 0.120270
H62   H     H_    0.505098 0.710403 0.676261 0.146208
H63   H     H_    0.035234 0.564536 0.713290 0.120338
H64   H     H_    0.053109 0.423469 0.661047 0.130755
H65   H     H_    0.381355 0.247974 0.516562 0.105867
N1    N     N_R   0.652850 0.649780 0.604930 -0.046471
N2    N     N_2   0.618497 0.466570 0.002972 -0.105844
N3    N     N_2   0.984998 0.067343 0.943730 -0.103571
N4    N     N_R   0.456500 0.342990 0.499770 -0.048087
N5    N     N_2   0.970819 0.094063 0.998109 -0.105887
N6    N     N_R   0.494340 0.533260 0.644920 -0.045704
N7    N     N_R   0.615020 0.459520 0.459780 -0.054118
N8    N     N_R   0.452560 0.449470 0.604910 -0.039619
N9    N     N_R   0.656790 0.543300 0.499790 -0.060715
N10   N     N_R   0.501270 0.345760 0.459770 -0.061208
N11   N     N_R   0.608080 0.647010 0.644930 -0.062828
N12   N     N_R   0.343210 0.456700 0.500210 -0.046481
N13   N     N_R   0.547440 0.550530 0.395090 -0.033899
N14   N     N_R   0.498730 0.654240 0.540230 -0.122412
N15   N     N_R   0.391920 0.352990 0.355070 -0.064045
N16   N     N_R   0.347150 0.350220 0.395070 -0.044024
N17   N     N_R   0.543500 0.657010 0.500230 -0.070092
N18   N     N_R   0.505660 0.466740 0.355080 -0.046519
N19   N     N_R   0.384980 0.540480 0.540220 -0.059265
N20   N     N_2   0.652587 0.534746 0.058592 -0.106300
Ni1   Ni    Ni4+2 0.599250 0.599260 0.500010 0.202934
Ni2   Ni    Ni4+2 0.400750 0.400740 0.499990 0.202039
Ni3   Ni    Ni4+2 0.496570 0.592910 0.591740 0.218019
Ni4   Ni    Ni4+2 0.503430 0.407090 0.408260 0.204788

loop_
_geom_bond_atom_site_label_1
_geom_bond_atom_site_label_2
_ccdc_geom_bond_type
C8    C9    A    
C48   C55   A    
C14   N19   A    
C24   H3    S    
C101  C102  A    
C54   N13   A    
C89   H37   S    
C41   C42   S    
C95   C96   A    
C52   N20   S    
C24   C27   S    
C82   H31   S    
C81   H30   S    
C81   C82   A    
C90   C91   A    
C7    C8    A    
C39   C41   S    
C21   C36   S    
C20   C30   S    
C52   C53   A    
C2    H34   S    
C40   C46   S    
C108  H53   S    
C6    C11   A    
C43   C61   A    
C100  C105  A    
C80   C85   A    
C19   C24   S    
C60   H14   S    
C24   C26   S    
C72   N5    S    
C80   C87   S    
C53   H11   S    
N7    N9    A    
C1    H1    S    
C62   H16   S    
C86   C88   A    
C103  H49   S    
C6    C78   S    
C27   C29   S    
C106  C107  A    
C84   H33   S    
C94   H41   S    
C37   N7    A    
C21   C73   A    
C70   H19   S    
C51   C52   A    
C56   C57   A    
C60   C62   A    
C34   C35   S    
C5    H57   S    
C29   H2    S    
C103  C104  A    
N14   N17   A    
C68   C69   A    
C13   H65   S    
C1    N1    A    
N13   N18   A    
N18   Ni4   S    
C63   C69   A    
N12   N19   A    
C56   C58   A    
C76   F1    S    
C23   C33   T    
C34   C42   S    
C17   C76   A    
C107  C108  A    
C36   C46   T    
C70   C71   A    
N16   Ni2   S    
C30   C86   S    
C9    C10   A    
C93   C99   A    
C40   C44   S    
C57   H8    S    
C88   C89   A    
C25   C32   A    
C48   C50   A    
C66   C67   A    
C65   N12   A    
C59   C60   A    
C18   C74   S    
N1    Ni1   S    
C2    C17   A    
N10   Ni4   S    
C65   H12   S    
C102  C103  A    
C15   C48   S    
C12   H45   S    
C90   H38   S    
C104  C105  A    
C97   C99   A    
C8    H59   S    
N14   Ni3   S    
C73   N10   A    
N19   Ni3   S    
C5    C106  A    
C53   C55   A    
C96   H43   S    
C11   H62   S    
C74   C75   A    
N6    Ni3   S    
C34   C39   S    
C15   C54   A    
C76   N14   A    
C85   H35   S    
C98   N16   A    
C22   C31   T    
C91   C92   A    
C78   C79   A    
C54   H29   S    
C63   C79   S    
C34   H4    S    
N2    N20   D    
C39   H7    S    
C67   C68   A    
N11   Ni3   S    
C95   H42   S    
C42   C45   S    
C64   C66   A    
C37   C43   A    
C68   H20   S    
C7    H58   S    
C29   C30   S    
C71   H18   S    
C49   N8    A    
N4    Ni2   S    
C83   C84   A    
C12   C15   A    
N12   Ni2   S    
C96   C97   A    
C92   H40   S    
C61   N9    A    
C50   C51   A    
C38   C47   T    
C13   C21   A    
C58   N2    S    
C93   C94   A    
C84   C85   A    
C19   C28   S    
C75   C77   A    
C71   C74   A    
C35   F2    S    
N4    N10   A    
C58   C62   A    
C66   H25   S    
C107  H52   S    
C101  H47   S    
C16   C23   S    
N8    Ni2   S    
C99   H46   S    
C1    C79   A    
C41   C44   S    
C14   C16   A    
C27   C93   S    
C61   C100  S    
C50   H17   S    
C3    C4    A    
C35   C45   S    
C25   H9    S    
C104  H50   S    
C25   N6    A    
C3    H54   S    
C87   N15   A    
N13   Ni1   S    
N15   N16   A    
C9    H60   S    
C55   H13   S    
C69   H22   S    
N6    N8    A    
C51   H15   S    
C12   N18   A    
C44   C45   S    
N7    Ni4   S    
C77   H26   S    
C80   C81   A    
C102  H48   S    
C28   C33   S    
C72   C77   A    
C70   C72   A    
C45   F3    S    
C6    C7    A    
C16   C65   A    
C3    C108  A    
C13   N4    A    
C98   H23   S    
C18   C87   A    
N1    N11   A    
C37   H21   S    
C2    N17   A    
C41   H6    S    
C56   H10   S    
C19   C20   S    
C49   H28   S    
C91   H39   S    
C14   H56   S    
N15   Ni4   S    
C67   N3    S    
C83   H32   S    
C73   C106  S    
C20   C26   S    
N17   Ni1   S    
C4    C5    A    
C28   C30   S    
C100  C101  A    
C88   H36   S    
C4    H55   S    
C35   C40   S    
C75   H24   S    
C42   C47   S    
C97   H44   S    
C94   C95   A    
C20   H63   S    
C32   C49   A    
C57   C59   A    
C10   C11   A    
C63   C64   A    
C39   C40   S    
C26   C31   S    
C17   C38   S    
C44   H5    S    
C26   C29   S    
C82   C83   A    
C19   H64   S    
C27   C28   S    
C105  H51   S    
C86   C92   A    
C78   N11   A    
C18   C98   A    
C32   C59   S    
N9    Ni1   S    
C89   C90   A    
C10   H61   S    
C22   C43   S    
C64   H27   S    
N3    N5    D    
