data_mof_unit_57021.cif
_audit_creation_date              2012-12-10T17:21:10-0500
_audit_creation_method            fapswitch 2.2
_symmetry_space_group_name_H-M    P1
_symmetry_Int_Tables_number       1
_space_group_crystal_system       triclinic
_cell_length_a                    10.116995
_cell_length_b                    10.789368
_cell_length_c                    10.890199
_cell_angle_alpha                 90.282987
_cell_angle_beta                  96.005623
_cell_angle_gamma                 80.762261
_cell_volume                      1166.78871557

loop_
_atom_site_label
_atom_site_type_symbol
_atom_type_description
_atom_site_fract_x
_atom_site_fract_y
_atom_site_fract_z
_atom_type_partial_charge
C1    C     C_R   0.443154 0.513792 0.267093 0.897683
C2    C     C_3   0.498443 0.879094 0.496327 -0.198057
C3    C     C_3   0.499784 0.925931 0.640020 0.215278
C4    C     C_3   0.366253 0.948787 0.406835 0.233978
C5    C     C_2   0.411320 0.522523 0.133407 -0.073159
C6    C     C_2   0.515497 0.527105 0.065790 0.454817
C7    C     C_2   0.594301 0.510815 0.861803 0.146160
C8    C     C_2   0.517266 0.471833 0.942614 0.301348
C9    C     C_2   0.077104 0.475936 0.509539 -0.078993
C10   C     C_2   0.929005 0.494404 0.525186 0.615750
C11   C     C_R   0.499889 0.257749 0.499859 1.021684
C12   C     C_R   0.557613 0.493234 0.731951 0.817852
C13   C     C_R   0.499023 0.742323 0.496732 0.938957
C14   C     C_3   0.642269 0.051813 0.461186 0.697755
C15   C     C_3   0.636474 0.907560 0.443607 0.426576
C16   C     C_3   0.483450 0.076508 0.638689 0.483359
C17   C     C_3   0.384373 0.091088 0.394797 0.672629
C18   C     C_3   0.499298 0.121096 0.499619 -0.272313
H1    H     H_    0.120271 0.395019 0.459900 0.127927
N1    N     N_2   0.157300 0.551950 0.551120 0.048519
N2    N     N_2   0.842730 0.448000 0.448950 -0.083778
O1    O     O_R   0.568940 0.489540 0.307530 -0.581938
O2    O     O_R   0.348880 0.522880 0.340350 -0.619408
O3    O     O_R   0.610030 0.298130 0.483570 -0.572947
O4    O     O_R   0.389960 0.331470 0.516390 -0.649206
O5    O     O_R   0.651120 0.477120 0.659650 -0.573031
O6    O     O_R   0.431060 0.510460 0.692470 -0.612665
O7    O     O_R   0.610040 0.668530 0.483610 -0.527504
O8    O     O_R   0.389970 0.701870 0.516430 -0.653697
Zn1   Zn    Zn3+2 0.646940 0.477740 0.478080 1.040535
Zn2   Zn    Zn3+2 0.353060 0.522260 0.521920 0.962789
O9    O     O_3   0.746167 0.066175 0.556022 -0.741879
H2    H     H_    0.797765 0.131911 0.533299 0.362301
C19   C     C_3   0.223883 0.941277 0.450395 -0.798591
H3    H     H_    0.141735 0.984517 0.380276 0.246895
H4    H     H_    0.202836 0.845171 0.461839 0.273054
H5    H     H_    0.197809 0.996036 0.530222 0.201071
C20   C     C_3   0.353880 0.141458 0.696689 -0.915024
H6    H     H_    0.340417 0.244741 0.693026 0.277814
H7    H     H_    0.258613 0.112410 0.662781 0.209863
H8    H     H_    0.363591 0.120706 0.797225 0.249497
C21   C     C_3   0.394881 0.873639 0.715144 -0.845589
H9    H     H_    0.420751 0.770378 0.729219 0.251036
H10   H     H_    0.397542 0.911623 0.810142 0.237079
H11   H     H_    0.289448 0.891283 0.678022 0.241165
O10   O     O_3   0.439745 0.378506 0.914113 -0.789408
H12   H     H_    0.481430 0.322922 0.851309 0.341007
O11   O     O_3   0.628245 0.572973 0.118995 -0.734317
H13   H     H_    0.708313 0.511242 0.103097 0.364786
O12   O     O_3   0.688670 0.587201 0.898132 -0.771674
H14   H     H_    0.741119 0.598369 0.828410 0.363431
C22   C     C_3   0.270531 0.510369 0.078527 -0.819377
H15   H     H_    0.195949 0.574410 0.126638 0.235052
H16   H     H_    0.252809 0.537790 0.979315 0.274854
H17   H     H_    0.252802 0.412383 0.090177 0.274824
O13   O     O_3   0.880365 0.560365 0.624102 -0.693125
H18   H     H_    0.953555 0.551912 0.692941 0.343437
C23   C     C_3   0.885286 0.369806 0.347088 -0.740568
H19   H     H_    0.795626 0.342839 0.292787 0.270883
H20   H     H_    0.938118 0.421853 0.284917 0.213369
H21   H     H_    0.950883 0.281937 0.382342 0.201426
O14   O     O_3   0.672234 0.105729 0.350745 -0.786143
H22   H     H_    0.766648 0.070936 0.337418 0.324907
O15   O     O_3   0.101784 0.661313 0.597129 -0.682558
H23   H     H_    0.178857 0.703634 0.625922 0.363734
C24   C     C_3   0.652407 0.864097 0.307210 -0.787732
H24   H     H_    0.760246 0.842313 0.290944 0.228391
H25   H     H_    0.611223 0.776520 0.285513 0.264887
H26   H     H_    0.610719 0.936553 0.236351 0.272474
O16   O     O_3   0.750544 0.837348 0.512290 -0.687834
H27   H     H_    0.834412 0.860754 0.485652 0.369501
O17   O     O_3   0.589630 0.117493 0.715734 -0.733357
H28   H     H_    0.584820 0.094322 0.803133 0.345508
C25   C     C_3   0.634300 0.867581 0.720243 -0.618812
H29   H     H_    0.722406 0.912681 0.707652 0.316367
H30   H     H_    0.625914 0.876081 0.821119 0.207545
H31   H     H_    0.660620 0.766047 0.702450 0.252504
O18   O     O_3   0.259586 0.172182 0.395625 -0.775142
H32   H     H_    0.235388 0.183856 0.480202 0.326077
O19   O     O_3   0.426243 0.110705 0.277900 -0.727141
H33   H     H_    0.420448 0.202545 0.264479 0.366632
C26   C     C_3   0.347857 0.885802 0.275872 -0.725258
H34   H     H_    0.415861 0.902359 0.208431 0.249933
H35   H     H_    0.350920 0.783045 0.284195 0.201936
H36   H     H_    0.249240 0.923640 0.223856 0.243388

loop_
_geom_bond_atom_site_label_1
_geom_bond_atom_site_label_2
_ccdc_geom_bond_type
O4    Zn2   S    
C24   H25   S    
C11   C18   S    
C19   H5    S    
C14   C18   S    
C16   O17   S    
C7    C8    D    
C3    C21   S    
C25   H30   S    
C1    C5    S    
C13   O8    A    
C5    C6    D    
C24   H26   S    
C11   O4    A    
C23   H20   S    
C14   O14   S    
C11   O3    A    
O13   H18   S    
C19   H3    S    
C2    C13   S    
C3    C25   S    
C9    H1    S    
C25   H31   S    
C13   O7    A    
O16   H27   S    
C10   O13   S    
C9    C10   S    
C22   H17   S    
C23   H21   S    
C24   H24   S    
C1    O1    A    
C21   H10   S    
C22   H16   S    
C17   C18   S    
C8    O10   S    
C10   N2    D    
C7    C12   S    
C4    C19   S    
C25   H29   S    
C12   O6    A    
O6    Zn2   S    
C20   H8    S    
O18   H32   S    
O17   H28   S    
C6    C8    S    
C23   H19   S    
C15   C24   S    
C17   O19   S    
C12   O5    A    
C21   H11   S    
O2    Zn2   S    
N1    O15   S    
C2    C4    S    
O14   H22   S    
C9    N1    D    
O12   H14   S    
C5    C22   S    
C2    C15   S    
C6    O11   S    
C4    C17   S    
O11   H13   S    
O5    Zn1   S    
C26   H35   S    
C21   H9    S    
C22   H15   S    
C15   O16   S    
O10   H12   S    
O1    Zn1   S    
C7    O12   S    
C14   O9    S    
O19   H33   S    
C1    O2    A    
C26   H36   S    
N2    Zn1   S    
O15   H23   S    
O7    Zn1   S    
C2    C3    S    
N2    C23   S    
O8    Zn2   S    
O9    H2    S    
C20   H7    S    
C20   H6    S    
C17   O18   S    
C19   H4    S    
O3    Zn1   S    
C4    C26   S    
C16   C18   S    
C26   H34   S    
C14   C15   S    
C3    C16   S    
C16   C20   S    
N1    Zn2   S    
