data_mof_unit_24434.cif
_audit_creation_date              2012-12-10T16:51:12-0500
_audit_creation_method            fapswitch 2.2
_symmetry_space_group_name_H-M    P1
_symmetry_Int_Tables_number       1
_space_group_crystal_system       triclinic
_cell_length_a                    27.696178
_cell_length_b                    8.745995
_cell_length_c                    7.410936
_cell_angle_alpha                 102.828672
_cell_angle_beta                  94.27216
_cell_angle_gamma                 91.671481
_cell_volume                      1743.55251159

loop_
_atom_site_label
_atom_site_type_symbol
_atom_type_description
_atom_site_fract_x
_atom_site_fract_y
_atom_site_fract_z
_atom_type_partial_charge
C1    C     C_R   0.498422 0.200193 0.454332 0.862375
C2    C     C_R   0.501578 0.799807 0.545668 0.862375
C3    C     C_R   0.102190 0.477271 0.538844 -0.077662
C4    C     C_R   0.897810 0.522730 0.461156 -0.077662
C5    C     C_R   0.123994 0.333882 0.467566 -0.080711
C6    C     C_R   0.876006 0.666118 0.532435 -0.080712
C7    C     C_R   0.093702 0.198634 0.390444 0.207152
C8    C     C_R   0.906297 0.801367 0.609557 0.207152
C9    C     C_R   0.131788 0.610931 0.626822 -0.017177
C10   C     C_R   0.868212 0.389069 0.373178 -0.017178
C11   C     C_R   0.354240 0.490295 0.509243 -0.087484
C12   C     C_R   0.645760 0.509705 0.490757 -0.087484
C13   C     C_R   0.970129 0.366297 0.407995 0.063798
C14   C     C_R   0.029871 0.633703 0.592006 0.063797
C15   C     C_R   0.978783 0.646021 0.567182 0.009108
C16   C     C_R   0.021217 0.353979 0.432820 0.009108
C17   C     C_R   0.949094 0.511793 0.478764 0.075836
C18   C     C_R   0.050906 0.488208 0.521236 0.075836
C19   C     C_R   0.939131 0.238216 0.311130 -0.182604
C20   C     C_R   0.060869 0.761785 0.688871 -0.182604
C21   C     C_R   0.889308 0.249387 0.295585 -0.087179
C22   C     C_R   0.110692 0.750613 0.704415 -0.087178
C23   C     C_R   0.407325 0.499547 0.502398 0.822700
C24   C     C_R   0.592675 0.500453 0.497602 0.822701
C25   C     C_R   0.043625 0.210129 0.375721 -0.240579
C26   C     C_R   0.956375 0.789871 0.624281 -0.240579
C27   C     C_2   0.492244 0.034580 0.430989 -0.077886
C28   C     C_2   0.507756 0.965420 0.569011 -0.077886
C29   C     C_R   0.175211 0.333564 0.474644 0.574089
C30   C     C_R   0.824789 0.666436 0.525357 0.574089
C31   C     C_R   0.182206 0.603132 0.633070 0.567665
C32   C     C_R   0.817794 0.396869 0.366930 0.567664
C33   C     C_R   0.272054 0.526855 0.392601 -0.121941
C34   C     C_R   0.727946 0.473145 0.607399 -0.121941
C35   C     C_R   0.321837 0.537262 0.376932 0.134314
C36   C     C_R   0.678163 0.462738 0.623068 0.134314
C37   C     C_R   0.335265 0.431355 0.652721 -0.201016
C38   C     C_R   0.664735 0.568645 0.347278 -0.201016
C39   C     C_R   0.285383 0.421329 0.666525 -0.061630
C40   C     C_R   0.714616 0.578671 0.333475 -0.061630
C41   C     C_R   0.253805 0.470158 0.537017 0.303884
C42   C     C_R   0.746195 0.529842 0.462983 0.303884
Cu1   Cu    Cu3+1 0.505380 0.517380 0.684380 1.031668
Cu2   Cu    Cu3+1 0.494620 0.482620 0.315620 1.031668
H1    H     H_    0.359109 0.392232 0.754309 0.177975
H2    H     H_    0.640891 0.607768 0.245691 0.177975
H3    H     H_    0.462293 0.379476 0.947984 0.237431
H4    H     H_    0.537707 0.620524 0.052016 0.237431
H5    H     H_    0.271322 0.377163 0.778596 0.162877
H6    H     H_    0.728678 0.622836 0.221404 0.162877
H7    H     H_    0.752816 0.435033 0.706662 0.167197
H8    H     H_    0.247184 0.564967 0.293339 0.167197
H9    H     H_    0.867261 0.146537 0.223211 0.207707
H10   H     H_    0.132739 0.853464 0.776789 0.207707
H11   H     H_    0.951926 0.126756 0.243429 0.150471
H12   H     H_    0.048074 0.873244 0.756570 0.150471
H13   H     H_    0.023086 0.101512 0.320435 0.159990
H14   H     H_    0.976913 0.898489 0.679567 0.159990
N1    N     N_R   0.202642 0.467375 0.553442 -0.473457
N2    N     N_R   0.797358 0.532625 0.446559 -0.473457
N3    N     N_2   0.486510 0.456430 0.038510 -0.182753
N4    N     N_2   0.513490 0.543570 0.961490 -0.182753
O1    O     O_R   0.503500 0.286120 0.619780 -0.577801
O2    O     O_R   0.496500 0.713880 0.380220 -0.577801
O3    O     O_R   0.494410 0.256780 0.308360 -0.551878
O4    O     O_R   0.505590 0.743220 0.691640 -0.551878
O5    O     O_R   0.434810 0.514700 0.655690 -0.587686
O6    O     O_R   0.565190 0.485300 0.344310 -0.587685
O7    O     O_R   0.425720 0.485350 0.344280 -0.554674
O8    O     O_R   0.574280 0.514650 0.655720 -0.554674
O9    O     O_2   0.197841 0.203369 0.399603 -0.470365
O10   O     O_2   0.802158 0.796631 0.600398 -0.470365
O11   O     O_2   0.789215 0.268758 0.285363 -0.489599
O12   O     O_2   0.210785 0.731242 0.714636 -0.489599
I1    I     I_    0.116908 0.965555 0.293922 -0.300157
I2    I     I_    0.883092 0.034445 0.706080 -0.300157
I3    I     I_    0.657067 0.366023 0.844797 -0.270937
I4    I     I_    0.342933 0.633977 0.155203 -0.270937
I5    I     I_    0.451528 0.924186 0.172931 -0.221059
I6    I     I_    0.548472 0.075814 0.827069 -0.221059

loop_
_geom_bond_atom_site_label_1
_geom_bond_atom_site_label_2
_ccdc_geom_bond_type
C38   C40   A    
C8    C26   A    
C14   C18   A    
C34   C42   A    
C20   H12   S    
Cu1   O1    S    
C39   C41   A    
Cu2   O2    S    
C33   H8    S    
C34   H7    S    
C19   C21   A    
C27   I5    S    
C36   I3    S    
C9    C22   A    
C23   O5    A    
C8    I2    S    
C3    C18   A    
C31   N1    A    
C11   C37   A    
C23   O7    A    
C29   N1    A    
C30   N2    A    
C1    O3    A    
C12   C36   A    
C40   C42   A    
C22   H10   S    
Cu2   O3    S    
C25   H13   S    
C1    O1    A    
C2    O2    A    
C5    C29   A    
C10   C21   A    
C13   C19   A    
C24   O8    A    
C14   C20   A    
C41   N1    S    
C4    C6    A    
C42   N2    S    
C32   O11   S    
C5    C7    A    
C24   O6    A    
C15   C26   A    
C6    C8    A    
C3    C5    A    
Cu1   Cu2   S    
C3    C9    A    
H4    N4    S    
Cu2   O7    S    
C26   H14   S    
C4    C17   A    
Cu1   O5    S    
C39   H5    S    
C20   C22   A    
Cu1   O8    S    
Cu2   O6    S    
C32   N2    A    
C37   H1    S    
C19   H11   S    
C16   C25   A    
C15   C17   A    
C6    C30   A    
C30   O10   S    
C2    O4    A    
H3    N3    S    
C7    I1    S    
Cu2   N3    S    
C12   C24   S    
C35   I4    S    
C7    C25   A    
C13   C17   A    
C33   C41   A    
C11   C35   A    
C37   C39   A    
C21   H9    S    
Cu1   O4    S    
C40   H6    S    
C11   C23   S    
C33   C35   A    
C34   C36   A    
C12   C38   A    
N3    N4    D    
C28   I6    S    
C38   H2    S    
C9    C31   A    
C10   C32   A    
C16   C18   A    
C31   O12   S    
C13   C16   A    
C27   C28   D    
C1    C27   S    
C14   C15   A    
C2    C28   S    
C4    C10   A    
Cu1   N4    S    
C29   O9    S    
