data_mof_unit_63874.cif
_audit_creation_date              2012-12-10T17:48:05-0500
_audit_creation_method            fapswitch 2.2
_symmetry_space_group_name_H-M    P1
_symmetry_Int_Tables_number       1
_space_group_crystal_system       monoclinic
_cell_length_a                    25.907271
_cell_length_b                    27.725805
_cell_length_c                    27.722418
_cell_angle_alpha                 90.0
_cell_angle_beta                  90.022919
_cell_angle_gamma                 90.0
_cell_volume                      19913.009699

loop_
_atom_site_label
_atom_site_type_symbol
_atom_type_description
_atom_site_fract_x
_atom_site_fract_y
_atom_site_fract_z
_atom_type_partial_charge
C1    C     C_R   0.391546 0.000090 0.249765 0.960090
C2    C     C_R   0.391533 0.000083 0.750241 0.948080
C3    C     C_R   0.608467 0.000083 0.249759 0.948079
C4    C     C_R   0.608454 0.000090 0.750235 0.960091
C5    C     C_R   0.891546 0.500090 0.249765 0.960091
C6    C     C_R   0.891533 0.500083 0.750241 0.948079
C7    C     C_R   0.108467 0.500083 0.249759 0.948080
C8    C     C_R   0.108454 0.500090 0.750235 0.960090
C9    C     C_R   0.891546 0.000090 0.749765 0.960090
C10   C     C_R   0.891533 0.000083 0.250241 0.948080
C11   C     C_R   0.108467 0.000083 0.749759 0.948080
C12   C     C_R   0.108454 0.000090 0.250235 0.960091
C13   C     C_R   0.391546 0.500090 0.749765 0.960091
C14   C     C_R   0.391533 0.500083 0.250241 0.948080
C15   C     C_R   0.608467 0.500083 0.749759 0.948080
C16   C     C_R   0.608454 0.500090 0.250235 0.960090
C17   C     C_3   0.030118 0.053091 0.267123 0.140823
C18   C     C_3   0.030782 0.051313 0.727044 0.082233
C19   C     C_3   0.969218 0.051313 0.272956 0.082235
C20   C     C_3   0.969881 0.053091 0.732877 0.140825
C21   C     C_3   0.530118 0.553091 0.267123 0.140825
C22   C     C_3   0.530782 0.551313 0.727044 0.082235
C23   C     C_3   0.469218 0.551313 0.272956 0.082232
C24   C     C_3   0.469881 0.553091 0.732877 0.140822
C25   C     C_3   0.530118 0.053091 0.767123 0.140823
C26   C     C_3   0.530782 0.051313 0.227044 0.082232
C27   C     C_3   0.469218 0.051313 0.772956 0.082234
C28   C     C_3   0.469882 0.053091 0.232877 0.140825
C29   C     C_3   0.030118 0.553091 0.767123 0.140824
C30   C     C_3   0.030782 0.551313 0.227044 0.082234
C31   C     C_3   0.969218 0.551313 0.772956 0.082234
C32   C     C_3   0.969881 0.553091 0.232877 0.140824
C33   C     C_3   0.029578 0.990106 0.201174 -0.471722
C34   C     C_3   0.029651 0.994523 0.799365 -0.453446
C35   C     C_3   0.970349 0.994523 0.200635 -0.453446
C36   C     C_3   0.970422 0.990106 0.798826 -0.471723
C37   C     C_3   0.529578 0.490106 0.201174 -0.471722
C38   C     C_3   0.529651 0.494523 0.799365 -0.453447
C39   C     C_3   0.470349 0.494523 0.200635 -0.453448
C40   C     C_3   0.470421 0.490106 0.798826 -0.471724
C41   C     C_3   0.529578 0.990106 0.701174 -0.471722
C42   C     C_3   0.529651 0.994523 0.299364 -0.453446
C43   C     C_3   0.470349 0.994523 0.700635 -0.453448
C44   C     C_3   0.470422 0.990106 0.298826 -0.471723
C45   C     C_3   0.029578 0.490106 0.701174 -0.471722
C46   C     C_3   0.029651 0.494523 0.299364 -0.453448
C47   C     C_3   0.970349 0.494523 0.700635 -0.453447
C48   C     C_3   0.970422 0.490106 0.298826 -0.471722
C49   C     C_3   0.050867 0.001741 0.252192 -0.206472
C50   C     C_3   0.050939 0.001717 0.747414 -0.216212
C51   C     C_3   0.949061 0.001717 0.252585 -0.216213
C52   C     C_3   0.949133 0.001741 0.747808 -0.206473
C53   C     C_3   0.550867 0.501741 0.252192 -0.206472
C54   C     C_3   0.550939 0.501717 0.747414 -0.216214
C55   C     C_3   0.449061 0.501717 0.252585 -0.216212
C56   C     C_3   0.449133 0.501741 0.747808 -0.206473
C57   C     C_3   0.550867 0.001741 0.752192 -0.206473
C58   C     C_3   0.550939 0.001717 0.247415 -0.216213
C59   C     C_3   0.449061 0.001717 0.752585 -0.216213
C60   C     C_3   0.449133 0.001741 0.247808 -0.206473
C61   C     C_3   0.050867 0.501741 0.752192 -0.206472
C62   C     C_3   0.050939 0.501717 0.247415 -0.216213
C63   C     C_3   0.949061 0.501717 0.752585 -0.216213
C64   C     C_3   0.949133 0.501741 0.247808 -0.206473
C65   C     C_1   0.250077 0.000068 0.068979 -0.121453
C66   C     C_1   0.250094 0.000046 0.931021 -0.116588
C67   C     C_1   0.749906 0.000046 0.068979 -0.116588
C68   C     C_1   0.749923 0.000068 0.931021 -0.121453
C69   C     C_1   0.750077 0.500068 0.068979 -0.121452
C70   C     C_1   0.750094 0.500046 0.931021 -0.116587
C71   C     C_1   0.249906 0.500046 0.068979 -0.116588
C72   C     C_1   0.249923 0.500068 0.931021 -0.121453
C73   C     C_1   0.750077 0.000068 0.568979 -0.121453
C74   C     C_1   0.750094 0.000046 0.431021 -0.116588
C75   C     C_1   0.249906 0.000046 0.568979 -0.116587
C76   C     C_1   0.249923 0.000068 0.431021 -0.121453
C77   C     C_1   0.250077 0.500068 0.568979 -0.121453
C78   C     C_1   0.250094 0.500046 0.431021 -0.116588
C79   C     C_1   0.749906 0.500046 0.568979 -0.116588
C80   C     C_1   0.749923 0.500068 0.431021 -0.121453
C81   C     C_1   0.250112 0.000082 0.025477 0.021861
C82   C     C_1   0.250121 0.000071 0.974523 0.023467
C83   C     C_1   0.749879 0.000071 0.025476 0.023467
C84   C     C_1   0.749888 0.000082 0.974523 0.021861
C85   C     C_1   0.750112 0.500082 0.025477 0.021861
C86   C     C_1   0.750121 0.500071 0.974523 0.023467
C87   C     C_1   0.249879 0.500071 0.025476 0.023467
C88   C     C_1   0.249888 0.500082 0.974523 0.021861
C89   C     C_1   0.750112 0.000082 0.525477 0.021861
C90   C     C_1   0.750121 0.000071 0.474523 0.023467
C91   C     C_1   0.249879 0.000071 0.525477 0.023467
C92   C     C_1   0.249888 0.000082 0.474523 0.021861
C93   C     C_1   0.250112 0.500082 0.525477 0.021861
C94   C     C_1   0.250121 0.500071 0.474523 0.023467
C95   C     C_1   0.749879 0.500071 0.525477 0.023466
C96   C     C_1   0.749888 0.500082 0.474523 0.021861
C97   C     C_R   0.249970 0.000024 0.379233 0.822215
C98   C     C_R   0.249965 0.000012 0.620766 0.844142
C99   C     C_R   0.750035 0.000012 0.379233 0.844142
C100  C     C_R   0.750030 0.000024 0.620767 0.822213
C101  C     C_R   0.749970 0.500024 0.379233 0.822214
C102  C     C_R   0.749965 0.500012 0.620766 0.844142
C103  C     C_R   0.250035 0.500012 0.379233 0.844142
C104  C     C_R   0.250030 0.500024 0.620767 0.822215
C105  C     C_R   0.749970 0.000024 0.879233 0.822215
C106  C     C_R   0.749965 0.000012 0.120766 0.844142
C107  C     C_R   0.250035 0.000012 0.879233 0.844142
C108  C     C_R   0.250030 0.000024 0.120767 0.822214
C109  C     C_R   0.249970 0.500024 0.879233 0.822214
C110  C     C_R   0.249965 0.500012 0.120766 0.844142
C111  C     C_R   0.750035 0.500012 0.879233 0.844142
C112  C     C_R   0.750030 0.500024 0.120767 0.822215
C113  C     C_R   0.250000 0.129234 0.250000 0.898082
C114  C     C_R   0.250000 0.129230 0.750000 0.863382
C115  C     C_R   0.750000 0.129230 0.250000 0.863382
C116  C     C_R   0.750000 0.129234 0.750000 0.898082
C117  C     C_R   0.750000 0.629234 0.250000 0.898082
C118  C     C_R   0.750000 0.629230 0.750000 0.863383
C119  C     C_R   0.250000 0.629230 0.250000 0.863383
C120  C     C_R   0.250000 0.629234 0.750000 0.898082
C121  C     C_R   0.250000 0.870737 0.250000 0.815034
C122  C     C_R   0.250000 0.870731 0.750000 0.815421
C123  C     C_R   0.750000 0.870731 0.250000 0.815421
C124  C     C_R   0.750000 0.870737 0.750000 0.815034
C125  C     C_R   0.750000 0.370737 0.250000 0.815034
C126  C     C_R   0.750000 0.370731 0.750000 0.815421
C127  C     C_R   0.250000 0.370731 0.250000 0.815421
C128  C     C_R   0.250000 0.370737 0.750000 0.815034
C129  C     C_1   0.250000 0.818953 0.250000 -0.096212
C130  C     C_1   0.250000 0.818947 0.750000 -0.096788
C131  C     C_1   0.750000 0.818947 0.250000 -0.096788
C132  C     C_1   0.750000 0.818953 0.750000 -0.096212
C133  C     C_1   0.750000 0.318953 0.250000 -0.096212
C134  C     C_1   0.750000 0.318947 0.750000 -0.096788
C135  C     C_1   0.250000 0.318947 0.250000 -0.096788
C136  C     C_1   0.250000 0.318953 0.750000 -0.096212
C137  C     C_1   0.250000 0.775455 0.250000 0.036098
C138  C     C_1   0.250000 0.775450 0.750000 0.037685
C139  C     C_1   0.750000 0.775450 0.250000 0.037685
C140  C     C_1   0.750000 0.775455 0.750000 0.036098
C141  C     C_1   0.750000 0.275455 0.250000 0.036098
C142  C     C_1   0.750000 0.275450 0.750000 0.037685
C143  C     C_1   0.250000 0.275450 0.250000 0.037685
C144  C     C_1   0.250000 0.275455 0.750000 0.036098
C145  C     C_1   0.250000 0.724508 0.250000 0.037035
C146  C     C_1   0.250000 0.724504 0.750000 0.041351
C147  C     C_1   0.750000 0.724504 0.250000 0.041351
C148  C     C_1   0.750000 0.724508 0.750000 0.037035
C149  C     C_1   0.750000 0.224508 0.250000 0.037035
C150  C     C_1   0.750000 0.224504 0.750000 0.041351
C151  C     C_1   0.250000 0.224504 0.250000 0.041351
C152  C     C_1   0.250000 0.224508 0.750000 0.037035
C153  C     C_1   0.250000 0.681011 0.250000 -0.111425
C154  C     C_1   0.250000 0.681009 0.750000 -0.101828
C155  C     C_1   0.750000 0.681009 0.250000 -0.101828
C156  C     C_1   0.750000 0.681011 0.750000 -0.111425
C157  C     C_1   0.750000 0.181011 0.250000 -0.111425
C158  C     C_1   0.750000 0.181009 0.750000 -0.101827
C159  C     C_1   0.250000 0.181009 0.250000 -0.101827
C160  C     C_1   0.250000 0.181011 0.750000 -0.111425
C161  C     C_3   0.029489 0.962769 0.287639 0.454209
C162  C     C_3   0.029768 0.960082 0.715333 0.481156
C163  C     C_3   0.970232 0.960082 0.284667 0.481157
C164  C     C_3   0.970511 0.962769 0.712361 0.454210
C165  C     C_3   0.529489 0.462769 0.287639 0.454210
C166  C     C_3   0.529768 0.460082 0.715333 0.481157
C167  C     C_3   0.470232 0.460083 0.284667 0.481156
C168  C     C_3   0.470511 0.462769 0.712361 0.454210
C169  C     C_3   0.529489 0.962769 0.787639 0.454209
C170  C     C_3   0.529768 0.960082 0.215333 0.481156
C171  C     C_3   0.470232 0.960082 0.784667 0.481158
C172  C     C_3   0.470511 0.962769 0.212361 0.454210
C173  C     C_3   0.029489 0.462769 0.787639 0.454210
C174  C     C_3   0.029768 0.460082 0.215333 0.481158
C175  C     C_3   0.970232 0.460083 0.784667 0.481156
C176  C     C_3   0.970511 0.462769 0.212361 0.454209
H1    H     H_    0.040826 0.971914 0.325136 0.144078
H2    H     H_    0.045917 0.962387 0.678291 0.131234
H3    H     H_    0.954082 0.962387 0.321709 0.131234
H4    H     H_    0.959174 0.971914 0.674864 0.144078
H5    H     H_    0.540826 0.471914 0.325136 0.144078
H6    H     H_    0.545917 0.462387 0.678291 0.131234
H7    H     H_    0.454082 0.462387 0.321709 0.131234
H8    H     H_    0.459174 0.471914 0.674864 0.144078
H9    H     H_    0.540826 0.971914 0.825136 0.144079
H10   H     H_    0.545917 0.962387 0.178291 0.131234
H11   H     H_    0.454082 0.962387 0.821709 0.131234
H12   H     H_    0.459174 0.971914 0.174864 0.144078
H13   H     H_    0.040826 0.471914 0.825136 0.144078
H14   H     H_    0.045917 0.462387 0.178291 0.131234
H15   H     H_    0.954082 0.462387 0.821709 0.131235
H16   H     H_    0.959174 0.471914 0.174864 0.144079
H17   H     H_    0.046072 0.015139 0.173829 0.196434
H18   H     H_    0.040942 0.025645 0.822442 0.196832
H19   H     H_    0.959058 0.025645 0.177558 0.196832
H20   H     H_    0.953928 0.015139 0.826171 0.196434
H21   H     H_    0.546072 0.515139 0.173829 0.196434
H22   H     H_    0.540942 0.525645 0.822442 0.196832
H23   H     H_    0.459058 0.525645 0.177558 0.196832
H24   H     H_    0.453928 0.515139 0.826170 0.196435
H25   H     H_    0.546072 0.015139 0.673829 0.196434
H26   H     H_    0.540942 0.025645 0.322442 0.196832
H27   H     H_    0.459058 0.025645 0.677558 0.196832
H28   H     H_    0.453928 0.015139 0.326170 0.196434
H29   H     H_    0.046072 0.515139 0.673829 0.196434
H30   H     H_    0.040942 0.525645 0.322442 0.196832
H31   H     H_    0.959058 0.525644 0.677558 0.196832
H32   H     H_    0.953928 0.515139 0.326170 0.196434
H33   H     H_    0.040974 0.952935 0.190359 0.254581
H34   H     H_    0.046502 0.961590 0.816103 0.241225
H35   H     H_    0.953498 0.961590 0.183897 0.241225
H36   H     H_    0.959026 0.952935 0.809641 0.254581
H37   H     H_    0.540974 0.452935 0.190359 0.254581
H38   H     H_    0.546502 0.461591 0.816103 0.241225
H39   H     H_    0.453498 0.461590 0.183897 0.241225
H40   H     H_    0.459026 0.452936 0.809641 0.254581
H41   H     H_    0.540974 0.952935 0.690359 0.254581
H42   H     H_    0.546502 0.961590 0.316103 0.241225
H43   H     H_    0.453498 0.961590 0.683897 0.241225
H44   H     H_    0.459026 0.952935 0.309641 0.254581
H45   H     H_    0.040974 0.452935 0.690359 0.254582
H46   H     H_    0.046502 0.461590 0.316103 0.241225
H47   H     H_    0.953498 0.461590 0.683897 0.241225
H48   H     H_    0.959026 0.452935 0.309641 0.254581
H49   H     H_    0.037135 0.076866 0.235394 0.127346
H50   H     H_    0.046757 0.080132 0.750714 0.131950
H51   H     H_    0.953243 0.080132 0.249286 0.131950
H52   H     H_    0.962865 0.076866 0.764606 0.127345
H53   H     H_    0.537135 0.576866 0.235394 0.127345
H54   H     H_    0.546757 0.580132 0.750714 0.131950
H55   H     H_    0.453243 0.580132 0.249286 0.131951
H56   H     H_    0.462865 0.576866 0.764606 0.127345
H57   H     H_    0.537135 0.076866 0.735394 0.127346
H58   H     H_    0.546757 0.080132 0.250714 0.131951
H59   H     H_    0.453243 0.080132 0.749286 0.131951
H60   H     H_    0.462865 0.076866 0.264606 0.127345
H61   H     H_    0.037135 0.576866 0.735394 0.127346
H62   H     H_    0.046757 0.580132 0.250714 0.131951
H63   H     H_    0.953243 0.580132 0.749286 0.131950
H64   H     H_    0.962865 0.576866 0.264606 0.127346
O1    O     O_3   0.250000 0.999990 0.250000 -0.516701
O2    O     O_3   0.250000 0.999990 0.750000 -0.511660
O3    O     O_3   0.750000 0.999990 0.250000 -0.511660
O4    O     O_3   0.750000 0.999990 0.750000 -0.516701
O5    O     O_3   0.750000 0.499990 0.250000 -0.516701
O6    O     O_3   0.750000 0.499990 0.750000 -0.511660
O7    O     O_3   0.250000 0.499990 0.250000 -0.511660
O8    O     O_3   0.250000 0.499990 0.750000 -0.516701
O9    O     O_R   0.366860 0.972110 0.222130 -0.585031
O10   O     O_R   0.366860 0.972110 0.777870 -0.584070
O11   O     O_R   0.633140 0.972110 0.222130 -0.584069
O12   O     O_R   0.633140 0.972110 0.777870 -0.585031
O13   O     O_R   0.866860 0.472110 0.222130 -0.585031
O14   O     O_R   0.866860 0.472110 0.777870 -0.584069
O15   O     O_R   0.133140 0.472110 0.222130 -0.584070
O16   O     O_R   0.133140 0.472110 0.777870 -0.585031
O17   O     O_R   0.866860 0.972110 0.722130 -0.585031
O18   O     O_R   0.866860 0.972110 0.277870 -0.584070
O19   O     O_R   0.133140 0.972110 0.722130 -0.584069
O20   O     O_R   0.133140 0.972110 0.277870 -0.585031
O21   O     O_R   0.366860 0.472110 0.722130 -0.585031
O22   O     O_R   0.366860 0.472110 0.277870 -0.584069
O23   O     O_R   0.633140 0.472110 0.722130 -0.584070
O24   O     O_R   0.633140 0.472110 0.277870 -0.585031
O25   O     O_R   0.280630 0.027850 0.356260 -0.641415
O26   O     O_R   0.280630 0.027850 0.643740 -0.640885
O27   O     O_R   0.719370 0.027850 0.356260 -0.640885
O28   O     O_R   0.719370 0.027850 0.643740 -0.641416
O29   O     O_R   0.780630 0.527850 0.356260 -0.641415
O30   O     O_R   0.780630 0.527850 0.643740 -0.640885
O31   O     O_R   0.219370 0.527850 0.356260 -0.640885
O32   O     O_R   0.219370 0.527850 0.643740 -0.641416
O33   O     O_R   0.780630 0.027850 0.856260 -0.641416
O34   O     O_R   0.780630 0.027850 0.143740 -0.640885
O35   O     O_R   0.219370 0.027850 0.856260 -0.640885
O36   O     O_R   0.219370 0.027850 0.143740 -0.641416
O37   O     O_R   0.280630 0.527850 0.856260 -0.641416
O38   O     O_R   0.280630 0.527850 0.143740 -0.640885
O39   O     O_R   0.719370 0.527850 0.856260 -0.640885
O40   O     O_R   0.719370 0.527850 0.143740 -0.641416
O41   O     O_R   0.280630 0.106260 0.277850 -0.611119
O42   O     O_R   0.280630 0.106260 0.722150 -0.623767
O43   O     O_R   0.719370 0.106260 0.277850 -0.623768
O44   O     O_R   0.719370 0.106260 0.722150 -0.611119
O45   O     O_R   0.780630 0.606260 0.277850 -0.611120
O46   O     O_R   0.780630 0.606260 0.722150 -0.623767
O47   O     O_R   0.219370 0.606260 0.277850 -0.623768
O48   O     O_R   0.219370 0.606260 0.722150 -0.611119
O49   O     O_R   0.780630 0.106260 0.777850 -0.611119
O50   O     O_R   0.780630 0.106260 0.222150 -0.623767
O51   O     O_R   0.219370 0.106260 0.777850 -0.623768
O52   O     O_R   0.219370 0.106260 0.222150 -0.611119
O53   O     O_R   0.280630 0.606260 0.777850 -0.611120
O54   O     O_R   0.280630 0.606260 0.222150 -0.623767
O55   O     O_R   0.719370 0.606260 0.777850 -0.623768
O56   O     O_R   0.719370 0.606260 0.222150 -0.611119
O57   O     O_R   0.280650 0.893700 0.222130 -0.623386
O58   O     O_R   0.280650 0.893700 0.777870 -0.626915
O59   O     O_R   0.719350 0.893700 0.222130 -0.626916
O60   O     O_R   0.719350 0.893700 0.777870 -0.623386
O61   O     O_R   0.780650 0.393700 0.222130 -0.623386
O62   O     O_R   0.780650 0.393700 0.777870 -0.626915
O63   O     O_R   0.219350 0.393700 0.222130 -0.626916
O64   O     O_R   0.219350 0.393700 0.777870 -0.623386
O65   O     O_R   0.780650 0.893700 0.722130 -0.623386
O66   O     O_R   0.780650 0.893700 0.277870 -0.626915
O67   O     O_R   0.219350 0.893700 0.722130 -0.626916
O68   O     O_R   0.219350 0.893700 0.277870 -0.623386
O69   O     O_R   0.280650 0.393700 0.722130 -0.623386
O70   O     O_R   0.280650 0.393700 0.277870 -0.626915
O71   O     O_R   0.719350 0.393700 0.722130 -0.626916
O72   O     O_R   0.719350 0.393700 0.277870 -0.623386
O73   O     O_R   0.219370 0.972130 0.356260 -0.620294
O74   O     O_R   0.219370 0.972130 0.643740 -0.613358
O75   O     O_R   0.780630 0.972130 0.356260 -0.613358
O76   O     O_R   0.780630 0.972130 0.643740 -0.620294
O77   O     O_R   0.719370 0.472130 0.356260 -0.620294
O78   O     O_R   0.719370 0.472130 0.643740 -0.613358
O79   O     O_R   0.280630 0.472130 0.356260 -0.613358
O80   O     O_R   0.280630 0.472130 0.643740 -0.620294
O81   O     O_R   0.719370 0.972130 0.856260 -0.620294
O82   O     O_R   0.719370 0.972130 0.143740 -0.613358
O83   O     O_R   0.280630 0.972130 0.856260 -0.613358
O84   O     O_R   0.280630 0.972130 0.143740 -0.620294
O85   O     O_R   0.219370 0.472130 0.856260 -0.620294
O86   O     O_R   0.219370 0.472130 0.143740 -0.613358
O87   O     O_R   0.780630 0.472130 0.856260 -0.613357
O88   O     O_R   0.780630 0.472130 0.143740 -0.620294
O89   O     O_R   0.366850 0.027840 0.277850 -0.639311
O90   O     O_R   0.366850 0.027840 0.722150 -0.661886
O91   O     O_R   0.633150 0.027840 0.277850 -0.661886
O92   O     O_R   0.633150 0.027840 0.722150 -0.639311
O93   O     O_R   0.866850 0.527840 0.277850 -0.639311
O94   O     O_R   0.866850 0.527840 0.722150 -0.661886
O95   O     O_R   0.133150 0.527840 0.277850 -0.661886
O96   O     O_R   0.133150 0.527840 0.722150 -0.639311
O97   O     O_R   0.866850 0.027840 0.777850 -0.639311
O98   O     O_R   0.866850 0.027840 0.222150 -0.661886
O99   O     O_R   0.133150 0.027840 0.777850 -0.661886
O100  O     O_R   0.133150 0.027840 0.222150 -0.639311
O101  O     O_R   0.366850 0.527840 0.777850 -0.639312
O102  O     O_R   0.366850 0.527840 0.222150 -0.661886
O103  O     O_R   0.633150 0.527840 0.777850 -0.661886
O104  O     O_R   0.633150 0.527840 0.222150 -0.639311
Zn1   Zn    Zn3+2 0.206230 0.960180 0.289800 1.055442
Zn2   Zn    Zn3+2 0.206230 0.960180 0.710200 1.060911
Zn3   Zn    Zn3+2 0.793770 0.960180 0.289800 1.060911
Zn4   Zn    Zn3+2 0.793770 0.960180 0.710200 1.055441
Zn5   Zn    Zn3+2 0.706230 0.460180 0.289800 1.055441
Zn6   Zn    Zn3+2 0.706230 0.460180 0.710200 1.060911
Zn7   Zn    Zn3+2 0.293770 0.460180 0.289800 1.060911
Zn8   Zn    Zn3+2 0.293770 0.460180 0.710200 1.055443
Zn9   Zn    Zn3+2 0.706230 0.960180 0.789800 1.055442
Zn10  Zn    Zn3+2 0.706230 0.960180 0.210200 1.060911
Zn11  Zn    Zn3+2 0.293770 0.960180 0.789800 1.060911
Zn12  Zn    Zn3+2 0.293770 0.960180 0.210200 1.055441
Zn13  Zn    Zn3+2 0.206230 0.460180 0.789800 1.055441
Zn14  Zn    Zn3+2 0.206230 0.460180 0.210200 1.060911
Zn15  Zn    Zn3+2 0.793770 0.460180 0.789800 1.060912
Zn16  Zn    Zn3+2 0.793770 0.460180 0.210200 1.055443
Zn17  Zn    Zn3+2 0.293770 0.039800 0.289800 1.043924
Zn18  Zn    Zn3+2 0.293770 0.039800 0.710200 1.027872
Zn19  Zn    Zn3+2 0.706230 0.039800 0.289800 1.027871
Zn20  Zn    Zn3+2 0.706230 0.039800 0.710200 1.043924
Zn21  Zn    Zn3+2 0.793770 0.539800 0.289800 1.043924
Zn22  Zn    Zn3+2 0.793770 0.539800 0.710200 1.027872
Zn23  Zn    Zn3+2 0.206230 0.539800 0.289800 1.027872
Zn24  Zn    Zn3+2 0.206230 0.539800 0.710200 1.043924
Zn25  Zn    Zn3+2 0.793770 0.039800 0.789800 1.043924
Zn26  Zn    Zn3+2 0.793770 0.039800 0.210200 1.027872
Zn27  Zn    Zn3+2 0.206230 0.039800 0.789800 1.027871
Zn28  Zn    Zn3+2 0.206230 0.039800 0.210200 1.043924
Zn29  Zn    Zn3+2 0.293770 0.539800 0.789800 1.043924
Zn30  Zn    Zn3+2 0.293770 0.539800 0.210200 1.027872
Zn31  Zn    Zn3+2 0.706230 0.539800 0.789800 1.027872
Zn32  Zn    Zn3+2 0.706230 0.539800 0.210200 1.043924
F1    F     F_    0.050215 0.917717 0.277336 -0.583233
F2    F     F_    0.044900 0.915811 0.734071 -0.587254
F3    F     F_    0.955100 0.915811 0.265929 -0.587255
F4    F     F_    0.949785 0.917717 0.722664 -0.583233
F5    F     F_    0.550214 0.417717 0.277336 -0.583233
F6    F     F_    0.544900 0.415810 0.734072 -0.587255
F7    F     F_    0.455099 0.415811 0.265929 -0.587254
F8    F     F_    0.449785 0.417717 0.722664 -0.583233
F9    F     F_    0.550214 0.917717 0.777336 -0.583233
F10   F     F_    0.544900 0.915811 0.234071 -0.587255
F11   F     F_    0.455100 0.915811 0.765929 -0.587255
F12   F     F_    0.449785 0.917717 0.222664 -0.583233
F13   F     F_    0.050215 0.417717 0.777336 -0.583233
F14   F     F_    0.044900 0.415811 0.234071 -0.587255
F15   F     F_    0.955099 0.415811 0.765929 -0.587254
F16   F     F_    0.949785 0.417717 0.222664 -0.583233
S1    S     S_3+6 0.068089 0.082796 0.313985 0.066155
O105  O     O_2   0.120738 0.094265 0.294344 -0.339588
O106  O     O_2   0.043862 0.129721 0.328572 -0.186372
O107  O     O_3   0.075607 0.047418 0.362709 -0.525844
H65   H     H_    0.099303 0.065459 0.384179 0.382660
S2    S     S_3+6 0.056849 0.065142 0.667330 0.052179
O108  O     O_2   0.053495 0.118453 0.658279 -0.202933
O109  O     O_2   0.112857 0.051523 0.664125 -0.341817
O110  O     O_3   0.024999 0.035325 0.623770 -0.520397
H66   H     H_    0.039234 0.047962 0.593121 0.398937
S3    S     S_3+6 0.943151 0.065142 0.332670 0.052179
O111  O     O_2   0.946505 0.118453 0.341721 -0.202931
O112  O     O_2   0.887142 0.051524 0.335875 -0.341818
O113  O     O_3   0.975001 0.035325 0.376230 -0.520398
H67   H     H_    0.960764 0.047961 0.406878 0.398936
S4    S     S_3+6 0.931910 0.082796 0.686015 0.066154
O114  O     O_2   0.879262 0.094265 0.705656 -0.339590
O115  O     O_2   0.956138 0.129721 0.671427 -0.186370
O116  O     O_3   0.924392 0.047418 0.637291 -0.525844
H68   H     H_    0.900694 0.065458 0.615822 0.382658
S5    S     S_3+6 0.568089 0.582796 0.313985 0.066155
O117  O     O_2   0.620738 0.594265 0.294344 -0.339589
O118  O     O_2   0.543862 0.629721 0.328572 -0.186370
O119  O     O_3   0.575608 0.547418 0.362709 -0.525844
H69   H     H_    0.599305 0.565458 0.384178 0.382659
S6    S     S_3+6 0.556849 0.565142 0.667330 0.052179
O120  O     O_2   0.553494 0.618453 0.658278 -0.202930
O121  O     O_2   0.612858 0.551524 0.664125 -0.341819
O122  O     O_3   0.525000 0.535324 0.623770 -0.520400
H70   H     H_    0.539237 0.547960 0.593121 0.398935
S7    S     S_3+6 0.443151 0.565142 0.332670 0.052179
O123  O     O_2   0.446505 0.618453 0.341721 -0.202933
O124  O     O_2   0.387142 0.551524 0.335875 -0.341817
O125  O     O_3   0.475001 0.535325 0.376230 -0.520398
H71   H     H_    0.460765 0.547962 0.406878 0.398937
S8    S     S_3+6 0.431911 0.582795 0.686015 0.066155
O126  O     O_2   0.379262 0.594264 0.705655 -0.339588
O127  O     O_2   0.456138 0.629722 0.671428 -0.186374
O128  O     O_3   0.424394 0.547418 0.637290 -0.525840
H72   H     H_    0.400698 0.565459 0.615820 0.382659
S9    S     S_3+6 0.568089 0.082796 0.813985 0.066154
O129  O     O_2   0.620738 0.094265 0.794344 -0.339587
O130  O     O_2   0.543862 0.129721 0.828572 -0.186373
O131  O     O_3   0.575607 0.047418 0.862709 -0.525845
H73   H     H_    0.599303 0.065459 0.884179 0.382660
S10   S     S_3+6 0.556849 0.065142 0.167330 0.052179
O132  O     O_2   0.553495 0.118453 0.158279 -0.202933
O133  O     O_2   0.612858 0.051524 0.164125 -0.341817
O134  O     O_3   0.524999 0.035325 0.123770 -0.520398
H74   H     H_    0.539234 0.047962 0.093121 0.398937
S11   S     S_3+6 0.443151 0.065142 0.832670 0.052179
O135  O     O_2   0.446505 0.118453 0.841721 -0.202932
O136  O     O_2   0.387142 0.051524 0.835875 -0.341817
O137  O     O_3   0.475001 0.035325 0.876230 -0.520400
H75   H     H_    0.460765 0.047962 0.906878 0.398937
S12   S     S_3+6 0.431910 0.082796 0.186015 0.066154
O138  O     O_2   0.379262 0.094265 0.205656 -0.339589
O139  O     O_2   0.456138 0.129721 0.171428 -0.186370
O140  O     O_3   0.424392 0.047418 0.137291 -0.525845
H76   H     H_    0.400695 0.065458 0.115822 0.382659
S13   S     S_3+6 0.068089 0.582796 0.813985 0.066153
O141  O     O_2   0.120738 0.594265 0.794344 -0.339588
O142  O     O_2   0.043862 0.629721 0.828572 -0.186371
O143  O     O_3   0.075608 0.547418 0.862709 -0.525847
H77   H     H_    0.099305 0.565458 0.884178 0.382659
S14   S     S_3+6 0.056849 0.565142 0.167330 0.052179
O144  O     O_2   0.053495 0.618453 0.158279 -0.202933
O145  O     O_2   0.112858 0.551524 0.164125 -0.341817
O146  O     O_3   0.024999 0.535325 0.123770 -0.520400
H78   H     H_    0.039235 0.547962 0.093121 0.398936
S15   S     S_3+6 0.943151 0.565142 0.832670 0.052179
O147  O     O_2   0.946505 0.618453 0.841721 -0.202935
O148  O     O_2   0.887142 0.551524 0.835875 -0.341815
O149  O     O_3   0.975001 0.535326 0.876229 -0.520398
H79   H     H_    0.960767 0.547964 0.906878 0.398938
S16   S     S_3+6 0.931910 0.582796 0.186015 0.066154
O150  O     O_2   0.879262 0.594265 0.205655 -0.339587
O151  O     O_2   0.956138 0.629721 0.171428 -0.186374
O152  O     O_3   0.924393 0.547418 0.137291 -0.525844
H80   H     H_    0.900698 0.565460 0.115820 0.382660

loop_
_geom_bond_atom_site_label_1
_geom_bond_atom_site_label_2
_ccdc_geom_bond_type
C127  O63   A    
C108  O84   A    
O5    Zn5   S    
S2    O110  S    
O42   Zn18  S    
C12   C49   S    
O2    Zn18  S    
C18   C50   S    
C46   C62   S    
S3    O112  D    
O2    Zn2   S    
O77   Zn5   S    
C119  C153  S    
O1    Zn1   S    
O87   Zn15  S    
C164  F4    S    
O2    Zn11  S    
C114  O42   A    
C79   C102  S    
C110  O86   A    
C147  C155  T    
C65   C108  S    
O83   Zn11  S    
C1    O89   A    
C34   H18   S    
C173  C175  S    
O92   Zn20  S    
O69   Zn8   S    
C41   C43   S    
C119  O54   A    
C42   C58   S    
C9    C52   S    
C42   C44   S    
C38   H38   S    
C59   C171  S    
C10   C51   S    
C161  C163  S    
S7    O125  S    
C162  C164  S    
C45   C47   S    
C46   C48   S    
C44   C60   S    
S15   O147  D    
C168  F8    S    
C15   C54   S    
O31   Zn23  S    
C174  F14   S    
C4    O12   A    
C1    C60   S    
C16   O104  A    
C2    C59   S    
C108  O36   A    
C176  F16   S    
C75   C98   S    
C5    C64   S    
C11   O19   A    
C6    C63   S    
S13   O143  S    
C73   C89   T    
C7    C62   S    
O16   Zn13  S    
C66   C82   T    
C118  O55   A    
C22   H54   S    
O43   Zn19  S    
S9    O131  S    
C48   H32   S    
O12   Zn9   S    
C98   O74   A    
O74   Zn2   S    
C36   H36   S    
C97   O25   A    
C166  F6    S    
S4    O115  D    
O17   Zn4   S    
C35   C51   S    
C22   S6    S    
C24   C56   S    
C161  H1    S    
C130  C138  T    
C174  H14   S    
O131  H73   S    
O32   Zn24  S    
O28   Zn20  S    
C47   H47   S    
C123  O59   A    
C42   H42   S    
C46   H46   S    
O86   Zn14  S    
C23   C55   S    
C39   H39   S    
O4    Zn4   S    
C100  O28   A    
S1    O105  D    
C2    O90   A    
O95   Zn23  S    
C115  O43   A    
S12   O138  D    
C74   C90   T    
C107  O83   A    
O81   Zn9   S    
O119  H69   S    
C47   C63   S    
C142  C150  S    
C78   C94   T    
C28   S12   S    
S11   O136  D    
C15   O23   A    
C41   C57   S    
C18   S2    S    
C129  C137  T    
C126  C134  S    
C136  C144  T    
O149  H79   S    
O8    Zn29  S    
C171  H11   S    
O15   Zn14  S    
C23   H55   S    
C20   S4    S    
C103  O31   A    
C67   C83   T    
O122  H70   S    
C50   C162  S    
C44   H44   S    
O59   Zn10  S    
C66   C107  S    
O13   Zn16  S    
O34   Zn26  S    
C112  O40   A    
O110  H66   S    
C22   C54   S    
C85   C86   S    
O8    Zn24  S    
O45   Zn21  S    
C3    O11   A    
C60   C172  S    
C1    O9    A    
C124  C132  S    
C5    O13   A    
C19   H51   S    
O37   Zn29  S    
C34   H34   S    
O4    Zn25  S    
C17   H49   S    
C46   H30   S    
O128  H72   S    
O143  H77   S    
O8    Zn13  S    
C117  C155  S    
C38   H22   S    
C118  C156  S    
C64   C176  S    
C49   C161  S    
C36   C52   S    
C75   C91   T    
O4    Zn9   S    
C13   C56   S    
C37   C53   S    
C26   H58   S    
C135  C143  T    
C14   C55   S    
O5    Zn21  S    
C170  F10   S    
C166  C168  S    
C169  C171  S    
O96   Zn24  S    
C25   C57   S    
C30   H62   S    
O3    Zn19  S    
C112  O88   A    
S6    O121  D    
C28   C60   S    
O72   Zn5   S    
S1    O107  S    
C29   C61   S    
S14   O144  D    
S12   O140  S    
C31   C63   S    
C32   C64   S    
O94   Zn22  S    
C17   C49   S    
C91   C92   S    
C8    O96   A    
C48   H48   S    
C40   C56   S    
C101  O29   A    
C128  O69   A    
C9    O97   A    
C151  C159  T    
C161  F1    S    
C36   H20   S    
C116  C158  S    
S6    O122  S    
O60   Zn9   S    
C83   C84   S    
O35   Zn27  S    
C40   H40   S    
C115  O50   A    
C120  C154  S    
O57   Zn12  S    
C162  F2    S    
C113  C159  S    
O51   Zn27  S    
C114  C160  S    
C28   H60   S    
C163  H3    S    
C32   S16   S    
S2    O109  D    
C42   H26   S    
C68   C105  S    
C117  O45   A    
C69   C85   T    
S8    O126  D    
C119  O47   A    
O20   Zn1   S    
O38   Zn30  S    
C39   H23   S    
C72   C109  S    
O7    Zn14  S    
C102  O78   A    
C124  O60   A    
C109  O37   A    
O50   Zn26  S    
O62   Zn15  S    
O5    Zn16  S    
C20   H52   S    
C105  O33   A    
C99   O75   A    
O14   Zn15  S    
C144  C152  S    
O58   Zn11  S    
O27   Zn19  S    
C138  C146  S    
O64   Zn13  S    
C143  C151  S    
C33   C35   S    
C34   C36   S    
C162  H2    S    
C131  C139  T    
O140  H76   S    
O53   Zn29  S    
S16   O150  D    
S5    O118  D    
C44   H28   S    
C10   O98   A    
C163  F3    S    
C41   H41   S    
O52   Zn28  S    
C73   C100  S    
C87   C88   S    
O91   Zn19  S    
S5    O117  D    
C9    O17   A    
O6    Zn6   S    
O3    Zn26  S    
C55   C167  S    
O7    Zn23  S    
O4    Zn20  S    
O41   Zn17  S    
S7    O124  D    
C27   S11   S    
O1    Zn17  S    
C93   C94   S    
C123  O66   A    
C26   S10   S    
C137  C145  S    
C127  C135  S    
C43   H43   S    
C29   S13   S    
C128  C136  S    
O39   Zn31  S    
C69   C112  S    
C48   C64   S    
O125  H71   S    
C33   C49   S    
C71   C110  S    
C15   O103  A    
S13   O142  D    
S10   O132  D    
O29   Zn21  S    
C21   S5    S    
C39   C55   S    
C95   C96   S    
S9    O130  D    
C166  H6    S    
S15   O149  S    
C121  O57   A    
C51   C163  S    
C109  O85   A    
C164  H4    S    
S8    O128  S    
C35   H19   S    
C33   H17   S    
O63   Zn14  S    
C105  O81   A    
O68   Zn1   S    
C54   C166  S    
C37   H37   S    
C100  O76   A    
C101  O77   A    
C4    O92   A    
C103  O79   A    
C141  C149  S    
C68   C84   T    
O99   Zn27  S    
S3    O113  S    
O107  H65   S    
O80   Zn8   S    
C17   S1    S    
C40   H24   S    
C76   C97   S    
O146  H78   S    
C123  C131  S    
S10   O134  S    
S12   O139  D    
C80   C96   T    
O152  H80   S    
C104  O32   A    
O103  Zn31  S    
C172  F12   S    
C173  F13   S    
C38   C54   S    
S16   O152  S    
O6    Zn15  S    
O1    Zn28  S    
C99   O27   A    
C170  H10   S    
C171  F11   S    
O11   Zn10  S    
O75   Zn3   S    
O101  Zn29  S    
C26   C58   S    
O98   Zn26  S    
O70   Zn7   S    
O73   Zn1   S    
C52   C164  S    
C71   C87   T    
C53   C165  S    
O7    Zn30  S    
C115  C157  S    
S5    O119  S    
C165  F5    S    
C21   C23   S    
C22   C24   S    
C116  O44   A    
C41   H25   S    
C12   O100  A    
O36   Zn28  S    
O5    Zn32  S    
O30   Zn22  S    
C127  O70   A    
C31   H63   S    
C45   H29   S    
C102  O30   A    
C7    O15   A    
C26   C28   S    
C120  O48   A    
O24   Zn5   S    
C121  C129  S    
C24   H56   S    
C32   H64   S    
C67   C106  S    
C74   C99   S    
O85   Zn13  S    
C132  C140  T    
C3    O91   A    
C150  C158  T    
C133  C141  T    
O90   Zn18  S    
C175  F15   S    
O82   Zn10  S    
C106  O82   A    
C45   H45   S    
C37   C39   S    
C11   C50   S    
C38   C40   S    
O3    Zn3   S    
C170  C172  S    
O44   Zn20  S    
O55   Zn31  S    
C45   C61   S    
C8    O16   A    
C30   S14   S    
C174  C176  S    
C118  O46   A    
C176  H16   S    
C70   C111  S    
C169  H9    S    
C3    C58   S    
S4    O114  D    
O3    Zn10  S    
C29   C31   S    
O22   Zn7   S    
O116  H68   S    
O47   Zn23  S    
O113  H67   S    
C77   C104  S    
C148  C156  T    
C89   C90   S    
C149  C157  T    
C113  O41   A    
C110  O38   A    
C21   C53   S    
C152  C160  T    
C31   S15   S    
O137  H75   S    
S3    O111  D    
C106  O34   A    
C140  C148  S    
O7    Zn7   S    
C81   C82   S    
O33   Zn25  S    
C113  O52   A    
C79   C95   T    
S1    O106  D    
C139  C147  S    
C114  O51   A    
O9    Zn12  S    
S14   O145  D    
O46   Zn22  S    
O19   Zn2   S    
C23   S7    S    
C58   C170  S    
C98   O26   A    
C120  O53   A    
C2    O10   A    
O67   Zn2   S    
C175  H15   S    
C128  O64   A    
C134  C142  T    
C5    O93   A    
C62   C174  S    
O79   Zn7   S    
C116  O49   A    
C6    O14   A    
C7    O95   A    
C35   H35   S    
C16   C53   S    
S11   O137  S    
C18   H50   S    
O25   Zn17  S    
C65   C81   T    
C167  H7    S    
C168  H8    S    
S14   O146  S    
C126  O62   A    
C4    C57   S    
C10   O18   A    
C37   H21   S    
O104  Zn32  S    
C14   O22   A    
C27   H59   S    
C8    C61   S    
C145  C153  T    
O6    Zn22  S    
O2    Zn27  S    
C25   H57   S    
O100  Zn28  S    
C97   O73   A    
O40   Zn32  S    
C124  O65   A    
O18   Zn3   S    
C33   H33   S    
O71   Zn6   S    
C29   H61   S    
C72   C88   T    
S8    O127  D    
C57   C169  S    
O76   Zn4   S    
C11   O99   A    
C24   S8    S    
C34   C50   S    
C117  O56   A    
C104  O80   A    
O89   Zn17  S    
C61   C173  S    
O102  Zn30  S    
C13   O101  A    
S7    O123  D    
O6    Zn31  S    
O1    Zn12  S    
O88   Zn16  S    
C122  O58   A    
O54   Zn30  S    
C169  F9    S    
C146  C154  T    
O84   Zn12  S    
O61   Zn16  S    
S4    O116  S    
C21   H53   S    
C56   C168  S    
C125  O72   A    
O93   Zn21  S    
C126  O71   A    
C76   C92   T    
O56   Zn32  S    
S16   O151  D    
C121  O68   A    
O78   Zn6   S    
C6    O94   A    
C43   H27   S    
C122  O67   A    
C25   S9    S    
C107  O35   A    
O26   Zn18  S    
C167  F7    S    
O65   Zn4   S    
C70   C86   T    
O21   Zn8   S    
C77   C93   T    
S6    O120  D    
C125  C133  S    
O23   Zn6   S    
C111  O39   A    
O48   Zn24  S    
C78   C103  S    
C63   C175  S    
C43   C59   S    
C25   C27   S    
O49   Zn25  S    
C47   H31   S    
C80   C101  S    
C20   C52   S    
C165  H5    S    
C30   C62   S    
C125  O61   A    
S11   O135  D    
O8    Zn8   S    
C27   C59   S    
C30   C32   S    
O134  H74   S    
C172  H12   S    
O10   Zn11  S    
C173  H13   S    
C17   C19   S    
C18   C20   S    
S13   O141  D    
S10   O133  D    
C16   O24   A    
C19   C51   S    
O66   Zn3   S    
C14   O102  A    
C165  C167  S    
S9    O129  D    
O97   Zn25  S    
S15   O148  D    
S2    O108  D    
C12   O20   A    
C111  O87   A    
C13   O21   A    
C122  C130  S    
C19   S3    S    
