data_mof_unit_53150.cif
_audit_creation_date              2012-12-11T15:48:57-0500
_audit_creation_method            fapswitch 2.2
_symmetry_space_group_name_H-M    P1
_symmetry_Int_Tables_number       1
_space_group_crystal_system       triclinic
_cell_length_a                    11.135966
_cell_length_b                    11.048978
_cell_length_c                    18.748586
_cell_angle_alpha                 89.752662
_cell_angle_beta                  89.389438
_cell_angle_gamma                 59.754251
_cell_volume                      1992.70671412

loop_
_atom_site_label
_atom_site_type_symbol
_atom_type_description
_atom_site_fract_x
_atom_site_fract_y
_atom_site_fract_z
_atom_type_partial_charge
C1    C     C_R   0.295200 0.619475 0.615154 0.538829
C2    C     C_R   0.567010 0.163774 0.713269 -0.091720
C3    C     C_R   0.566348 0.171948 0.786382 -0.127239
C4    C     C_R   0.629759 0.590813 0.609179 0.540255
C5    C     C_3   0.937558 0.068336 0.780356 -0.223355
C6    C     C_3   0.929959 0.078006 0.699701 -0.257852
C7    C     C_R   0.668915 0.169807 0.672651 0.054769
C8    C     C_R   0.212297 0.654209 0.842181 0.055594
C9    C     C_R   0.263123 0.523082 0.808824 0.000016
C10   C     C_R   0.290891 0.507876 0.734819 0.022198
C11   C     C_R   0.242558 0.745551 0.729408 -0.115520
C12   C     C_3   0.642903 0.558385 0.812921 -0.162302
C13   C     C_R   0.217516 0.758065 0.802161 -0.051205
C14   C     C_3   0.203285 0.429914 0.809230 -0.244325
C15   C     C_3   0.223123 0.419758 0.728768 -0.221920
C16   C     C_R   0.628984 0.226639 0.601583 0.518618
C17   C     C_R   0.272802 0.623206 0.693084 0.034161
C18   C     C_R   0.649032 0.670305 0.166751 0.019325
C19   C     C_R   0.716205 0.538684 0.199469 0.023692
C20   C     C_R   0.717578 0.528482 0.272524 0.044134
C21   C     C_R   0.566323 0.777025 0.284235 -0.166394
C22   C     C_R   0.565176 0.788842 0.209673 -0.162580
C23   C     C_3   0.684582 0.673689 0.815545 0.019677
C24   C     C_3   0.862542 0.417788 0.193557 -0.268764
C25   C     C_3   0.864694 0.411644 0.274031 -0.269298
C26   C     C_R   0.650215 0.646446 0.316311 0.021486
C27   C     C_R   0.664794 0.130685 0.181019 0.026430
C28   C     C_R   0.224406 0.648988 0.400915 0.555577
C29   C     C_R   0.562836 0.121253 0.219631 0.022390
C30   C     C_R   0.557372 0.132076 0.292562 0.022041
C31   C     C_R   0.775019 0.129195 0.292757 -0.163245
C32   C     C_R   0.777798 0.122965 0.218535 -0.150353
C33   C     C_3   0.409100 0.202936 0.211528 -0.279987
C34   C     C_3   0.647599 0.624154 0.683554 -0.031831
C35   C     C_3   0.401321 0.215100 0.291914 -0.263207
C36   C     C_R   0.655796 0.151797 0.329326 0.023506
C37   C     C_R   0.159498 0.662088 0.179999 0.020712
C38   C     C_R   0.223614 0.729548 0.211155 0.024686
C39   C     C_R   0.233949 0.730285 0.283537 0.045905
C40   C     C_R   0.641800 0.622123 0.391850 0.554501
C41   C     C_R   0.140729 0.576631 0.296628 -0.177618
C42   C     C_R   0.129513 0.575210 0.222608 -0.170050
C43   C     C_3   0.197546 0.876902 0.205959 -0.267135
C44   C     C_3   0.205108 0.877301 0.286272 -0.266666
C45   C     C_3   0.797443 0.593524 0.692373 -0.195013
C46   C     C_R   0.184519 0.662859 0.327589 0.022921
C47   C     C_R   0.701424 0.102221 0.896080 0.592652
C48   C     C_R   0.721495 0.688855 0.889176 0.618027
C49   C     C_R   0.123519 0.703030 0.907412 0.583696
C50   C     C_R   0.677775 0.100038 0.105682 0.537598
C51   C     C_R   0.695414 0.689873 0.097132 0.547428
C52   C     C_R   0.617887 0.226601 0.396378 0.549584
C53   C     C_R   0.093616 0.708508 0.111954 0.546576
C54   C     C_3   0.563057 0.812782 0.782321 0.137233
C55   C     C_3   0.541550 0.780187 0.704696 -0.202692
C56   C     C_3   0.629991 0.524560 0.734724 -0.284521
C57   C     C_3   0.816565 0.631926 0.767239 0.085294
C58   C     C_1   0.739466 0.432161 0.853681 0.165189
C59   C     C_R   0.681815 0.158743 0.823255 0.053703
C60   C     C_R   0.785322 0.162694 0.782089 0.029115
C61   C     C_R   0.776988 0.172797 0.708127 -0.001956
Cr1   Cr    Cr6+3 0.392960 0.397920 0.502240 1.007682
Cr2   Cr    Cr6+3 0.398340 0.708480 0.501250 1.006876
Cr3   Cr    Cr6+3 0.708670 0.393570 0.496460 1.004183
Cr4   Cr    Cr6+3 0.937650 0.938540 0.007610 1.042809
Cr5   Cr    Cr6+3 0.625330 0.937370 0.994520 1.106737
Cr6   Cr    Cr6+3 0.937940 0.625230 0.001190 1.044887
H1    H     H_    0.595500 0.891509 0.779308 0.223626
H2    H     H_    0.957760 0.977392 0.673112 0.186686
H3    H     H_    0.224449 0.838277 0.700832 0.161956
H4    H     H_    0.180861 0.859194 0.825193 0.210158
H5    H     H_    0.095617 0.484118 0.828377 0.190934
H6    H     H_    0.269178 0.330798 0.838022 0.152179
H7    H     H_    0.291450 0.312091 0.710761 0.126476
H8    H     H_    0.124678 0.470085 0.698537 0.184259
H9    H     H_    0.507351 0.869955 0.316626 0.118882
H10   H     H_    0.509701 0.892175 0.186374 0.135710
H11   H     H_    0.939312 0.444046 0.171981 0.160633
H12   H     H_    0.712073 0.417481 0.721451 0.143194
H13   H     H_    0.866871 0.325121 0.168191 0.132836
H14   H     H_    0.875580 0.313802 0.295667 0.143996
H15   H     H_    0.435787 0.799760 0.697626 0.165215
H16   H     H_    0.935510 0.443577 0.297924 0.131542
H17   H     H_    0.859154 0.129281 0.320798 0.112357
H18   H     H_    0.866468 0.115507 0.190659 0.123051
H19   H     H_    0.366006 0.138943 0.190554 0.132139
H20   H     H_    0.373157 0.304535 0.183845 0.146925
H21   H     H_    0.359199 0.324313 0.310246 0.177693
H22   H     H_    0.353928 0.157879 0.317482 0.127090
H23   H     H_    0.904382 0.536895 0.789662 0.119572
H24   H     H_    0.113369 0.513021 0.329425 0.120321
H25   H     H_    0.086271 0.516371 0.199728 0.126895
H26   H     H_    0.093216 0.955628 0.187010 0.157688
H27   H     H_    0.552895 0.852665 0.667578 0.158476
H28   H     H_    0.284410 0.881258 0.178862 0.136101
H29   H     H_    0.293710 0.885305 0.306391 0.149630
H30   H     H_    0.103793 0.949426 0.312451 0.129909
H31   H     H_    0.822646 0.648012 0.649940 0.184808
H32   H     H_    0.540091 0.597643 0.838682 0.192147
H33   H     H_    0.529614 0.529634 0.726628 0.100475
H34   H     H_    0.873341 0.479868 0.683967 0.111351
H35   H     H_    0.316468 0.879632 0.930296 0.369573
H36   H     H_    0.815564 0.863233 0.653993 0.352585
H37   H     H_    0.489729 0.147724 0.687797 0.144684
H38   H     H_    0.482404 0.169199 0.813134 0.181526
H39   H     H_    0.963360 0.964832 0.800851 0.220550
H40   H     H_    0.994629 0.116457 0.804099 0.182716
H41   H     H_    0.981455 0.133477 0.676787 0.141928
N1    N     N_1   0.815273 0.336933 0.887768 -0.289896
O1    O     O_R   0.507380 0.255700 0.581440 -0.534755
O2    O     O_R   0.837170 0.593410 0.915250 -0.516837
O3    O     O_R   0.065200 0.635530 0.931570 -0.489919
O4    O     O_R   0.280320 0.527350 0.578930 -0.488060
O5    O     O_R   0.068260 0.828890 0.091840 -0.532316
O6    O     O_R   0.798870 0.057410 0.079340 -0.518251
O7    O     O_R   0.584930 0.080350 0.076780 -0.522085
O8    O     O_R   0.626960 0.809650 0.067060 -0.510130
O9    O     O_R   0.816040 0.596610 0.076510 -0.527592
O10   O     O_R   0.045610 0.638500 0.081060 -0.521118
O11   O     O_3   0.833640 0.833710 0.001100 -0.259117
O12   O     O_R   0.524480 0.695810 0.424040 -0.500896
O13   O     O_R   0.260510 0.739590 0.584590 -0.530339
O14   O     O_R   0.532300 0.695080 0.573820 -0.519275
O15   O     O_R   0.744840 0.503500 0.576370 -0.519846
O16   O     O_R   0.699120 0.276560 0.571960 -0.516887
O17   O     O_R   0.498940 0.256500 0.419860 -0.524193
O18   O     O_R   0.272500 0.528080 0.429150 -0.505404
O19   O     O_R   0.252060 0.740380 0.423010 -0.516010
O20   O     O_2   0.409161 0.026548 0.874492 -0.292110
O21   O     O_2   0.282458 0.986056 0.783788 -0.376298
O22   O     O_3   0.380603 0.813527 0.893755 -0.578955
O23   O     O_R   0.736390 0.504290 0.414790 -0.513741
O24   O     O_2   0.845921 0.836424 0.829767 -0.291258
O25   O     O_2   0.004669 0.709010 0.732666 -0.363168
O26   O     O_3   0.758883 0.885405 0.698234 -0.598361
O27   O     O_R   0.691300 0.277290 0.422170 -0.505167
O28   O     O_3   0.499990 0.499990 0.499980 -0.288148
O29   O     O_R   0.089400 0.825690 0.930570 -0.525669
O30   O     O_R   0.818460 0.054440 0.929850 -0.473519
O31   O     O_R   0.606060 0.077150 0.915510 -0.482227
O32   O     O_R   0.646550 0.806680 0.917570 -0.414742
S1    S     S_3+6 0.403307 0.913588 0.833450 -0.072556
S2    S     S_3+6 0.860332 0.767718 0.759191 -0.103568

loop_
_geom_bond_atom_site_label_1
_geom_bond_atom_site_label_2
_ccdc_geom_bond_type
C6    H2    S    
C15   H8    S    
C21   C26   A    
Cr3   O27   S    
C34   C56   S    
C8    C13   A    
C27   C29   A    
C58   N1    T    
Cr4   O6    S    
C41   C42   A    
C2    C7    A    
C9    C14   S    
C11   H3    S    
C16   O1    A    
Cr5   O32   S    
C3    H38   S    
C40   O12   A    
C21   H9    S    
C45   C57   S    
C29   C30   A    
C56   H12   S    
Cr5   O7    S    
C30   C35   S    
C6    C61   S    
C50   O6    A    
C45   H31   S    
C31   C36   A    
C5    H40   S    
C5    C6    S    
C54   H1    S    
C20   C25   S    
C10   C17   A    
C29   C33   S    
C51   O9    A    
C4    O15   A    
C18   C19   A    
C35   H21   S    
C37   C42   A    
H36   O26   S    
C1    O13   A    
C7    C61   A    
C12   H32   S    
C43   H26   S    
O25   S2    D    
C24   H13   S    
Cr3   O23   S    
C8    C9    A    
Cr5   O8    S    
Cr1   O1    S    
C47   O31   A    
C43   H28   S    
C41   C46   A    
Cr6   O11   S    
C42   H25   S    
Cr2   O19   S    
C36   C52   S    
C27   C50   S    
Cr3   O28   S    
C12   C58   S    
O26   S2    S    
C40   O23   A    
C34   C55   S    
Cr5   O11   S    
C21   C22   A    
C25   H14   S    
Cr2   O28   S    
C1    O4    A    
C55   H27   S    
C9    C10   A    
Cr2   O12   S    
C18   C51   S    
C5    H39   S    
C4    C34   S    
O24   S2    D    
C57   H23   S    
C57   S2    S    
C14   H6    S    
H35   O22   S    
Cr1   O4    S    
Cr1   O17   S    
C52   O17   A    
O20   S1    D    
C13   H4    S    
Cr3   O15   S    
C31   H17   S    
C4    O14   A    
C60   C61   A    
C33   H19   S    
C37   C38   A    
C44   H29   S    
C44   H30   S    
Cr6   O3    S    
C31   C32   A    
C12   C23   S    
Cr4   O5    S    
C2    H37   S    
C28   C46   S    
C15   H7    S    
C34   C45   S    
C24   C25   S    
C55   H15   S    
C28   O18   A    
C12   C56   S    
O22   S1    S    
C45   H34   S    
C49   O3    A    
Cr4   O29   S    
C35   H22   S    
Cr6   O2    S    
C7    C16   S    
C41   H24   S    
C39   C46   A    
C43   C44   S    
C52   O27   A    
C56   H33   S    
Cr2   O13   S    
C53   O5    A    
C23   C54   S    
C16   O16   A    
C24   H11   S    
C23   C57   S    
C54   C55   S    
C11   C17   A    
C23   C48   S    
C5    C60   S    
C54   S1    S    
C27   C32   A    
C18   C22   A    
C14   H5    S    
C22   H10   S    
Cr2   O14   S    
C53   O10   A    
C39   C44   S    
C1    C17   S    
C30   C36   A    
C10   C15   S    
C19   C20   A    
C2    C3    A    
C33   H20   S    
C37   C53   S    
C38   C43   S    
C11   C13   A    
C26   C40   S    
C38   C39   A    
C20   C26   A    
C32   H18   S    
C33   C35   S    
Cr4   O11   S    
C48   O32   A    
C19   C24   S    
C50   O7    A    
Cr1   O28   S    
O21   S1    D    
Cr6   O9    S    
C47   C59   S    
Cr4   O30   S    
Cr1   O18   S    
C59   C60   A    
C48   O2    A    
Cr5   O31   S    
Cr3   O16   S    
C47   O30   A    
C25   H16   S    
C51   O8    A    
C6    H41   S    
C14   C15   S    
C49   O29   A    
Cr6   O10   S    
C8    C49   S    
C28   O19   A    
C3    C59   A    
