data_mof_unit_64975.cif
_audit_creation_date              2012-12-10T19:18:41-0500
_audit_creation_method            fapswitch 2.2
_symmetry_space_group_name_H-M    P1
_symmetry_Int_Tables_number       1
_space_group_crystal_system       triclinic
_cell_length_a                    24.465512
_cell_length_b                    24.464846
_cell_length_c                    36.280542
_cell_angle_alpha                 90.014926
_cell_angle_beta                  89.981109
_cell_angle_gamma                 90.238362
_cell_volume                      21715.3465812

loop_
_atom_site_label
_atom_site_type_symbol
_atom_type_description
_atom_site_fract_x
_atom_site_fract_y
_atom_site_fract_z
_atom_type_partial_charge
C1    C     C_R   0.728368 0.228337 0.250002 -0.004494
C2    C     C_R   0.270919 0.228924 0.250180 0.005333
C3    C     C_R   0.711468 0.794469 0.216690 -0.187347
C4    C     C_R   0.782765 0.300496 0.782357 -0.185989
C5    C     C_R   0.177016 0.739894 0.264687 -0.186676
C6    C     C_R   0.694317 0.779049 0.780777 -0.187908
C7    C     C_R   0.288385 0.205428 0.216988 -0.189970
C8    C     C_R   0.224124 0.308674 0.220732 -0.185583
C9    C     C_R   0.797029 0.714172 0.782814 -0.189984
C10   C     C_R   0.302814 0.780793 0.218265 -0.186657
C11   C     C_R   0.739783 0.176983 0.735199 -0.185396
C12   C     C_R   0.775629 0.690899 0.220435 -0.187390
C13   C     C_R   0.771307 0.271329 0.750014 -0.008596
C14   C     C_R   0.202553 0.285392 0.782744 -0.190596
C15   C     C_R   0.679795 0.236232 0.230273 -0.184638
C16   C     C_R   0.260005 0.823212 0.735520 -0.186225
C17   C     C_R   0.696088 0.139043 0.269969 0.382194
C18   C     C_R   0.363780 0.800259 0.764853 0.375941
C19   C     C_R   0.848070 0.683087 0.280124 0.387362
C20   C     C_R   0.173006 0.336131 0.716520 0.395353
C21   C     C_R   0.320812 0.843637 0.282008 0.387568
C22   C     C_R   0.636329 0.199582 0.765199 0.375237
C23   C     C_R   0.150814 0.316081 0.280012 0.382610
C24   C     C_R   0.228830 0.728771 0.250022 -0.001032
C25   C     C_R   0.827903 0.664574 0.716340 0.398656
C26   C     C_R   0.680218 0.845411 0.718452 0.388583
C27   C     C_R   0.333367 0.169901 0.283890 0.397759
C28   C     C_R   0.841207 0.322899 0.717326 0.390745
C29   C     C_R   0.199633 0.636406 0.234826 0.375339
C30   C     C_R   0.320249 0.155091 0.718409 0.391206
C31   C     C_R   0.666604 0.830009 0.283667 0.399775
C32   C     C_R   0.157473 0.678244 0.717599 0.393017
C33   C     C_R   0.836813 0.326704 0.283460 0.396100
C34   C     C_R   0.178207 0.657526 0.782385 0.392788
C35   C     C_R   0.271931 0.228212 0.750035 0.005299
C36   C     C_R   0.826705 0.336816 0.216544 0.395746
C37   C     C_R   0.345012 0.179855 0.781625 0.391361
C38   C     C_R   0.669943 0.833402 0.216124 0.399383
C39   C     C_R   0.822881 0.341242 0.782681 0.390426
C40   C     C_R   0.136454 0.699617 0.265200 0.374184
C41   C     C_R   0.654749 0.819897 0.781461 0.387817
C42   C     C_R   0.330057 0.166667 0.216345 0.398090
C43   C     C_R   0.183260 0.348248 0.219942 0.388471
C44   C     C_R   0.835560 0.672342 0.783581 0.394545
C45   C     C_R   0.343648 0.820796 0.217998 0.390894
C46   C     C_R   0.728868 0.770870 0.249838 0.004798
C47   C     C_R   0.699561 0.136337 0.734811 0.375437
C48   C     C_R   0.816177 0.650913 0.219931 0.383050
C49   C     C_R   0.163964 0.327169 0.783524 0.399475
C50   C     C_R   0.639066 0.196087 0.230041 0.381303
C51   C     C_R   0.300253 0.863830 0.735115 0.376092
C52   C     C_R   0.647241 0.147233 0.250003 -0.288047
C53   C     C_R   0.352488 0.852508 0.749989 -0.293329
C54   C     C_R   0.852659 0.646891 0.249952 -0.291955
C55   C     C_R   0.147753 0.352335 0.750013 -0.310013
C56   C     C_R   0.352654 0.852643 0.250003 -0.295923
C57   C     C_R   0.228579 0.728667 0.749987 -0.007897
C58   C     C_R   0.647487 0.147492 0.750008 -0.293095
C59   C     C_R   0.146907 0.352680 0.250046 -0.292131
C60   C     C_R   0.852386 0.647736 0.749972 -0.309653
C61   C     C_R   0.647124 0.852954 0.749964 -0.291170
C62   C     C_R   0.352357 0.147643 0.250092 -0.304394
C63   C     C_R   0.852537 0.352546 0.750003 -0.298099
C64   C     C_R   0.147545 0.647528 0.250006 -0.293552
C65   C     C_R   0.352933 0.147112 0.750017 -0.290796
C66   C     C_R   0.647637 0.852357 0.249918 -0.304467
C67   C     C_R   0.147397 0.647422 0.749993 -0.297381
C68   C     C_R   0.771020 0.270987 0.250001 -0.006984
C69   C     C_R   0.852350 0.352354 0.250002 -0.304157
C70   C     C_2   0.594337 0.960669 0.040897 0.546252
C71   C     C_2   0.405488 0.038812 0.959151 0.549426
C72   C     C_2   0.033308 0.596564 0.041029 0.544612
C73   C     C_2   0.965354 0.403557 0.958919 0.549957
C74   C     C_2   0.408551 0.045196 0.041131 0.545231
C75   C     C_2   0.591288 0.954308 0.958917 0.550290
C76   C     C_2   0.971925 0.401396 0.040904 0.553174
C77   C     C_2   0.026688 0.598709 0.959070 0.553304
C78   C     C_2   0.097914 0.529511 0.540925 0.552999
C79   C     C_1   0.499944 0.999505 0.111774 -0.054067
C80   C     C_2   0.902205 0.469128 0.459102 0.553048
C81   C     C_2   0.447648 0.087662 0.540928 0.550593
C82   C     C_2   0.551913 0.912165 0.459030 0.551472
C83   C     C_2   0.904565 0.462603 0.541088 0.549742
C84   C     C_2   0.095573 0.536074 0.458965 0.544988
C85   C     C_2   0.557976 0.916175 0.541005 0.548975
C86   C     C_2   0.441619 0.083672 0.458949 0.541921
C87   C     C_1   0.500027 0.000314 0.888244 -0.064984
C88   C     C_1   0.999366 0.500009 0.111759 -0.058509
C89   C     C_R   0.271234 0.771290 0.749977 -0.002202
C90   C     C_1   0.000218 0.499958 0.888227 -0.049896
C91   C     C_1   0.999957 0.500216 0.611773 -0.049830
C92   C     C_1   0.000010 0.499374 0.388241 -0.058156
C93   C     C_1   0.499610 0.999895 0.611756 -0.064929
C94   C     C_1   0.500238 0.000080 0.388228 -0.054012
C95   C     C_R   0.047659 0.515676 0.480443 -0.035774
C96   C     C_R   0.952420 0.483109 0.519589 -0.041848
C97   C     C_R   0.472771 0.042181 0.480426 -0.034630
C98   C     C_R   0.526828 0.957672 0.519538 -0.040762
C99   C     C_R   0.952495 0.482726 0.480515 -0.042401
C100  C     C_R   0.771685 0.728086 0.249811 0.005569
C101  C     C_R   0.047584 0.516050 0.519512 -0.043415
C102  C     C_R   0.527072 0.957780 0.480466 -0.037729
C103  C     C_R   0.472521 0.042067 0.519498 -0.040559
C104  C     C_R   0.545683 0.979118 0.980427 -0.041194
C105  C     C_R   0.454161 0.020392 0.019613 -0.036389
C106  C     C_R   0.014672 0.548025 0.980485 -0.043649
C107  C     C_R   0.984082 0.452042 0.019488 -0.042717
C108  C     C_R   0.454248 0.020732 0.980540 -0.040478
C109  C     C_R   0.545593 0.978773 0.019498 -0.038259
C110  C     C_R   0.984474 0.451974 0.980415 -0.041990
C111  C     C_R   0.229169 0.271006 0.750038 0.005301
C112  C     C_R   0.014292 0.548093 0.019554 -0.035682
C113  C     C_R   0.000452 0.498028 0.461289 -0.043487
C114  C     C_R   0.999589 0.500881 0.538733 -0.044521
C115  C     C_R   0.501013 0.000658 0.461263 -0.044785
C116  C     C_R   0.498616 0.999212 0.538707 -0.044384
C117  C     C_R   0.500480 0.001134 0.961296 -0.043888
C118  C     C_R   0.499380 0.998409 0.038738 -0.044189
C119  C     C_R   0.000888 0.499622 0.961267 -0.044635
C120  C     C_R   0.998002 0.500411 0.038711 -0.043662
C121  C     C_R   0.499986 0.000010 0.348854 0.889548
C122  C     C_R   0.271475 0.771435 0.250012 -0.006484
C123  C     C_R   0.499986 0.999986 0.651140 0.879844
C124  C     C_R   0.999992 0.499944 0.348859 0.887536
C125  C     C_R   0.000000 0.500000 0.651146 0.893339
C126  C     C_R   0.999998 0.499999 0.848854 0.893413
C127  C     C_R   0.999944 0.499993 0.151141 0.887790
C128  C     C_R   0.499996 0.000010 0.848860 0.880402
C129  C     C_R   0.499999 0.999960 0.151146 0.890325
C130  C     C_R   0.605219 0.894776 0.249978 0.965400
C131  C     C_R   0.394983 0.105017 0.750003 0.996663
C132  C     C_R   0.105136 0.605136 0.250001 0.977540
C133  C     C_R   0.728703 0.228705 0.750023 -0.003880
C134  C     C_R   0.894885 0.394882 0.749999 0.968479
C135  C     C_R   0.394774 0.105218 0.250025 0.965155
C136  C     C_R   0.605019 0.894988 0.749992 0.997112
C137  C     C_R   0.894809 0.394809 0.250001 0.974240
C138  C     C_R   0.105099 0.605103 0.749998 0.972497
C139  C     C_R   0.605116 0.105123 0.750003 0.975780
C140  C     C_R   0.394924 0.894922 0.250001 0.973585
C141  C     C_R   0.105257 0.394758 0.750000 0.946592
C142  C     C_R   0.894845 0.604891 0.249913 0.991253
C143  C     C_R   0.394872 0.894874 0.749999 0.975952
C144  C     C_R   0.228153 0.271758 0.250211 0.005075
C145  C     C_R   0.605033 0.105032 0.250000 0.980890
C146  C     C_R   0.894775 0.605248 0.749996 0.948468
C147  C     C_R   0.104890 0.394846 0.250088 0.991705
C148  C     C_1   0.000160 0.498762 0.421391 -0.092063
C149  C     C_1   0.999806 0.500490 0.578626 -0.095435
C150  C     C_1   0.500560 0.000293 0.421374 -0.091409
C151  C     C_1   0.499177 0.999638 0.578604 -0.095237
C152  C     C_1   0.500185 0.000669 0.921396 -0.095321
C153  C     C_1   0.499737 0.999011 0.078628 -0.092515
C154  C     C_1   0.000496 0.499819 0.921375 -0.095582
C155  C     C_R   0.771079 0.729177 0.749934 0.006357
C156  C     C_1   0.998746 0.500145 0.078609 -0.092476
C157  C     C_R   0.736247 0.179759 0.269733 -0.184882
C158  C     C_R   0.323147 0.760032 0.764434 -0.186621
C159  C     C_R   0.808491 0.723943 0.279342 -0.186161
C160  C     C_R   0.214816 0.297586 0.717326 -0.190056
C161  C     C_R   0.280824 0.802786 0.281752 -0.185475
C162  C     C_R   0.676983 0.239798 0.764836 -0.185809
C163  C     C_R   0.190839 0.275570 0.279522 -0.187188
C164  C     C_R   0.786134 0.703179 0.717064 -0.190800
C165  C     C_R   0.721115 0.805878 0.719106 -0.187710
C166  C     C_R   0.728249 0.771943 0.749932 0.006583
C167  C     C_R   0.294447 0.211443 0.283331 -0.187328
C168  C     C_R   0.800461 0.282785 0.717663 -0.185633
C169  C     C_R   0.239933 0.676947 0.235359 -0.185720
C170  C     C_R   0.279426 0.194685 0.719074 -0.187668
C171  C     C_R   0.705318 0.788300 0.283026 -0.189868
C172  C     C_R   0.198252 0.718324 0.717884 -0.186520
C173  C     C_R   0.796047 0.286604 0.283030 -0.185322
C174  C     C_R   0.218254 0.698337 0.782094 -0.185852
C175  C     C_R   0.786626 0.296030 0.216974 -0.184513
C176  C     C_R   0.305448 0.220713 0.780982 -0.187998
H1    H     H_    0.774087 0.173536 0.284615 0.217249
H2    H     H_    0.282394 0.230175 0.309075 0.210890
H3    H     H_    0.791015 0.260527 0.692584 0.216712
H4    H     H_    0.280220 0.668234 0.224378 0.216354
H5    H     H_    0.253117 0.198928 0.695339 0.214203
H6    H     H_    0.717196 0.769446 0.308756 0.210948
H7    H     H_    0.206785 0.741410 0.692951 0.216674
H8    H     H_    0.783347 0.267563 0.308590 0.215167
H9    H     H_    0.241341 0.706880 0.807023 0.217162
H10   H     H_    0.767592 0.283328 0.191414 0.215508
H11   H     H_    0.301217 0.247043 0.804721 0.213998
H12   H     H_    0.331894 0.719647 0.775241 0.216372
H13   H     H_    0.730251 0.782467 0.190952 0.210943
H14   H     H_    0.760509 0.291063 0.807439 0.216441
H15   H     H_    0.168316 0.780188 0.275672 0.215622
H16   H     H_    0.698218 0.752437 0.804414 0.213800
H17   H     H_    0.269578 0.217379 0.191257 0.210714
H18   H     H_    0.252975 0.306870 0.198172 0.213003
H19   H     H_    0.787134 0.734946 0.808257 0.210900
H20   H     H_    0.295060 0.756997 0.193580 0.215966
H21   H     H_    0.780012 0.168439 0.724054 0.217279
H22   H     H_    0.746540 0.692433 0.198027 0.214663
H23   H     H_    0.806608 0.752707 0.301947 0.213051
H24   H     H_    0.212003 0.264164 0.808040 0.211095
H25   H     H_    0.673583 0.274078 0.215394 0.217187
H26   H     H_    0.219624 0.831983 0.724709 0.216531
H27   H     H_    0.589126 0.939523 0.066966 0.079605
H28   H     H_    0.410688 0.059919 0.933065 0.085220
H29   H     H_    0.014325 0.606484 0.067217 0.079496
H30   H     H_    0.984337 0.393587 0.932738 0.089511
H31   H     H_    0.396386 0.027689 0.067383 0.089967
H32   H     H_    0.603447 0.971784 0.932656 0.083916
H33   H     H_    0.950507 0.403920 0.067048 0.084124
H34   H     H_    0.236098 0.288138 0.692043 0.211241
H35   H     H_    0.048186 0.596261 0.932953 0.088324
H36   H     H_    0.094855 0.550960 0.567029 0.087932
H37   H     H_    0.905338 0.447769 0.432967 0.083602
H38   H     H_    0.427636 0.079482 0.567063 0.083606
H39   H     H_    0.571925 0.920325 0.432891 0.078042
H40   H     H_    0.894082 0.481262 0.567283 0.089935
H41   H     H_    0.106008 0.517410 0.432765 0.079183
H42   H     H_    0.542419 0.901619 0.567260 0.085858
H43   H     H_    0.457179 0.098232 0.432694 0.084851
H44   H     H_    0.767749 0.049639 0.334660 0.408025
H45   H     H_    0.257031 0.795034 0.306438 0.216348
H46   H     H_    0.464915 0.713856 0.810249 0.410248
H47   H     H_    0.910681 0.728376 0.366564 0.404427
H48   H     H_    0.164275 0.336743 0.615847 0.404554
H49   H     H_    0.284653 0.895778 0.373312 0.405741
H50   H     H_    0.535399 0.286287 0.810258 0.410006
H51   H     H_    0.087179 0.269991 0.366121 0.404625
H52   H     H_    0.839173 0.665916 0.615649 0.400933
H53   H     H_    0.717168 0.899232 0.627525 0.406798
H54   H     H_    0.327168 0.152231 0.384060 0.408525
H55   H     H_    0.884578 0.293875 0.622959 0.407162
H56   H     H_    0.668436 0.280042 0.775976 0.216905
H57   H     H_    0.284433 0.536110 0.186757 0.411198
H58   H     H_    0.284804 0.103096 0.626867 0.401313
H59   H     H_    0.673462 0.847923 0.383800 0.400866
H60   H     H_    0.106485 0.712588 0.625629 0.402165
H61   H     H_    0.871958 0.306072 0.380481 0.399025
H62   H     H_    0.213096 0.605545 0.874073 0.401630
H63   H     H_    0.805884 0.372159 0.119582 0.399178
H64   H     H_    0.397788 0.215827 0.872930 0.401192
H65   H     H_    0.652666 0.827498 0.115931 0.399830
H66   H     H_    0.794033 0.384331 0.877137 0.406747
H67   H     H_    0.192293 0.246391 0.301883 0.214928
H68   H     H_    0.035116 0.787461 0.308796 0.409519
H69   H     H_    0.601741 0.783462 0.872619 0.406371
H70   H     H_    0.348014 0.173622 0.116224 0.408359
H71   H     H_    0.229051 0.411348 0.133740 0.403348
H72   H     H_    0.834179 0.661340 0.884263 0.404542
H73   H     H_    0.395209 0.784994 0.126496 0.403521
H74   H     H_    0.784139 0.036089 0.686623 0.411010
H75   H     H_    0.771095 0.588527 0.133215 0.404376
H76   H     H_    0.163216 0.335978 0.884198 0.400826
H77   H     H_    0.549620 0.267851 0.165411 0.408832
H78   H     H_    0.765442 0.713085 0.691604 0.210631
H79   H     H_    0.213752 0.965070 0.689981 0.410075
H80   H     H_    0.747724 0.801995 0.695452 0.213625
O1    O     O_3   0.500000 0.000000 0.250000 -0.576432
O2    O     O_R   0.500000 0.045450 0.668550 -0.612666
O3    O     O_2   0.938061 0.337640 0.683732 -0.300724
O4    O     O_3   0.866373 0.282515 0.646049 -0.517480
O5    O     O_2   0.211348 0.528168 0.241462 -0.247506
O6    O     O_2   0.173472 0.562946 0.183352 -0.269971
O7    O     O_3   0.277757 0.574224 0.194844 -0.518745
O8    O     O_2   0.380060 0.135343 0.658350 -0.266730
O9    O     O_2   0.334794 0.056722 0.687131 -0.266748
O10   O     O_3   0.275295 0.124106 0.649310 -0.520746
O11   O     O_2   0.643030 0.915666 0.327408 -0.289996
O12   O     O_2   0.589286 0.831636 0.335917 -0.239544
O13   O     O_R   0.045450 0.500000 0.331450 -0.622850
O14   O     O_3   0.688902 0.833727 0.360451 -0.521789
O15   O     O_2   0.136552 0.616253 0.658489 -0.256377
O16   O     O_2   0.059222 0.665402 0.685651 -0.305043
O17   O     O_3   0.129898 0.720862 0.647256 -0.519026
O18   O     O_2   0.928924 0.346973 0.321632 -0.283781
O19   O     O_2   0.846193 0.396129 0.340026 -0.253680
O20   O     O_3   0.853986 0.293578 0.357482 -0.521588
O21   O     O_2   0.116182 0.636346 0.841446 -0.255199
O22   O     O_2   0.165678 0.559231 0.814283 -0.307520
O23   O     O_3   0.220783 0.630080 0.852785 -0.517709
O24   O     O_R   0.954550 0.500000 0.668550 -0.596444
O25   O     O_2   0.847033 0.428965 0.178408 -0.283709
O26   O     O_2   0.895999 0.346173 0.159905 -0.253755
O27   O     O_3   0.793427 0.354163 0.142581 -0.521009
O28   O     O_2   0.364653 0.120289 0.841750 -0.267626
O29   O     O_2   0.443371 0.165117 0.812784 -0.266366
O30   O     O_3   0.376315 0.225048 0.850627 -0.521350
O31   O     O_2   0.584651 0.857678 0.172278 -0.294278
O32   O     O_2   0.668934 0.911146 0.164195 -0.239607
O33   O     O_3   0.666587 0.811739 0.139246 -0.521797
O34   O     O_2   0.886626 0.359063 0.841267 -0.252048
O35   O     O_R   1.000000 0.545450 0.831450 -0.595267
O36   O     O_2   0.837821 0.438089 0.816291 -0.299441
O37   O     O_3   0.782445 0.366546 0.853930 -0.517695
O38   O     O_2   0.028315 0.711291 0.258332 -0.254866
O39   O     O_2   0.062751 0.673649 0.316607 -0.262485
O40   O     O_3   0.074196 0.777876 0.305003 -0.516826
O41   O     O_2   0.635031 0.878948 0.841847 -0.263418
O42   O     O_2   0.556249 0.834752 0.812501 -0.264261
O43   O     O_3   0.622816 0.774127 0.850180 -0.518909
O44   O     O_2   0.415733 0.143133 0.172620 -0.283634
O45   O     O_2   0.331719 0.089394 0.164077 -0.244651
O46   O     O_R   1.000000 0.454550 0.168550 -0.597626
O47   O     O_3   0.333812 0.189025 0.139579 -0.519711
O48   O     O_2   0.132105 0.368983 0.156739 -0.258431
O49   O     O_2   0.165776 0.448036 0.191446 -0.261939
O50   O     O_3   0.236500 0.389101 0.156007 -0.521901
O51   O     O_2   0.861078 0.589603 0.829318 -0.287221
O52   O     O_2   0.915727 0.673768 0.833852 -0.233806
O53   O     O_3   0.817529 0.674036 0.860915 -0.521325
O54   O     O_2   0.367123 0.881100 0.158656 -0.259340
O55   O     O_2   0.443025 0.832100 0.187517 -0.296895
O56   O     O_3   0.373309 0.776173 0.148665 -0.518769
O57   O     O_R   0.454550 0.000000 0.831450 -0.613868
O58   O     O_2   0.712588 0.028233 0.742372 -0.251170
O59   O     O_2   0.673050 0.061173 0.684261 -0.270776
O60   O     O_3   0.777374 0.074236 0.694671 -0.518831
O61   O     O_2   0.870794 0.616189 0.160606 -0.275649
O62   O     O_2   0.819524 0.547478 0.195763 -0.275844
O63   O     O_3   0.765051 0.614124 0.154000 -0.515747
O64   O     O_2   0.137739 0.408994 0.829777 -0.289539
O65   O     O_2   0.082852 0.325043 0.833035 -0.239660
O66   O     O_3   0.180430 0.323863 0.860866 -0.524015
O67   O     O_2   0.570004 0.161292 0.177707 -0.295559
O68   O     O_R   0.545450 0.000000 0.168550 -0.608476
O69   O     O_2   0.530627 0.210387 0.230256 -0.257825
O70   O     O_3   0.583106 0.266740 0.180790 -0.515892
O71   O     O_2   0.286844 0.971622 0.743574 -0.253394
O72   O     O_2   0.326433 0.939932 0.685187 -0.271696
O73   O     O_3   0.222179 0.926268 0.695503 -0.518987
O74   O     O_R   1.000000 0.454550 0.831450 -0.596265
O75   O     O_R   0.000000 0.545450 0.168550 -0.622630
O76   O     O_R   0.545450 0.000000 0.831450 -0.617832
O77   O     O_3   0.500000 0.000000 0.750000 -0.569778
O78   O     O_R   0.454550 0.000000 0.168550 -0.596054
O79   O     O_R   0.564020 0.890520 0.271340 -0.591855
O80   O     O_R   0.435980 0.109480 0.728660 -0.588152
O81   O     O_R   0.109480 0.564020 0.271340 -0.602744
O82   O     O_R   0.890520 0.435980 0.728660 -0.596580
O83   O     O_R   0.435980 0.109480 0.271340 -0.577470
O84   O     O_R   0.564020 0.890520 0.728660 -0.589098
O85   O     O_R   0.890520 0.435980 0.271340 -0.592556
O86   O     O_R   0.109480 0.564020 0.728660 -0.597090
O87   O     O_R   0.564020 0.109480 0.728660 -0.600841
O88   O     O_3   0.000000 0.500000 0.250000 -0.570729
O89   O     O_R   0.435980 0.890520 0.271340 -0.598244
O90   O     O_R   0.109480 0.435980 0.728660 -0.586182
O91   O     O_R   0.890520 0.564020 0.271340 -0.603706
O92   O     O_R   0.435980 0.890520 0.728660 -0.602869
O93   O     O_R   0.564020 0.109480 0.271340 -0.602845
O94   O     O_R   0.890520 0.564020 0.728660 -0.587064
O95   O     O_R   0.109480 0.435980 0.271340 -0.589105
O96   O     O_R   0.064020 0.390520 0.771340 -0.586255
O97   O     O_R   0.935980 0.609480 0.228660 -0.588932
O98   O     O_R   0.609480 0.064020 0.771340 -0.603308
O99   O     O_3   0.000000 0.500000 0.750000 -0.577951
O100  O     O_R   0.390520 0.935980 0.228660 -0.598769
O101  O     O_R   0.935980 0.609480 0.771340 -0.586840
O102  O     O_R   0.064020 0.390520 0.228660 -0.603813
O103  O     O_R   0.390520 0.935980 0.771340 -0.600945
O104  O     O_R   0.609480 0.064020 0.228660 -0.601361
O105  O     O_R   0.064020 0.609480 0.228660 -0.601962
O106  O     O_R   0.935980 0.390520 0.771340 -0.596287
O107  O     O_R   0.609480 0.935980 0.228660 -0.577423
O108  O     O_R   0.390520 0.064020 0.771340 -0.588151
O109  O     O_R   0.935980 0.390520 0.228660 -0.592568
O110  O     O_R   0.500000 0.045450 0.331450 -0.612029
O111  O     O_R   0.064020 0.609480 0.771340 -0.597315
O112  O     O_R   0.390520 0.064020 0.228660 -0.591948
O113  O     O_R   0.609480 0.935980 0.771340 -0.588853
O114  O     O_2   0.640636 0.971520 0.030545 -0.485691
O115  O     O_2   0.359183 0.027994 0.969530 -0.483984
O116  O     O_2   0.071955 0.624265 0.030592 -0.490330
O117  O     O_2   0.926609 0.375970 0.969323 -0.490270
O118  O     O_2   0.385934 0.086825 0.030661 -0.497078
O119  O     O_2   0.613920 0.912711 0.969409 -0.490522
O120  O     O_2   0.987978 0.356798 0.030478 -0.482194
O121  O     O_R   0.500000 0.954550 0.668550 -0.618096
O122  O     O_2   0.010421 0.643245 0.969466 -0.484282
O123  O     O_2   0.142902 0.514493 0.530541 -0.484402
O124  O     O_2   0.857161 0.483927 0.469519 -0.482157
O125  O     O_2   0.451576 0.134997 0.530523 -0.484567
O126  O     O_2   0.547956 0.864833 0.469434 -0.485059
O127  O     O_2   0.878067 0.423108 0.530672 -0.490878
O128  O     O_2   0.122189 0.575472 0.469411 -0.490214
O129  O     O_2   0.602447 0.899854 0.530490 -0.492554
O130  O     O_2   0.397137 0.099982 0.469452 -0.499042
O131  O     O_2   0.661224 0.069959 0.322272 -0.300946
O132  O     O_R   0.954550 0.500000 0.331450 -0.597263
O133  O     O_2   0.710423 0.030605 0.269767 -0.256497
O134  O     O_3   0.766662 0.083117 0.319275 -0.516697
O135  O     O_2   0.471548 0.786857 0.756457 -0.254901
O136  O     O_2   0.439761 0.826386 0.814816 -0.267376
O137  O     O_3   0.426177 0.722128 0.804475 -0.518907
O138  O     O_2   0.869109 0.631284 0.343090 -0.258242
O139  O     O_2   0.947950 0.666135 0.308665 -0.260580
O140  O     O_3   0.888207 0.735845 0.344393 -0.521570
O141  O     O_2   0.091272 0.362171 0.670197 -0.286884
O142  O     O_2   0.175090 0.417244 0.667036 -0.233379
O143  O     O_R   0.045450 0.500000 0.668550 -0.594935
O144  O     O_3   0.176581 0.319676 0.639183 -0.521790
O145  O     O_2   0.381156 0.867109 0.341356 -0.250439
O146  O     O_2   0.332112 0.943013 0.312507 -0.296536
O147  O     O_3   0.276227 0.873268 0.351365 -0.517623
O148  O     O_2   0.528290 0.212760 0.757379 -0.254671
O149  O     O_2   0.560797 0.173187 0.815596 -0.270225
O150  O     O_3   0.574206 0.277447 0.805242 -0.519408
O151  O     O_2   0.115486 0.370510 0.339288 -0.274396
O152  O     O_2   0.047221 0.318947 0.303904 -0.276845
O153  O     O_3   0.113875 0.264744 0.345840 -0.514979
O154  O     O_R   0.500000 0.954550 0.331450 -0.591878
O155  O     O_2   0.910727 0.638814 0.670693 -0.289342
O156  O     O_2   0.826433 0.584393 0.666046 -0.240496
O157  O     O_3   0.826531 0.682589 0.639011 -0.523105
O158  O     O_2   0.621639 0.864882 0.657872 -0.265599
O159  O     O_2   0.664876 0.943902 0.687553 -0.265015
O160  O     O_3   0.726391 0.878059 0.649938 -0.518345
O161  O     O_2   0.357525 0.084525 0.327691 -0.289309
O162  O     O_2   0.411083 0.168733 0.335835 -0.244539
O163  O     O_3   0.311677 0.166473 0.360766 -0.518427
O164  O     O_2   0.859180 0.386681 0.658792 -0.252256
S1    S     S_3+6 0.707670 0.078539 0.295670 0.060190
S2    S     S_3+6 0.355216 0.145943 0.327682 0.067606
S3    S     S_3+6 0.877852 0.333991 0.675814 0.060632
S4    S     S_3+6 0.214681 0.573233 0.213346 0.074906
S5    S     S_3+6 0.329061 0.116183 0.677623 0.058720
S6    S     S_3+6 0.645153 0.854230 0.327502 0.065921
S7    S     S_3+6 0.119129 0.668651 0.676584 0.054433
S8    S     S_3+6 0.868032 0.342528 0.326306 0.060251
S9    S     S_3+6 0.168677 0.619138 0.823390 0.054282
S10   S     S_3+6 0.842477 0.368082 0.173704 0.060605
S11   S     S_3+6 0.383974 0.171107 0.822370 0.059025
S12   S     S_3+6 0.427528 0.784762 0.785405 0.072916
S13   S     S_3+6 0.646065 0.855299 0.172325 0.064289
S14   S     S_3+6 0.834005 0.377880 0.824203 0.060897
S15   S     S_3+6 0.073225 0.714746 0.286568 0.075575
S16   S     S_3+6 0.615573 0.828395 0.822173 0.064410
S17   S     S_3+6 0.354301 0.145254 0.172514 0.069710
S18   S     S_3+6 0.177933 0.390268 0.180356 0.066059
S19   S     S_3+6 0.859321 0.650993 0.827549 0.072009
S20   S     S_3+6 0.383465 0.829038 0.177548 0.056702
S21   S     S_3+6 0.714779 0.072790 0.713766 0.072975
S22   S     S_3+6 0.819175 0.605393 0.181943 0.057272
S23   S     S_3+6 0.890007 0.677624 0.319749 0.066242
S24   S     S_3+6 0.139392 0.347703 0.827428 0.066567
S25   S     S_3+6 0.578558 0.207698 0.204348 0.062038
S26   S     S_3+6 0.284782 0.927624 0.714589 0.071901
S27   S     S_3+6 0.152550 0.360656 0.672606 0.071959
S28   S     S_3+6 0.329072 0.883443 0.322471 0.060615
S29   S     S_3+6 0.572701 0.214886 0.786119 0.071780
S30   S     S_3+6 0.105064 0.318854 0.317892 0.057510
S31   S     S_3+6 0.849341 0.640738 0.672392 0.066939
S32   S     S_3+6 0.671802 0.884706 0.677786 0.064170
Zn1   Zn    Zn3+2 0.564990 0.000000 0.219470 1.148754
Zn2   Zn    Zn3+2 0.935010 0.500000 0.280530 1.151110
Zn3   Zn    Zn3+2 0.500000 0.064990 0.719470 1.145160
Zn4   Zn    Zn3+2 0.500000 0.935010 0.280530 1.150557
Zn5   Zn    Zn3+2 0.935010 0.500000 0.719470 1.147083
Zn6   Zn    Zn3+2 0.064990 0.500000 0.280530 1.138375
Zn7   Zn    Zn3+2 0.500000 0.935010 0.719470 1.140928
Zn8   Zn    Zn3+2 0.500000 0.064990 0.280530 1.145832
Zn9   Zn    Zn3+2 0.435010 0.000000 0.780530 1.144664
Zn10  Zn    Zn3+2 1.000000 0.564990 0.219470 1.138701
Zn11  Zn    Zn3+2 1.000000 0.435010 0.780530 1.147363
Zn12  Zn    Zn3+2 0.435010 0.000000 0.219470 1.147985
Zn13  Zn    Zn3+2 0.564990 0.000000 0.780530 1.141050
Zn14  Zn    Zn3+2 1.000000 0.435010 0.219470 1.150981
Zn15  Zn    Zn3+2 1.000000 0.564990 0.780530 1.148268
Zn16  Zn    Zn3+2 0.064990 0.500000 0.719470 1.148475

loop_
_geom_bond_atom_site_label_1
_geom_bond_atom_site_label_2
_ccdc_geom_bond_type
C73   H30   S    
C72   C112  S    
O60   S21   S    
O104  Zn1   S    
C41   C61   A    
C6    C166  A    
O45   S17   D    
O101  Zn15  S    
C122  C161  A    
H64   O30   S    
O31   S13   D    
O86   Zn16  S    
C3    H13   S    
C56   C140  S    
C20   C55   A    
O26   S10   D    
C25   C164  A    
C96   C99   A    
O57   Zn9   S    
C1    C68   S    
O27   S10   S    
C118  C153  S    
C7    C42   A    
H46   O137  S    
O1    Zn12  S    
C81   O125  D    
O9    S5    D    
C45   C56   A    
C83   O127  D    
C50   C52   A    
C1    C15   A    
C25   C60   A    
C97   C115  A    
C169  H4    S    
O161  S2    D    
C33   C69   A    
C32   C172  A    
C29   C64   A    
C16   C89   A    
C34   S9    S    
C17   S1    S    
C71   C108  S    
O58   S21   D    
C96   C114  A    
C60   C146  S    
C15   C50   A    
C16   H26   S    
O77   Zn7   S    
C17   C52   A    
C109  C118  A    
O99   Zn16  S    
O159  S32   D    
O24   Zn5   S    
C27   S2    S    
O163  S2    S    
O112  Zn12  S    
O137  S12   S    
H76   O66   S    
C112  C120  A    
H68   O40   S    
O12   S6    D    
C98   C102  A    
C139  O87   A    
C111  C160  A    
C34   C174  A    
O133  S1    D    
H79   O73   S    
H74   O60   S    
C90   C126  S    
C70   O114  D    
O158  S32   D    
C97   C103  A    
O84   Zn7   S    
H70   O47   S    
C76   C107  S    
C107  C110  A    
C105  C118  A    
O34   S14   D    
H61   O20   S    
C94   C150  T    
C141  O96   A    
O109  Zn14  S    
C78   H36   S    
C107  C120  A    
C104  C117  A    
C82   O126  D    
C91   C125  S    
C28   S3    S    
C13   C133  S    
O164  S3    D    
C93   C123  S    
O88   Zn10  S    
C10   C122  A    
C22   C58   A    
C9    H19   S    
C22   S29   S    
C47   S21   S    
C3    C46   A    
C25   S31   S    
C165  H80   S    
O53   S19   S    
C103  C116  A    
C134  O106  A    
C49   C55   A    
C175  H10   S    
O48   S18   D    
H47   O140  S    
O142  S27   D    
O111  Zn15  S    
H71   O50   S    
O155  S31   D    
C28   C168  A    
H65   O33   S    
O49   S18   D    
C28   C63   A    
C167  H2    S    
C147  O95   A    
C36   C175  A    
C20   C160  A    
C35   C170  A    
C12   H22   S    
C138  O86   A    
C29   C169  A    
O70   S25   S    
C59   C147  S    
O76   Zn13  S    
O7    S4    S    
O66   S24   S    
C131  O108  A    
C40   S15   S    
C2    C144  S    
O41   S16   D    
C2    C7    A    
O141  S27   D    
O52   S19   D    
O14   S6    S    
C83   H40   S    
C73   C110  S    
C23   C59   A    
O37   S14   S    
C113  C148  S    
C77   C106  S    
C32   S7    S    
O75   Zn10  S    
C128  O57   A    
C80   O124  D    
C67   C138  S    
C86   C97   S    
O35   Zn15  S    
C143  O103  A    
O25   S10   D    
O153  S30   S    
C173  H8    S    
C37   C65   A    
C135  O83   A    
C163  H67   S    
C141  O90   A    
H48   O144  S    
C17   C157  A    
C72   O116  D    
C43   S18   S    
O77   Zn13  S    
H57   O7    S    
O88   Zn14  S    
O29   S11   D    
O139  S23   D    
C87   C128  S    
C15   H25   S    
C74   H31   S    
C71   H28   S    
C147  O102  A    
C121  O110  A    
C4    H14   S    
C135  O112  A    
C5    H15   S    
C84   H41   S    
O69   S25   D    
O102  Zn14  S    
C13   C168  A    
C130  O79   A    
O56   S20   S    
C137  O85   A    
O46   Zn14  S    
C132  O81   A    
C82   H39   S    
O99   Zn11  S    
C51   C53   A    
C84   C95   S    
C62   C135  S    
C85   H42   S    
C27   C62   A    
C10   H20   S    
C79   C153  T    
C125  O24   A    
O154  Zn4   S    
O148  S29   D    
O147  S28   S    
O63   S22   S    
C26   S32   S    
C10   C45   A    
C82   C102  S    
O134  S1    S    
C75   O119  D    
O77   Zn3   S    
O11   S6    D    
H73   O56   S    
C131  O80   A    
H51   O153  S    
C19   C54   A    
O20   S8    S    
O21   S9    D    
C87   C152  T    
C32   C67   A    
C80   C99   S    
H66   O37   S    
C81   C103  S    
O89   Zn4   S    
C77   O122  D    
C85   O129  D    
C108  C117  A    
C164  H78   S    
O83   Zn8   S    
C158  H12   S    
C110  C119  A    
C68   C173  A    
O67   S25   D    
C80   H37   S    
O144  S27   S    
O18   S8    D    
H72   O53   S    
O152  S30   D    
O138  S23   D    
C74   C105  S    
C172  H7    S    
C31   C171  A    
C83   C96   S    
O44   S17   D    
O61   S22   D    
C123  O121  A    
C42   S17   S    
O79   Zn4   S    
C30   C65   A    
C73   O117  D    
C61   C136  S    
O88   Zn6   S    
C116  C151  S    
C162  H56   S    
C95   C101  A    
H54   O163  S    
C78   C101  S    
C76   H33   S    
O136  S12   D    
C26   C165  A    
C48   S22   S    
C55   C141  S    
C106  C119  A    
C92   C148  T    
C11   C47   A    
C8    C43   A    
O47   S17   S    
O146  S28   D    
C133  C162  A    
C127  O46   A    
O100  Zn12  S    
C71   O115  D    
O105  Zn10  S    
O99   Zn15  S    
O95   Zn6   S    
H49   O147  S    
C165  C166  A    
C51   S26   S    
C57   C89   S    
C88   C156  T    
O151  S30   D    
C26   C61   A    
C88   C127  S    
O51   S19   D    
C92   C124  S    
C174  H9    S    
C22   C162  A    
C142  O91   A    
C140  O100  A    
H75   O63   S    
C79   C129  S    
C120  C156  S    
O110  Zn8   S    
H60   O17   S    
C30   C170  A    
C46   C100  S    
C102  C115  A    
C18   C53   A    
C68   C175  A    
C64   C132  S    
O42   S16   D    
O55   S20   D    
C16   C51   A    
C8    H18   S    
O38   S15   D    
O97   Zn10  S    
C90   C154  T    
O73   S26   S    
O62   S22   D    
C57   C172  A    
C159  H23   S    
C145  O93   A    
C126  O74   A    
C101  C114  A    
O72   S26   D    
C145  O104  A    
O74   Zn11  S    
O98   Zn13  S    
O6    S4    D    
O43   S16   S    
C63   C134  S    
C130  O107  A    
O156  S31   D    
O121  Zn7   S    
O143  Zn16  S    
O80   Zn3   S    
C14   H24   S    
C45   S20   S    
O10   S5    S    
C18   S12   S    
C84   O128  D    
C18   C158  A    
O77   Zn9   S    
C75   H32   S    
C41   S16   S    
C129  O68   A    
O132  Zn2   S    
O94   Zn5   S    
C129  O78   A    
O64   S24   D    
O92   Zn7   S    
C54   C142  S    
H77   O70   S    
C119  C154  S    
O145  S28   D    
C137  O109  A    
C75   C104  S    
C93   C151  T    
O1    Zn4   S    
C140  O89   A    
O22   S9    D    
O8    S5    D    
C176  H11   S    
C91   C149  T    
C70   H27   S    
C50   S25   S    
O157  S31   S    
O140  S23   S    
C34   C67   A    
C99   C113  A    
C21   C56   A    
O39   S15   D    
O28   S11   D    
C72   H29   S    
C168  H3    S    
C160  H34   S    
H55   O4    S    
C19   C159  A    
O135  S12   D    
O113  Zn13  S    
C37   C176  A    
C33   S8    S    
C136  O113  A    
C44   C60   A    
C86   H43   S    
C12   C100  A    
C121  O154  A    
C57   C174  A    
C94   C121  S    
O85   Zn2   S    
C128  O76   A    
C5    C40   A    
C6    H16   S    
C86   O130  D    
C21   S28   S    
C114  C149  S    
C136  O84   A    
O1    Zn8   S    
H52   O157  S    
H53   O160  S    
C58   C139  S    
C31   C66   A    
C30   S5    S    
C52   C145  S    
C37   S11   S    
C132  O105  A    
C171  H6    S    
C12   C48   A    
C100  C159  A    
O87   Zn3   S    
O3    S3    D    
C89   C158  A    
C106  C112  A    
O13   Zn6   S    
H59   O14   S    
C48   C54   A    
C78   O123  D    
C44   S19   S    
C35   C176  A    
C11   C133  A    
C104  C109  A    
H58   O10   S    
C14   C49   A    
C155  C166  S    
C39   S14   S    
C46   C171  A    
O5    S4    D    
O88   Zn2   S    
C4    C13   A    
O93   Zn8   S    
C85   C98   S    
O149  S29   D    
O162  S2    D    
O91   Zn2   S    
C38   C66   A    
C3    C38   A    
C6    C41   A    
C134  O82   A    
C31   S6    S    
C7    H17   S    
C33   C173  A    
O81   Zn6   S    
O65   S24   D    
O71   S26   D    
O99   Zn5   S    
O50   S18   S    
C49   S24   S    
C125  O143  A    
C139  O98   A    
C146  O94   A    
C23   S30   S    
C24   C122  S    
C65   C131  S    
C23   C163  A    
C123  O2    A    
C69   C137  S    
C14   C111  A    
C105  C108  A    
C124  O13   A    
C21   C161  A    
O33   S13   S    
O2    Zn3   S    
O36   S14   D    
O19   S8    D    
H62   O23   S    
H50   O150  S    
O106  Zn11  S    
O107  Zn1   S    
O96   Zn11  S    
C143  O92   A    
H63   O27   S    
H44   O134  S    
O17   S7    S    
C161  H45   S    
O68   Zn1   S    
C53   C143  S    
C11   H21   S    
O150  S29   S    
C36   S10   S    
C70   C109  S    
O40   S15   S    
C76   O120  D    
H69   O43   S    
C98   C116  A    
C81   H38   S    
C4    C39   A    
C20   S27   S    
O15   S7    D    
C8    C144  A    
C157  H1    S    
C24   C169  A    
C9    C155  A    
C29   S4    S    
C170  H5    S    
O54   S20   D    
O32   S13   D    
O30   S11   S    
C35   C111  S    
C36   C69   A    
C124  O132  A    
C42   C62   A    
C9    C44   A    
C19   S23   S    
C127  O75   A    
O1    Zn1   S    
O103  Zn9   S    
O108  Zn9   S    
C146  O101  A    
O82   Zn5   S    
O23   S9    S    
C43   C59   A    
C155  C164  A    
C39   C63   A    
C40   C64   A    
O4    S3    S    
O160  S32   S    
C1    C157  A    
C138  O111  A    
C144  C163  A    
C38   S13   S    
C47   C58   A    
O90   Zn16  S    
O16   S7    D    
C5    C24   A    
C95   C113  A    
C115  C150  S    
O59   S21   D    
C117  C152  S    
C74   O118  D    
O78   Zn12  S    
C77   H35   S    
C126  O35   A    
O131  S1    D    
C142  O97   A    
C2    C167  A    
C27   C167  A    
C66   C130  S    
