data_mof_unit_48443.cif
_audit_creation_date              2013-03-05T16:44:17-0500
_audit_creation_method            fapswitch 2.2
_symmetry_space_group_name_H-M    P1
_symmetry_Int_Tables_number       1
_space_group_crystal_system       triclinic
_cell_length_a                    23.400903
_cell_length_b                    10.584067
_cell_length_c                    9.933361
_cell_angle_alpha                 90.030283
_cell_angle_beta                  89.078231
_cell_angle_gamma                 90.997963
_cell_volume                      2459.57073385

loop_
_atom_site_label
_atom_site_type_symbol
_atom_site_description
_atom_site_fract_x
_atom_site_fract_y
_atom_site_fract_z
_atom_type_partial_charge
O1    O     O_R   0.500010 0.316790 0.614690 -0.619475
O2    O     O_R   0.500000 0.316760 0.385350 -0.542092
C1    C     C_R   0.506772 0.261148 0.499499 0.925021
O3    O     O_R   0.416160 0.499980 0.614700 -0.631507
O4    O     O_R   0.416150 0.499940 0.385360 -0.589171
C2    C     C_R   0.389633 0.500526 0.501190 0.905824
Zn1   Zn    Zn3+2 0.500000 0.500020 0.653130 1.019200
Zn2   Zn    Zn3+2 0.500000 0.499980 0.346870 1.102521
O5    O     O_R   0.500000 0.683240 0.614650 -0.603828
O6    O     O_R   0.499990 0.683210 0.385310 -0.591361
O7    O     O_R   0.583850 0.500060 0.614640 -0.630756
O8    O     O_R   0.583840 0.500020 0.385300 -0.574275
C3    C     C_R   0.502704 0.740481 0.499908 0.909729
C4    C     C_R   0.610592 0.498509 0.499273 0.923724
C5    C     C_R   0.879739 0.600676 0.511634 0.586571
N1    N     N_R   0.852635 0.486713 0.491922 -0.343851
C6    C     C_R   0.882153 0.378760 0.466070 0.576699
C7    C     C_R   0.941856 0.382182 0.462340 -0.023220
C8    C     C_R   0.970533 0.497672 0.487946 -0.008918
C9    C     C_R   0.939339 0.608175 0.512381 -0.021226
C10   C     C_R   0.973373 0.273092 0.435698 -0.124424
C11   C     C_R   0.032856 0.278269 0.435898 -0.117284
C12   C     C_R   0.061765 0.392285 0.464311 -0.023529
C13   C     C_R   0.030542 0.502439 0.490350 -0.009654
C14   C     C_R   0.059160 0.617113 0.519920 -0.021378
C15   C     C_R   0.027693 0.726922 0.543091 -0.127624
C16   C     C_R   0.968271 0.722645 0.538565 -0.120864
C17   C     C_R   0.121336 0.399065 0.468747 0.595129
N2    N     N_R   0.148271 0.510116 0.502700 -0.344647
C18   C     C_R   0.118724 0.618341 0.527015 0.566511
O9    O     O_2   0.848918 0.705919 0.531363 -0.504586
O10   O     O_2   0.853700 0.268516 0.445892 -0.508366
H1    H     H_    0.056029 0.192460 0.415526 0.201367
O11   O     O_2   0.152262 0.295694 0.440074 -0.497451
O12   O     O_2   0.146992 0.726135 0.559283 -0.517509
C19   C     C_R   0.240401 0.581589 0.413234 -0.072292
H2    H     H_    0.218662 0.635934 0.337866 0.186828
C20   C     C_R   0.299551 0.578946 0.411566 -0.115019
C21   C     C_R   0.327772 0.504746 0.504648 -0.091293
C22   C     C_R   0.296878 0.437515 0.603634 -0.249184
C23   C     C_R   0.237306 0.443046 0.609993 0.368338
C24   C     C_R   0.209068 0.513330 0.510811 0.163334
C25   C     C_R   0.761890 0.459384 0.379574 -0.105195
C26   C     C_R   0.702749 0.463219 0.380132 -0.093224
C27   C     C_R   0.672832 0.492085 0.498882 -0.120952
C28   C     C_R   0.702570 0.511091 0.618958 -0.225005
H3    H     H_    0.679471 0.530430 0.711833 0.214765
C29   C     C_R   0.762060 0.503545 0.620788 0.363554
C30   C     C_R   0.791739 0.480750 0.498478 0.164264
C31   C     C_R   0.528390 0.065545 0.618473 -0.018503
C32   C     C_R   0.524709 0.131939 0.498132 -0.242750
C33   C     C_R   0.536046 0.066177 0.376691 0.318573
C34   C     C_R   0.529168 0.934879 0.377522 -0.173278
H4    H     H_    0.531889 0.883258 0.283639 0.252937
C35   C     C_R   0.516652 0.872160 0.499191 -0.198386
C36   C     C_R   0.524853 0.936873 0.619227 0.068764
C37   C     C_3   0.494672 0.932422 0.753611 0.055332
C38   C     C_3   0.500482 0.077132 0.753982 0.073465
H5    H     H_    0.449867 0.896267 0.747142 0.102699
C39   C     C_R   0.449868 0.489790 0.071694 0.037195
N3    N     N_R   0.499610 0.499140 0.142800 -0.165885
C40   C     C_R   0.548186 0.532118 0.068358 0.383240
C41   C     C_R   0.548211 0.527274 0.925106 -0.008546
H6    H     H_    0.586893 0.549932 0.868629 0.190349
N4    N     N_R   0.499610 0.499180 0.857150 -0.116288
C42   C     C_R   0.450208 0.490610 0.930554 0.139063
C43   C     C_3   0.403911 0.393941 0.918996 -0.504494
C44   C     C_3   0.401429 0.392899 0.073739 0.472974
H7    H     H_    0.419069 0.306923 0.868775 0.228847
H8    H     H_    0.952229 0.183443 0.415192 0.200358
H9    H     H_    0.680512 0.442989 0.288007 0.237576
N5    N     N_R   0.791544 0.518775 0.746147 0.229656
O13   O     O_R   0.839505 0.461907 0.766415 -0.355017
O14   O     O_R   0.767910 0.579921 0.845570 -0.297301
N6    N     N_R   0.553671 0.129155 0.254486 0.252606
O15   O     O_R   0.590186 0.223200 0.258758 -0.359201
O16   O     O_R   0.543731 0.075970 0.139114 -0.237368
N7    N     N_R   0.527107 0.869276 0.858228 0.279432
O17   O     O_R   0.575226 0.814456 0.830023 -0.320988
O18   O     O_R   0.504895 0.857557 0.978500 -0.324770
H10   H     H_    0.458709 0.125544 0.752889 0.109509
N8    N     N_R   0.540895 0.130547 0.850848 0.303138
O19   O     O_R   0.593588 0.093011 0.853536 -0.251782
O20   O     O_R   0.527333 0.231841 0.917007 -0.346360
N9    N     N_R   0.598015 0.582934 0.131328 0.220304
O21   O     O_R   0.593178 0.683327 0.205780 -0.335073
O22   O     O_R   0.648202 0.556238 0.081841 -0.361453
H11   H     H_    0.365480 0.434401 0.872638 0.218152
N10   N     N_R   0.347250 0.444165 0.124514 0.202419
O23   O     O_R   0.307275 0.367992 0.170485 -0.285100
O24   O     O_R   0.334000 0.560067 0.096269 -0.405214
N11   N     N_R   0.415236 0.271323 0.136302 0.235883
O25   O     O_R   0.425687 0.172283 0.062879 -0.324313
O26   O     O_R   0.404539 0.254605 0.263942 -0.339297
H12   H     H_    0.048816 0.816240 0.565215 0.202435
H13   H     H_    0.945120 0.808772 0.557421 0.203864
H14   H     H_    0.323356 0.635204 0.338319 0.203511
H15   H     H_    0.319269 0.380637 0.675472 0.183440
N12   N     N_R   0.206337 0.378001 0.716470 0.231798
O27   O     O_R   0.157482 0.419498 0.760603 -0.349787
O28   O     O_R   0.229509 0.284465 0.779324 -0.317168
H16   H     H_    0.784799 0.441014 0.286183 0.196580

loop_
_geom_bond_atom_site_label_1
_geom_bond_atom_site_label_2
_geom_bond_distance
_ccdc_geom_bond_type
C35   C36   1.389092 A    
C41   N4    1.360238 A    
N2    C24   1.426089 S    
C7    C10   1.403616 A    
C23   C24   1.414039 A    
C19   C24   1.399454 A    
C8    C9    1.408331 A    
C25   C26   1.385169 A    
C33   N6    1.436372 S    
C34   H4    1.082134 S    
C26   C27   1.398359 A    
Zn1   O7    1.993015 S    
C17   N2    1.368636 A    
C43   H11   1.109567 S    
N2    C18   1.367624 A    
C18   O12   1.349843 S    
C19   H2    1.083054 S    
C38   N8    1.466256 S    
C22   H15   1.081487 S    
C20   C21   1.395085 A    
O7    C4    1.297081 A    
N7    O18   1.300307 A    
C37   H5    1.112682 S    
C5    N1    1.368429 A    
C14   C18   1.396610 A    
C36   C37   1.500506 S    
C26   H9    1.079491 S    
C7    C8    1.409172 A    
O5    C3    1.291205 A    
N1    C6    1.367501 A    
C12   C13   1.408298 A    
C23   N12   1.441030 S    
N10   O24   1.302343 A    
Zn2   N3    2.027282 S    
N9    O22   1.301377 A    
C42   C43   1.482903 S    
C39   C42   1.401919 A    
C10   C11   1.392127 A    
C16   H13   1.083193 S    
C29   N5    1.440907 S    
C20   H14   1.081716 S    
C31   C32   1.391581 A    
C4    C27   1.459176 S    
C34   C35   1.403502 A    
C5    C9    1.395725 A    
C40   N9    1.428799 S    
C28   C29   1.396184 A    
C32   C33   1.416079 A    
C31   C38   1.492570 S    
C13   C14   1.409072 A    
O3    C2    1.295899 A    
C38   H10   1.111771 S    
C21   C22   1.398479 A    
C1    C32   1.437488 S    
N7    O17   1.302127 A    
C25   C30   1.398147 A    
O3    Zn1   2.004736 S    
C14   C15   1.403585 A    
N9    O21   1.299798 A    
C31   C36   1.362966 A    
C43   C44   1.537321 S    
C39   N3    1.373291 A    
C43   H7    1.108210 S    
N6    O15   1.301621 A    
C40   C41   1.423864 A    
Zn1   N4    2.026502 S    
N12   O27   1.301258 A    
Zn2   O8    2.004734 S    
C2    C21   1.448922 S    
N11   O26   1.300005 A    
C6    C7    1.396857 A    
C15   C16   1.391924 A    
C12   C17   1.395999 A    
N1    C30   1.425766 S    
N6    O16   1.299116 A    
N5    O14   1.301653 A    
C29   C30   1.412465 A    
N12   O28   1.301606 A    
O8    C4    1.302718 A    
N4    C42   1.358551 A    
N8    O20   1.298627 A    
C33   C34   1.396180 A    
C44   N10   1.469466 S    
C15   H12   1.083191 S    
Zn1   O5    1.976724 S    
C11   H1    1.083177 S    
C28   H3    1.082969 S    
C22   C23   1.396715 A    
O1    Zn1   1.976357 S    
C37   N7    1.465096 S    
O2    Zn2   1.976722 S    
N5    O13   1.301280 A    
O6    C3    1.291335 A    
O4    Zn2   1.993015 S    
C5    O9    1.350023 S    
C9    C16   1.403788 A    
C10   H8    1.083199 S    
C19   C20   1.384777 A    
O2    C1    1.291116 A    
C25   H16   1.083151 S    
C37   C38   1.535282 S    
O4    C2    1.298492 A    
N11   O25   1.301138 A    
C44   N11   1.472470 S    
C8    C13   1.404881 A    
N3    C40   1.385707 A    
C17   O11   1.350008 S    
C41   H6    1.080669 S    
C27   C28   1.403212 A    
C39   C44   1.515166 S    
Zn2   O6    1.976358 S    
N8    O19   1.302722 A    
C6    O10   1.349792 S    
C11   C12   1.403883 A    
O1    C1    1.295319 A    
N10   O23   1.301525 A    
C3    C35   1.425859 S    
