data_mof_unit_14305.cif
_audit_creation_date              2012-12-10T19:32:09-0500
_audit_creation_method            fapswitch 2.2
_symmetry_space_group_name_H-M    P1
_symmetry_Int_Tables_number       1
_space_group_crystal_system       triclinic
_cell_length_a                    23.465494
_cell_length_b                    15.726842
_cell_length_c                    14.918013
_cell_angle_alpha                 89.918687
_cell_angle_beta                  89.92462
_cell_angle_gamma                 90.552205
_cell_volume                      5505.04932825

loop_
_atom_site_label
_atom_site_type_symbol
_atom_type_description
_atom_site_fract_x
_atom_site_fract_y
_atom_site_fract_z
_atom_type_partial_charge
C1    C     C_R   0.499853 0.337485 0.500019 0.892471
C2    C     C_R   0.499960 0.662516 0.499907 0.888031
C3    C     C_R   0.239471 0.552718 0.430627 0.384550
C4    C     C_R   0.763819 0.489959 0.421545 0.377495
C5    C     C_R   0.299039 0.553183 0.431754 0.347815
C6    C     C_R   0.704468 0.482857 0.419629 0.348864
C7    C     C_R   0.327556 0.509162 0.500664 -0.261021
C8    C     C_R   0.673299 0.494841 0.499792 -0.271401
C9    C     C_R   0.297004 0.474460 0.572702 -0.293817
C10   C     C_R   0.702171 0.503116 0.581624 -0.303563
C11   C     C_R   0.237929 0.479254 0.575341 0.188662
C12   C     C_R   0.761377 0.502307 0.584833 0.191849
C13   C     C_R   0.209181 0.516785 0.502693 0.153683
C14   C     C_R   0.792156 0.497504 0.503949 0.151371
C15   C     C_3   0.545951 0.973318 0.541731 -0.311655
C16   C     C_3   0.450742 0.026685 0.455572 -0.327649
C17   C     C_3   0.543925 0.029272 0.457043 0.597698
C18   C     C_3   0.452735 0.970715 0.540393 0.581404
C19   C     C_1   0.498751 0.248685 0.499967 -0.181162
C20   C     C_1   0.499763 0.751312 0.499462 -0.189480
C21   C     C_3   0.498300 0.027628 0.584858 -0.314346
C22   C     C_3   0.498409 0.972289 0.412525 -0.322494
C23   C     C_R   0.389241 0.501623 0.500079 0.926311
C24   C     C_R   0.611006 0.498437 0.499811 0.928377
C25   C     C_3   0.497209 0.082739 0.499324 0.073306
C26   C     C_3   0.499472 0.917247 0.498113 0.077769
C27   C     C_1   0.497784 0.173472 0.499657 0.001876
C28   C     C_1   0.499634 0.826519 0.498742 -0.000345
C29   C     C_3   0.531955 0.433623 0.970181 -0.318788
C30   C     C_3   0.468512 0.565091 0.030008 -0.299952
C31   C     C_3   0.552713 0.507828 0.030034 0.590795
C32   C     C_3   0.447809 0.490904 0.970243 0.608710
C33   C     C_3   0.477834 0.424807 0.030211 -0.310698
C34   C     C_3   0.522696 0.573985 0.970101 -0.312647
C35   C     C_3   0.499580 0.499219 0.089615 -0.005868
C36   C     C_3   0.500897 0.499630 0.910535 -0.006073
C37   C     C_1   0.499856 0.499635 0.189757 0.124052
C38   C     C_1   0.500365 0.499817 0.810288 0.115322
C39   C     C_R   0.879494 0.576971 0.518620 0.534483
C40   C     C_R   0.121749 0.440347 0.478792 0.538176
C41   C     C_R   0.881957 0.427902 0.489388 0.589543
C42   C     C_R   0.119599 0.586993 0.519320 0.587058
C43   C     C_R   0.941684 0.428359 0.490744 -0.185193
C44   C     C_R   0.059890 0.585377 0.523914 -0.188399
C45   C     C_R   0.970678 0.506515 0.504948 -0.119000
C46   C     C_R   0.030766 0.508652 0.503258 -0.119497
C47   C     C_R   0.939591 0.582490 0.519954 -0.075633
C48   C     C_R   0.061718 0.434407 0.480167 -0.076101
C49   C     C_R   0.972751 0.352916 0.476656 0.504552
C50   C     C_R   0.028952 0.658608 0.548092 0.505809
C51   C     C_R   0.031808 0.357122 0.461896 0.074094
C52   C     C_R   0.969511 0.660028 0.537241 0.075399
H1    H     H_    0.558422 0.380317 0.945723 0.151579
H2    H     H_    0.441524 0.617839 0.054416 0.156075
H3    H     H_    0.541624 0.634668 0.945617 0.152332
H4    H     H_    0.459354 0.364197 0.055563 0.151238
H5    H     H_    0.319205 0.443015 0.626977 0.199682
H6    H     H_    0.678663 0.509828 0.643784 0.199447
H7    H     H_    0.584692 0.949126 0.575442 0.154722
H8    H     H_    0.412077 0.050560 0.421346 0.156016
H9    H     H_    0.499658 0.947632 0.342867 0.155364
H10   H     H_    0.497252 0.052236 0.654543 0.156126
N1    N     N_R   0.852924 0.500849 0.504328 -0.325926
N2    N     N_R   0.148462 0.514989 0.499474 -0.325258
N3    N     N_1   0.500020 0.500000 0.268010 -0.093463
N4    N     N_1   0.499980 0.500000 0.731990 -0.095188
O1    O     O_R   0.500000 0.376780 0.574460 -0.613313
O2    O     O_R   0.500000 0.623220 0.425540 -0.623143
O3    O     O_R   0.500010 0.376780 0.425520 -0.621745
O4    O     O_R   0.499990 0.623220 0.574480 -0.602848
O5    O     O_R   0.416150 0.499970 0.574490 -0.617518
O6    O     O_R   0.583850 0.500030 0.425510 -0.579124
O7    O     O_R   0.416160 0.499980 0.425550 -0.583559
O8    O     O_R   0.583840 0.500020 0.574450 -0.628299
O9    O     O_2   0.847018 0.645985 0.532295 -0.588318
O10   O     O_2   0.154077 0.372530 0.458889 -0.589382
O11   O     O_2   0.852470 0.355734 0.471748 -0.529868
O12   O     O_2   0.149166 0.659757 0.533546 -0.522066
Zn1   Zn    Zn3+2 0.499990 0.500000 0.599450 0.977721
Zn2   Zn    Zn3+2 0.500010 0.500000 0.400550 0.992620
O13   O     O_3   0.945388 0.274383 0.472748 -0.608515
C53   C     C_3   0.934205 0.244200 0.560791 0.154395
H11   H     H_    0.896060 0.201949 0.557102 0.188753
H12   H     H_    0.923345 0.295822 0.609011 0.113282
C54   C     C_3   0.984257 0.192381 0.596667 -0.418309
H13   H     H_    0.995791 0.142627 0.547203 0.242149
H14   H     H_    0.021705 0.234917 0.607070 0.223247
C55   C     C_3   0.969327 0.149857 0.685762 -0.938573
H15   H     H_    0.958213 0.198535 0.736597 0.263340
H16   H     H_    0.006537 0.113515 0.710310 0.271141
H17   H     H_    0.932786 0.105187 0.677196 0.264820
O14   O     O_3   0.056681 0.731125 0.579127 -0.609080
C56   C     C_3   0.070439 0.721224 0.671153 0.155385
H18   H     H_    0.108531 0.761667 0.684741 0.188460
H19   H     H_    0.082549 0.654910 0.689262 0.114062
C57   C     C_3   0.021602 0.751010 0.731384 -0.421251
H20   H     H_    0.009069 0.816429 0.711834 0.239702
H21   H     H_    0.984235 0.707882 0.723137 0.223500
C58   C     C_3   0.039018 0.750855 0.829897 -0.940540
H22   H     H_    0.051135 0.685778 0.851201 0.263071
H23   H     H_    0.002672 0.772007 0.871773 0.270471
H24   H     H_    0.075565 0.795026 0.840869 0.265215
O15   O     O_3   0.607584 0.516096 0.067840 -0.639097
C59   C     C_3   0.648527 0.524049 0.998992 0.071507
H25   H     H_    0.641524 0.583403 0.959908 0.137023
H26   H     H_    0.646714 0.468248 0.953147 0.133079
C60   C     C_3   0.707848 0.528317 0.040993 -0.292223
H27   H     H_    0.710384 0.583439 0.087417 0.230178
H28   H     H_    0.715431 0.469389 0.080292 0.225865
C61   C     C_3   0.754088 0.537605 0.969469 -0.988563
H29   H     H_    0.752712 0.482628 0.922816 0.265595
H30   H     H_    0.796619 0.539868 0.001893 0.273878
H31   H     H_    0.748152 0.597294 0.930835 0.268360
O16   O     O_3   0.392626 0.483575 0.933287 -0.648194
C62   C     C_3   0.351718 0.466247 0.000813 0.069073
H32   H     H_    0.315334 0.509841 0.990383 0.165624
H33   H     H_    0.367219 0.477692 0.070552 0.127446
C63   C     C_3   0.330144 0.374539 0.991563 -0.338592
H34   H     H_    0.312187 0.365037 0.923343 0.233237
H35   H     H_    0.366146 0.329999 0.000185 0.215260
C64   C     C_3   0.284302 0.353664 0.061023 -0.962357
H36   H     H_    0.300893 0.364124 0.129889 0.268040
H37   H     H_    0.271103 0.285980 0.054398 0.269477
H38   H     H_    0.246385 0.393989 0.050143 0.266662
C65   C     C_3   0.061082 0.278548 0.425821 -0.754519
H39   H     H_    0.030832 0.227518 0.405618 0.247865
H40   H     H_    0.085442 0.295032 0.364248 0.254690
H41   H     H_    0.089580 0.251207 0.477471 0.251722
C66   C     C_3   0.939792 0.745136 0.543855 -0.758816
H42   H     H_    0.969741 0.799879 0.548666 0.247521
H43   H     H_    0.914404 0.756495 0.482316 0.255908
H44   H     H_    0.912208 0.746807 0.604309 0.250592
O17   O     O_3   0.210228 0.594001 0.363260 -0.621261
C67   C     C_3   0.206918 0.540460 0.287588 0.093887
H45   H     H_    0.189303 0.476561 0.305735 0.150519
H46   H     H_    0.249838 0.532920 0.256854 0.179513
C68   C     C_3   0.167285 0.580945 0.218884 -0.310800
H47   H     H_    0.123598 0.584563 0.247494 0.229366
H48   H     H_    0.182379 0.646632 0.203671 0.234244
C69   C     C_3   0.165361 0.529896 0.132070 -0.987742
H49   H     H_    0.208094 0.529967 0.099997 0.261241
H50   H     H_    0.134637 0.559266 0.085009 0.271464
H51   H     H_    0.151532 0.463345 0.145607 0.271668
O18   O     O_3   0.794954 0.482293 0.343291 -0.623345
C70   C     C_3   0.798427 0.562653 0.301355 0.094848
H52   H     H_    0.817774 0.610805 0.347226 0.154616
H53   H     H_    0.755339 0.584182 0.280398 0.172533
C71   C     C_3   0.836012 0.555528 0.218129 -0.325735
H54   H     H_    0.879049 0.533485 0.238121 0.234947
H55   H     H_    0.817131 0.507884 0.171593 0.229163
C72   C     C_3   0.841813 0.640768 0.169825 -0.974187
H56   H     H_    0.799342 0.663628 0.148248 0.267103
H57   H     H_    0.869100 0.633264 0.109546 0.269126
H58   H     H_    0.861842 0.688809 0.214640 0.272094
O19   O     O_3   0.328544 0.593594 0.363042 -0.633286
C73   C     C_3   0.352134 0.671507 0.393946 0.127094
H59   H     H_    0.392044 0.683510 0.355629 0.172254
H60   H     H_    0.364432 0.670548 0.466194 0.107247
C74   C     C_3   0.311239 0.744918 0.376290 -0.347413
H61   H     H_    0.300278 0.746829 0.303856 0.236882
H62   H     H_    0.271399 0.734913 0.415365 0.262686
C75   C     C_3   0.337903 0.829900 0.403603 -0.939792
H63   H     H_    0.348010 0.829351 0.476245 0.298554
H64   H     H_    0.307469 0.882021 0.390285 0.268312
H65   H     H_    0.377600 0.842356 0.364883 0.265084
O20   O     O_3   0.677797 0.469464 0.337962 -0.615855
C76   C     C_3   0.660799 0.383033 0.330259 0.160402
H66   H     H_    0.622882 0.380761 0.285734 0.180549
H67   H     H_    0.647169 0.353967 0.395269 0.106286
C77   C     C_3   0.708075 0.330014 0.287652 -0.340997
H68   H     H_    0.722076 0.360236 0.223810 0.238719
H69   H     H_    0.745147 0.327203 0.333735 0.263755
C78   C     C_3   0.687503 0.239426 0.268802 -0.952848
H70   H     H_    0.673328 0.208088 0.331888 0.283540
H71   H     H_    0.722859 0.202086 0.239548 0.271195
H72   H     H_    0.651542 0.239938 0.220458 0.267542
C79   C     C_3   0.207160 0.443227 0.655810 -0.841971
H73   H     H_    0.160701 0.455274 0.654441 0.225377
H74   H     H_    0.213819 0.373494 0.659116 0.247593
H75   H     H_    0.224419 0.472816 0.717767 0.231888
C80   C     C_3   0.789957 0.506748 0.675169 -0.842139
H76   H     H_    0.836841 0.499715 0.671106 0.230312
H77   H     H_    0.780497 0.568698 0.707257 0.249141
H78   H     H_    0.773330 0.454752 0.718655 0.223162
O21   O     O_3   0.590825 0.067548 0.412909 -0.649957
C81   C     C_3   0.629861 0.005310 0.383993 0.057459
H79   H     H_    0.639744 0.017971 0.312321 0.169189
H80   H     H_    0.613337 0.938548 0.387775 0.127335
C82   C     C_3   0.684910 0.013324 0.438244 -0.340646
H81   H     H_    0.702768 0.078655 0.430581 0.235183
H82   H     H_    0.675553 0.002390 0.510371 0.217780
C83   C     C_3   0.729175 0.949255 0.407230 -0.934600
H83   H     H_    0.712678 0.883325 0.416111 0.266029
H84   H     H_    0.768576 0.956910 0.447680 0.270896
H85   H     H_    0.739946 0.959934 0.335531 0.263515
O22   O     O_3   0.406033 0.932212 0.584694 -0.651254
C84   C     C_3   0.366771 0.995113 0.609936 0.059811
H86   H     H_    0.349228 0.027287 0.549586 0.143817
H87   H     H_    0.387326 0.043153 0.654555 0.140861
C85   C     C_3   0.317490 0.952811 0.660646 -0.307505
H88   H     H_    0.296797 0.904328 0.617000 0.232600
H89   H     H_    0.334217 0.920283 0.721220 0.229495
C86   C     C_3   0.273122 0.017763 0.689160 -0.956407
H90   H     H_    0.292646 0.066118 0.734146 0.262739
H91   H     H_    0.237995 0.985015 0.725779 0.268287
H92   H     H_    0.255040 0.049954 0.629430 0.269222

loop_
_geom_bond_atom_site_label_1
_geom_bond_atom_site_label_2
_ccdc_geom_bond_type
O2    Zn2   S    
C86   H90   S    
C6    O20   S    
C56   H18   S    
C84   C85   S    
C18   C21   S    
C60   H28   S    
C18   C26   S    
C69   H51   S    
C67   C68   S    
C59   H26   S    
O16   C62   S    
C76   H67   S    
C78   H70   S    
C74   C75   S    
N4    Zn1   S    
C86   H91   S    
C29   C36   S    
C29   H1    S    
C30   C35   S    
C52   C66   S    
C32   C36   S    
C73   H59   S    
C10   H6    S    
C69   H50   S    
C66   H42   S    
C2    O2    A    
C54   H13   S    
C68   C69   S    
C41   O11   S    
C78   H72   S    
C77   H68   S    
C62   H32   S    
C57   C58   S    
C29   C33   S    
C84   H87   S    
C16   H8    S    
C72   H58   S    
C49   O13   S    
C82   H82   S    
C63   H34   S    
C64   H38   S    
C61   H30   S    
C33   C35   S    
C61   H29   S    
C48   C51   A    
C12   C80   S    
C17   O21   S    
C85   H88   S    
C49   C51   A    
C37   N3    T    
C65   H41   S    
C50   C52   A    
C72   H56   S    
C74   H62   S    
C11   C79   S    
C39   O9    S    
C19   C27   T    
C9    H5    S    
C3    C13   A    
C66   H44   S    
C62   C63   S    
C33   H4    S    
C54   H14   S    
C65   H39   S    
C34   H3    S    
C56   H19   S    
N3    Zn2   S    
C29   C31   S    
C41   C43   A    
C82   H81   S    
C42   C44   A    
C23   O7    A    
O5    Zn1   S    
C59   H25   S    
C70   H53   S    
C44   C46   A    
C70   H52   S    
C76   C77   S    
C75   H64   S    
C45   C47   A    
C86   H92   S    
C46   C48   A    
C1    C19   S    
C30   C34   S    
C18   O22   S    
C51   C65   S    
C83   H85   S    
C38   N4    T    
C71   C72   S    
O1    Zn1   S    
C69   H49   S    
C85   H89   S    
C4    C6    A    
C80   H77   S    
C76   H66   S    
C5    C7    A    
C43   C49   A    
C15   C26   S    
C6    C8    A    
C20   C28   T    
C62   H33   S    
C80   H76   S    
C2    C20   S    
C53   H11   S    
O13   C53   S    
C40   O10   S    
C57   H21   S    
C3    O17   S    
C63   C64   S    
C83   H84   S    
C82   C83   S    
C23   O5    A    
C75   H65   S    
C30   H2    S    
C74   H61   S    
C55   H17   S    
C60   H27   S    
C79   H75   S    
C57   H20   S    
C64   H36   S    
C31   C34   S    
C16   C18   S    
C71   H54   S    
C43   C45   A    
C61   H31   S    
C21   H10   S    
C47   C52   A    
C78   H71   S    
C10   C12   A    
C63   H35   S    
C50   O14   S    
C58   H23   S    
C55   H16   S    
C42   O12   S    
C56   C57   S    
C53   H12   S    
O8    Zn1   S    
C9    C11   A    
O20   C76   S    
C60   C61   S    
C31   C35   S    
C45   C46   A    
C41   N1    A    
C81   H80   S    
C42   N2    A    
O19   C73   S    
C70   C71   S    
C24   O6    A    
C39   C47   A    
C75   H63   S    
C54   C55   S    
C44   C50   A    
C16   C25   S    
C40   C48   A    
C21   C25   S    
C16   C22   S    
C80   H78   S    
C35   C37   S    
O4    Zn1   S    
C68   H48   S    
C15   H7    S    
C73   C74   S    
C71   H55   S    
O22   C84   S    
C3    C5    A    
C4    O18   S    
C67   H46   S    
C15   C17   S    
C67   H45   S    
C1    O1    A    
C25   C27   S    
C53   C54   S    
C39   N1    A    
C68   H47   S    
C26   C28   S    
C17   C22   S    
C40   N2    A    
C58   H22   S    
O18   C70   S    
C17   C25   S    
C83   H83   S    
C81   C82   S    
C73   H60   S    
C12   C14   A    
O6    Zn2   S    
C5    O19   S    
C32   C33   S    
C22   H9    S    
C30   C32   S    
C11   C13   A    
C24   O8    A    
O21   C81   S    
O17   C67   S    
C13   N2    S    
C77   H69   S    
C85   C86   S    
C7    C23   S    
C14   N1    S    
C36   C38   S    
O14   C56   S    
C8    C24   S    
O7    Zn2   S    
C79   H74   S    
C34   C36   S    
C72   H57   S    
C4    C14   A    
C84   H86   S    
C1    O3    A    
C64   H37   S    
C7    C9    A    
C15   C21   S    
C58   H24   S    
C55   H15   S    
C8    C10   A    
C79   H73   S    
C22   C26   S    
O15   C59   S    
C65   H40   S    
O3    Zn2   S    
C32   O16   S    
C81   H79   S    
C2    O4    A    
C59   C60   S    
C31   O15   S    
C66   H43   S    
C77   C78   S    
