data_mof_unit_35080.cif
_audit_creation_date              2012-12-10T16:55:03-0500
_audit_creation_method            fapswitch 2.2
_symmetry_space_group_name_H-M    P1
_symmetry_Int_Tables_number       1
_space_group_crystal_system       triclinic
_cell_length_a                    9.728536
_cell_length_b                    10.935054
_cell_length_c                    15.513947
_cell_angle_alpha                 89.810318
_cell_angle_beta                  73.901605
_cell_angle_gamma                 89.548387
_cell_volume                      1585.63790789

loop_
_atom_site_label
_atom_site_type_symbol
_atom_type_description
_atom_site_fract_x
_atom_site_fract_y
_atom_site_fract_z
_atom_type_partial_charge
C1    C     C_R   0.999982 0.265450 0.501079 0.849756
C2    C     C_R   0.669725 0.476816 0.905991 0.090494
C3    C     C_R   0.766512 0.436156 0.953735 0.172203
C4    C     C_R   0.520749 0.486960 0.950892 0.067936
C5    C     C_R   0.472770 0.466093 0.045139 0.070691
C6    C     C_R   0.572966 0.424121 0.089796 -0.240014
C7    C     C_R   0.716683 0.409450 0.044752 -0.245974
C8    C     C_R   0.417761 0.514139 0.904400 -0.222276
C9    C     C_R   0.273774 0.526950 0.949243 -0.239998
C10   C     C_R   0.226710 0.515080 0.042025 0.169049
C11   C     C_R   0.325616 0.485940 0.091231 0.088400
C12   C     C_R   0.916983 0.498533 0.672046 0.794906
C13   C     C_R   0.081310 0.533333 0.086288 -0.214780
C14   C     C_R   0.032682 0.525198 0.179311 -0.196473
C15   C     C_R   0.274240 0.481838 0.185286 -0.249962
C16   C     C_2   0.885597 0.934007 0.504272 -0.156235
C17   C     C_2   0.004492 0.866516 0.493668 -0.310142
C18   C     C_2   0.887797 0.067854 0.499868 -0.156658
C19   C     C_2   0.000855 0.133384 0.505528 -0.317251
C20   C     C_2   0.419980 0.401562 0.507165 -0.100180
C21   C     C_2   0.565802 0.406701 0.523237 -0.101183
C22   C     C_R   0.000282 0.734535 0.498766 0.854386
C23   C     C_R   0.083064 0.500165 0.327906 0.800292
C24   C     C_R   0.870416 0.486390 0.770113 -0.048292
C25   C     C_R   0.129350 0.501257 0.229371 -0.049784
C26   C     C_R   0.912483 0.420860 0.909552 -0.219305
C27   C     C_R   0.964114 0.445244 0.818138 -0.199052
C28   C     C_R   0.725903 0.505764 0.814688 -0.247726
Cu1   Cu    Cu3+1 0.138640 0.500020 0.499980 0.942118
Cu2   Cu    Cu3+1 0.861360 0.499980 0.500020 0.939688
H1    H     H_    0.789487 0.376867 0.081663 0.146414
H2    H     H_    0.005403 0.555966 0.049043 0.141767
H3    H     H_    0.782358 0.890524 0.515510 0.159665
H4    H     H_    0.109668 0.906807 0.479303 0.145749
H5    H     H_    0.791334 0.113226 0.493486 0.157245
H6    H     H_    0.096258 0.091575 0.515797 0.141609
H7    H     H_    0.374654 0.312330 0.503150 0.157459
H8    H     H_    0.378446 0.578987 0.523203 0.211875
H9    H     H_    0.600108 0.327592 0.554381 0.148156
H10   H     H_    0.345802 0.467441 0.226238 0.156637
H11   H     H_    0.920474 0.540949 0.212028 0.162195
H12   H     H_    0.198870 0.548054 0.910884 0.147969
H13   H     H_    0.986240 0.387302 0.945362 0.140478
H14   H     H_    0.076176 0.428936 0.784739 0.155335
H15   H     H_    0.659558 0.543893 0.776126 0.149556
H16   H     H_    0.543499 0.398087 0.159473 0.140656
H17   H     H_    0.443798 0.523193 0.832588 0.144044
N1    N     N_2   0.346430 0.498660 0.500980 -0.274605
N2    N     N_2   0.652550 0.498630 0.501000 -0.222885
O1    O     O_R   0.117050 0.321960 0.499980 -0.589222
O2    O     O_R   0.882890 0.321920 0.500020 -0.584837
O3    O     O_R   0.052910 0.500040 0.629810 -0.579397
O4    O     O_R   0.818750 0.499990 0.629840 -0.580853
O5    O     O_R   0.117110 0.678080 0.499980 -0.581346
O6    O     O_R   0.882950 0.678040 0.500020 -0.580865
O7    O     O_R   0.181250 0.500010 0.370160 -0.568177
O8    O     O_R   0.947090 0.499960 0.370190 -0.585910
C29   C     C_R   0.632256 0.583118 0.435155 0.353721
C30   C     C_R   0.608568 0.707342 0.457012 -0.183261
C31   C     C_R   0.592074 0.791561 0.392560 -0.173457
C32   C     C_R   0.600206 0.752406 0.305617 -0.087549
C33   C     C_R   0.625181 0.629058 0.282955 -0.191377
C34   C     C_R   0.641917 0.544542 0.347208 -0.147273
H18   H     H_    0.600303 0.738005 0.524535 0.121775
H19   H     H_    0.572863 0.887134 0.410060 0.128384
H20   H     H_    0.587514 0.817682 0.255745 0.131194
H21   H     H_    0.632637 0.599228 0.215415 0.144284
H22   H     H_    0.662628 0.449369 0.328726 0.120216

loop_
_geom_bond_atom_site_label_1
_geom_bond_atom_site_label_2
_ccdc_geom_bond_type
C31   H19   S    
C2    C4    A    
Cu2   O2    S    
Cu1   Cu2   S    
Cu1   O7    S    
C16   H3    S    
Cu2   O6    S    
C12   C24   S    
C13   H2    S    
H8    N1    S    
C17   C22   S    
C21   H9    S    
C24   C27   A    
C4    C8    A    
Cu1   O5    S    
C21   N2    D    
C2    C3    A    
C9    H12   S    
C8    H17   S    
C30   C31   A    
C22   O5    A    
C20   N1    D    
C13   C14   A    
C20   H7    S    
C1    O2    A    
C26   C27   A    
C33   C34   A    
C12   O4    A    
C33   H21   S    
C31   C32   A    
C14   H11   S    
C5    C6    A    
C32   H20   S    
C9    C10   A    
C12   O3    A    
Cu2   N2    S    
C26   H13   S    
C5    C11   A    
C6    C7    A    
C3    C7    A    
C19   H6    S    
C23   C25   S    
C14   C25   A    
C32   C33   A    
C28   H15   S    
Cu2   O4    S    
C15   H10   S    
C15   C25   A    
C7    H1    S    
C10   C11   A    
Cu1   N1    S    
Cu2   O8    S    
C30   H18   S    
C23   O7    A    
C20   C21   S    
C18   H5    S    
C8    C9    A    
C16   C18   S    
C18   C19   D    
C17   H4    S    
C29   C34   A    
C23   O8    A    
C34   H22   S    
C16   C17   D    
C2    C28   A    
C22   O6    A    
C6    H16   S    
C29   C30   A    
C1    O1    A    
C1    C19   S    
C11   C15   A    
C27   H14   S    
C10   C13   A    
C3    C26   A    
N2    C29   S    
C24   C28   A    
Cu1   O1    S    
C4    C5    A    
Cu1   O3    S    
