data_mof_unit_60450.cif
_audit_creation_date              2012-12-10T20:23:25-0500
_audit_creation_method            fapswitch 2.2
_symmetry_space_group_name_H-M    P1
_symmetry_Int_Tables_number       1
_space_group_crystal_system       triclinic
_cell_length_a                    35.529437
_cell_length_b                    35.529401
_cell_length_c                    47.09166
_cell_angle_alpha                 90.000129
_cell_angle_beta                  90.000043
_cell_angle_gamma                 89.999943
_cell_volume                      59445.6679293

loop_
_atom_site_label
_atom_site_type_symbol
_atom_type_description
_atom_site_fract_x
_atom_site_fract_y
_atom_site_fract_z
_atom_type_partial_charge
C1    C     C_R   0.573389 1.000000 0.000000 0.886694
C2    C     C_R   1.000000 0.573388 1.000000 0.887906
C3    C     C_R   0.426611 0.000000 0.000000 0.886691
C4    C     C_R   0.000000 0.426611 1.000000 0.887907
C5    C     C_R   0.073389 0.500000 0.500000 0.886690
C6    C     C_R   0.500000 0.073388 0.500000 0.887900
C7    C     C_R   0.926611 0.500000 0.500000 0.886690
C8    C     C_R   0.500000 0.926611 0.500000 0.887901
C9    C     C_R   0.500000 1.000000 0.913477 -0.129206
C10   C     C_R   1.000000 0.500000 0.913477 -0.129263
C11   C     C_R   0.500000 0.000000 0.086522 -0.129186
C12   C     C_R   0.000000 0.500000 0.086523 -0.129285
C13   C     C_R   0.000000 0.500000 0.413477 -0.129217
C14   C     C_R   0.500000 0.000000 0.413476 -0.129310
C15   C     C_R   1.000000 0.500000 0.586524 -0.129220
C16   C     C_R   0.500000 0.000000 0.586523 -0.129286
C17   C     C_R   0.499999 1.000000 0.854088 0.278613
C18   C     C_R   1.000000 0.500000 0.854053 0.273785
C19   C     C_R   0.499999 0.000000 0.145910 0.278576
C20   C     C_R   0.000000 0.500000 0.145948 0.273764
C21   C     C_R   0.000001 0.500000 0.354088 0.278605
C22   C     C_R   0.500000 0.000000 0.354051 0.273741
C23   C     C_R   1.000000 0.500000 0.645913 0.278661
C24   C     C_R   0.500000 0.000000 0.645948 0.273760
C25   C     C_R   0.826635 0.000865 0.025864 0.271177
C26   C     C_R   0.999044 0.826635 0.025862 0.271165
C27   C     C_R   0.173365 0.999114 0.025864 0.271177
C28   C     C_R   0.000957 0.173365 0.025862 0.271164
C29   C     C_R   0.826635 0.999135 0.974136 0.271176
C30   C     C_R   0.999043 0.173365 0.974137 0.271165
C31   C     C_R   0.173365 0.000887 0.974136 0.271176
C32   C     C_R   0.000956 0.826635 0.974137 0.271164
C33   C     C_R   0.326635 0.500864 0.525864 0.271176
C34   C     C_R   0.499044 0.326635 0.525862 0.271164
C35   C     C_R   0.673365 0.499136 0.525864 0.271176
C36   C     C_R   0.500957 0.673365 0.525863 0.271164
C37   C     C_R   0.326635 0.499135 0.474135 0.271176
C38   C     C_R   0.499044 0.673365 0.474138 0.271164
C39   C     C_R   0.673365 0.500864 0.474136 0.271176
C40   C     C_R   0.500956 0.326635 0.474137 0.271164
C41   C     C_R   0.865792 0.000843 0.025762 -0.203263
C42   C     C_R   0.999068 0.865792 0.025760 -0.203363
C43   C     C_R   0.134208 0.999136 0.025762 -0.203263
C44   C     C_R   0.000933 0.134208 0.025760 -0.203363
C45   C     C_R   0.865792 0.999157 0.974238 -0.203262
C46   C     C_R   0.999067 0.134208 0.974240 -0.203363
C47   C     C_R   0.134209 0.000864 0.974238 -0.203262
C48   C     C_R   0.000932 0.865792 0.974239 -0.203363
C49   C     C_R   0.365791 0.500842 0.525762 -0.203262
C50   C     C_R   0.499068 0.365792 0.525760 -0.203363
C51   C     C_R   0.634208 0.499158 0.525762 -0.203262
C52   C     C_R   0.500933 0.634208 0.525761 -0.203363
C53   C     C_R   0.365792 0.499157 0.474238 -0.203262
C54   C     C_R   0.499068 0.634208 0.474240 -0.203363
C55   C     C_R   0.634208 0.500842 0.474238 -0.203262
C56   C     C_R   0.500932 0.365792 0.474239 -0.203363
C57   C     C_R   0.885597 1.000000 1.000000 -0.152619
C58   C     C_R   1.000000 0.885597 1.000000 -0.152569
C59   C     C_R   0.114403 0.000000 0.000000 -0.152618
C60   C     C_R   0.000000 0.114403 0.000000 -0.152569
C61   C     C_R   0.385597 0.500000 0.500000 -0.152619
C62   C     C_R   0.500000 0.385597 0.500000 -0.152570
C63   C     C_R   0.614403 0.500000 0.500000 -0.152619
C64   C     C_R   0.500000 0.614403 0.500000 -0.152570
C65   C     C_R   0.807060 1.000000 0.000000 -0.023315
C66   C     C_R   1.000000 0.807060 1.000000 -0.023560
C67   C     C_R   0.192940 0.000000 0.000000 -0.023316
C68   C     C_R   1.000000 0.192940 0.000000 -0.023560
C69   C     C_R   0.307060 0.500000 0.500000 -0.023315
C70   C     C_R   0.500000 0.307060 0.500000 -0.023560
C71   C     C_R   0.692940 0.500000 0.500000 -0.023315
C72   C     C_R   0.500000 0.692940 0.500000 -0.023560
C73   C     C_1   0.767021 1.000000 0.000000 0.108936
C74   C     C_1   1.000000 0.767021 0.999999 0.108991
C75   C     C_1   0.232979 0.000000 0.000000 0.108934
C76   C     C_1   0.000000 0.232979 1.000000 0.108991
C77   C     C_1   0.267021 0.500000 0.500000 0.108936
C78   C     C_1   0.500000 0.267021 0.500000 0.108991
C79   C     C_1   0.732979 0.500000 0.500000 0.108936
C80   C     C_1   0.500000 0.732979 0.500000 0.108991
C81   C     C_1   0.733423 1.000000 0.000000 0.022672
C82   C     C_1   1.000000 0.733423 0.999999 0.023045
C83   C     C_1   0.266577 0.000000 0.000000 0.022666
C84   C     C_1   0.000000 0.266577 1.000000 0.023045
C85   C     C_1   0.233423 0.500000 0.500000 0.022672
C86   C     C_1   0.500000 0.233423 0.500000 0.023044
C87   C     C_1   0.766576 0.500000 0.500000 0.022672
C88   C     C_1   0.500000 0.766577 0.500001 0.023044
C89   C     C_R   0.673527 0.034104 0.003150 0.010092
C90   C     C_R   0.965899 0.673526 0.003168 0.010524
C91   C     C_R   0.326473 0.965900 0.003172 0.010088
C92   C     C_R   0.034101 0.326473 0.003169 0.010524
C93   C     C_R   0.673527 0.965896 0.996850 0.010095
C94   C     C_R   0.965899 0.326473 0.996830 0.010523
C95   C     C_R   0.326473 0.034100 0.996829 0.010090
C96   C     C_R   0.034101 0.673526 0.996831 0.010523
C97   C     C_R   0.173527 0.534104 0.503148 0.010095
C98   C     C_R   0.465899 0.173526 0.503168 0.010525
C99   C     C_R   0.826473 0.465896 0.503148 0.010096
C100  C     C_R   0.534101 0.826473 0.503168 0.010525
C101  C     C_R   0.173527 0.465896 0.496852 0.010095
C102  C     C_R   0.465899 0.826473 0.496833 0.010526
C103  C     C_R   0.826473 0.534104 0.496852 0.010095
C104  C     C_R   0.534101 0.173527 0.496833 0.010526
C105  C     C_R   0.634325 0.033916 0.003099 -0.209065
C106  C     C_R   0.966087 0.634324 0.003117 -0.208207
C107  C     C_R   0.365676 0.966087 0.003121 -0.209067
C108  C     C_R   0.033913 0.365676 0.003118 -0.208206
C109  C     C_R   0.634325 0.966083 0.996901 -0.209081
C110  C     C_R   0.966087 0.365676 0.996881 -0.208193
C111  C     C_R   0.365676 0.033913 0.996879 -0.209083
C112  C     C_R   0.033913 0.634324 0.996882 -0.208192
C113  C     C_R   0.134325 0.533917 0.503097 -0.209084
C114  C     C_R   0.466086 0.134324 0.503117 -0.208204
C115  C     C_R   0.865675 0.466083 0.503098 -0.209085
C116  C     C_R   0.533914 0.865676 0.503117 -0.208203
C117  C     C_R   0.134325 0.466083 0.496902 -0.209083
C118  C     C_R   0.466087 0.865676 0.496884 -0.208219
C119  C     C_R   0.865675 0.533917 0.496902 -0.209083
C120  C     C_R   0.533913 0.134324 0.496884 -0.208219
C121  C     C_R   0.500000 1.000000 0.944598 0.875816
C122  C     C_R   1.000000 0.500000 0.944598 0.877338
C123  C     C_R   0.500000 1.000000 0.055402 0.875827
C124  C     C_R   0.000000 0.500000 0.055402 0.877333
C125  C     C_R   0.000000 0.500000 0.444598 0.875813
C126  C     C_R   0.500000 1.000000 0.444598 0.877327
C127  C     C_R   0.000000 0.500000 0.555402 0.875807
C128  C     C_R   0.500000 0.000000 0.555402 0.877335
C129  C     C_R   0.614566 1.000000 0.000000 -0.072314
C130  C     C_R   1.000000 0.614566 1.000000 -0.071786
C131  C     C_R   0.385434 0.000000 0.000000 -0.072311
C132  C     C_R   0.000000 0.385434 1.000000 -0.071786
C133  C     C_R   0.114566 0.500000 0.500000 -0.072318
C134  C     C_R   0.500000 0.114566 0.500000 -0.071790
C135  C     C_R   0.885434 0.500000 0.500000 -0.072318
C136  C     C_R   0.500000 0.885434 0.500000 -0.071790
C137  C     C_R   0.693210 1.000000 0.000000 0.044270
C138  C     C_R   1.000000 0.693210 0.999999 0.044607
C139  C     C_R   0.306790 0.000000 0.000000 0.044265
C140  C     C_R   0.000000 0.306790 1.000000 0.044607
C141  C     C_R   0.193210 0.500000 0.500000 0.044272
C142  C     C_R   0.500000 0.193210 0.500000 0.044609
C143  C     C_R   0.806790 0.500000 0.500000 0.044272
C144  C     C_R   0.500000 0.806790 0.500001 0.044609
C145  C     C_R   0.514482 0.030381 0.690462 0.517286
C146  C     C_R   0.985701 0.530467 0.690352 0.518210
C147  C     C_R   0.485518 0.969619 0.690462 0.517285
C148  C     C_R   0.014299 0.469533 0.690352 0.518210
C149  C     C_R   0.514446 0.969602 0.309536 0.517280
C150  C     C_R   0.985738 0.469515 0.309648 0.518206
C151  C     C_R   0.485554 0.030398 0.309536 0.517280
C152  C     C_R   0.014263 0.530484 0.309648 0.518207
C153  C     C_R   0.014484 0.530380 0.190462 0.517284
C154  C     C_R   0.485776 0.030503 0.190350 0.518207
C155  C     C_R   0.985516 0.469620 0.190462 0.517285
C156  C     C_R   0.514222 0.969498 0.190350 0.518206
C157  C     C_R   0.014519 0.469637 0.809538 0.517289
C158  C     C_R   0.485739 0.969515 0.809649 0.518208
C159  C     C_R   0.985480 0.530363 0.809539 0.517290
C160  C     C_R   0.514260 0.030485 0.809649 0.518208
C161  C     C_R   0.485340 0.968919 0.720185 -0.022248
C162  C     C_R   0.014609 0.468887 0.720073 -0.022897
C163  C     C_R   0.514660 0.031082 0.720185 -0.022248
C164  C     C_R   0.985391 0.531114 0.720073 -0.022896
C165  C     C_R   0.485377 0.031099 0.279814 -0.022243
C166  C     C_R   0.014572 0.531131 0.279927 -0.022888
C167  C     C_R   0.514622 0.968901 0.279814 -0.022243
C168  C     C_R   0.985429 0.468868 0.279927 -0.022888
C169  C     C_R   0.985338 0.468919 0.220184 -0.022248
C170  C     C_R   0.514530 0.968850 0.220071 -0.022885
C171  C     C_R   0.014663 0.531080 0.220184 -0.022248
C172  C     C_R   0.485468 0.031150 0.220071 -0.022885
C173  C     C_R   0.985300 0.531063 0.779816 -0.022254
C174  C     C_R   0.514568 0.031132 0.779928 -0.022890
C175  C     C_R   0.014699 0.468937 0.779816 -0.022254
C176  C     C_R   0.485431 0.968868 0.779927 -0.022890
C177  C     C_R   0.500000 0.000000 0.735102 -0.017247
C178  C     C_R   1.000000 0.500000 0.734991 -0.017125
C179  C     C_R   0.499999 0.000000 0.264897 -0.017249
C180  C     C_R   0.000001 0.500000 0.265009 -0.017128
C181  C     C_R   0.000000 0.500000 0.235101 -0.017248
C182  C     C_R   0.499999 0.000000 0.234989 -0.017129
C183  C     C_R   1.000000 0.500000 0.764899 -0.017244
C184  C     C_R   0.500000 0.000000 0.765009 -0.017127
C185  C     C_R   0.470830 0.938053 0.735259 -0.142021
C186  C     C_R   0.029176 0.438052 0.735146 -0.142533
C187  C     C_R   0.529169 0.061947 0.735260 -0.142021
C188  C     C_R   0.970824 0.561948 0.735146 -0.142534
C189  C     C_R   0.470905 0.061982 0.264740 -0.142023
C190  C     C_R   0.029102 0.561983 0.264854 -0.142536
C191  C     C_R   0.529094 0.938018 0.264739 -0.142023
C192  C     C_R   0.970899 0.438017 0.264854 -0.142536
C193  C     C_R   0.970826 0.438055 0.235259 -0.142022
C194  C     C_R   0.529020 0.937980 0.235144 -0.142536
C195  C     C_R   0.029174 0.561945 0.235259 -0.142022
C196  C     C_R   0.470978 0.062020 0.235144 -0.142537
C197  C     C_R   0.970751 0.561910 0.764741 -0.142020
C198  C     C_R   0.529096 0.061985 0.764855 -0.142535
C199  C     C_R   0.029248 0.438090 0.764741 -0.142020
C200  C     C_R   0.470903 0.938015 0.764854 -0.142535
C201  C     C_R   1.000000 0.073211 0.000000 0.911800
C202  C     C_R   0.926789 1.000000 1.000000 0.911790
C203  C     C_R   0.000000 0.926789 1.000000 0.911801
C204  C     C_R   0.073211 0.000000 0.000000 0.911788
C205  C     C_R   0.500000 0.573211 0.500000 0.911801
C206  C     C_R   0.426789 0.500000 0.500000 0.911790
C207  C     C_R   0.500000 0.426789 0.500000 0.911801
C208  C     C_R   0.573211 0.500000 0.500000 0.911789
C209  C     C_R   0.525349 0.977171 0.868810 -0.124114
C210  C     C_R   0.022796 0.525378 0.868814 -0.122665
C211  C     C_R   0.474650 0.022829 0.868810 -0.124115
C212  C     C_R   0.977203 0.474622 0.868814 -0.122664
C213  C     C_R   0.525363 0.022813 0.131188 -0.124092
C214  C     C_R   0.022814 0.474638 0.131186 -0.122664
C215  C     C_R   0.474635 0.977187 0.131188 -0.124091
C216  C     C_R   0.977186 0.525362 0.131186 -0.122663
C217  C     C_R   0.025343 0.477163 0.368810 -0.124114
C218  C     C_R   0.522832 0.025346 0.368813 -0.122663
C219  C     C_R   0.974658 0.522836 0.368810 -0.124114
C220  C     C_R   0.477168 0.974654 0.368813 -0.122663
C221  C     C_R   0.025340 0.522839 0.631191 -0.124139
C222  C     C_R   0.522814 0.974638 0.631186 -0.122663
C223  C     C_R   0.974660 0.477161 0.631191 -0.124140
C224  C     C_R   0.477186 0.025362 0.631186 -0.122662
C225  C     C_R   0.525613 0.977008 0.898407 -0.051651
C226  C     C_R   0.022946 0.525645 0.898410 -0.053740
C227  C     C_R   0.474386 0.022991 0.898408 -0.051647
C228  C     C_R   0.977054 0.474355 0.898410 -0.053740
C229  C     C_R   0.525626 0.022976 0.101591 -0.051660
C230  C     C_R   0.022963 0.474369 0.101590 -0.053749
C231  C     C_R   0.474373 0.977024 0.101591 -0.051657
C232  C     C_R   0.977037 0.525630 0.101590 -0.053750
C233  C     C_R   0.025606 0.477000 0.398407 -0.051654
C234  C     C_R   0.522980 0.025615 0.398409 -0.053758
C235  C     C_R   0.974394 0.522999 0.398407 -0.051654
C236  C     C_R   0.477020 0.974385 0.398409 -0.053758
C237  C     C_R   0.025604 0.523002 0.601594 -0.051637
C238  C     C_R   0.522962 0.974369 0.601590 -0.053750
C239  C     C_R   0.974396 0.476999 0.601594 -0.051636
C240  C     C_R   0.477037 0.025631 0.601590 -0.053750
H1    H     H_    0.459408 0.913840 0.724258 0.199488
H2    H     H_    0.040575 0.413830 0.724144 0.199053
H3    H     H_    0.540591 0.086160 0.724259 0.199488
H4    H     H_    0.959425 0.586171 0.724144 0.199053
H5    H     H_    0.459512 0.086209 0.275740 0.199490
H6    H     H_    0.040472 0.586219 0.275857 0.199055
H7    H     H_    0.540487 0.913791 0.275740 0.199491
H8    H     H_    0.959529 0.413780 0.275857 0.199054
H9    H     H_    0.959402 0.413843 0.224258 0.199489
H10   H     H_    0.540359 0.913729 0.224141 0.199055
H11   H     H_    0.040598 0.586156 0.224258 0.199489
H12   H     H_    0.459639 0.086272 0.224142 0.199055
H13   H     H_    0.959298 0.586108 0.775742 0.199487
H14   H     H_    0.540464 0.086223 0.775857 0.199054
H15   H     H_    0.040701 0.413892 0.775742 0.199487
H16   H     H_    0.459535 0.913777 0.775857 0.199053
H17   H     H_    0.545031 0.959822 0.857049 0.152241
H18   H     H_    0.040283 0.544970 0.857083 0.155828
H19   H     H_    0.454968 0.040178 0.857049 0.152242
H20   H     H_    0.959717 0.455030 0.857083 0.155828
H21   H     H_    0.545055 0.040151 0.142950 0.152260
H22   H     H_    0.040314 0.455058 0.142917 0.155845
H23   H     H_    0.454943 0.959850 0.142949 0.152260
H24   H     H_    0.959686 0.544942 0.142917 0.155845
H25   H     H_    0.045019 0.459807 0.357049 0.152247
H26   H     H_    0.540346 0.044913 0.357082 0.155864
H27   H     H_    0.954982 0.540192 0.357048 0.152247
H28   H     H_    0.459653 0.955087 0.357082 0.155864
H29   H     H_    0.045014 0.540197 0.642952 0.152216
H30   H     H_    0.540314 0.955058 0.642917 0.155849
H31   H     H_    0.954986 0.459803 0.642952 0.152216
H32   H     H_    0.459686 0.044942 0.642917 0.155848
H33   H     H_    0.880633 0.001523 0.045845 0.201531
H34   H     H_    0.998316 0.880633 0.045841 0.201513
H35   H     H_    0.119367 0.998439 0.045844 0.201530
H36   H     H_    0.001685 0.119367 0.045841 0.201513
H37   H     H_    0.880633 0.998477 0.954155 0.201531
H38   H     H_    0.998315 0.119367 0.954159 0.201513
H39   H     H_    0.119367 0.001561 0.954156 0.201530
H40   H     H_    0.001684 0.880633 0.954159 0.201513
H41   H     H_    0.380633 0.501522 0.545844 0.201531
H42   H     H_    0.498316 0.380633 0.545841 0.201513
H43   H     H_    0.619367 0.498479 0.545845 0.201531
H44   H     H_    0.501685 0.619367 0.545841 0.201513
H45   H     H_    0.380633 0.498477 0.454155 0.201531
H46   H     H_    0.498315 0.619367 0.454159 0.201513
H47   H     H_    0.619367 0.501522 0.454155 0.201531
H48   H     H_    0.501684 0.380633 0.454159 0.201513
H49   H     H_    0.619271 0.060259 0.005598 0.175111
H50   H     H_    0.939747 0.619271 0.005630 0.174736
H51   H     H_    0.380729 0.939748 0.005637 0.175114
H52   H     H_    0.060253 0.380729 0.005632 0.174736
H53   H     H_    0.619271 0.939741 0.994402 0.175111
H54   H     H_    0.939747 0.380729 0.994367 0.174736
H55   H     H_    0.380729 0.060252 0.994364 0.175113
H56   H     H_    0.060253 0.619271 0.994369 0.174736
H57   H     H_    0.119271 0.560259 0.505595 0.175110
H58   H     H_    0.439746 0.119271 0.505629 0.174735
H59   H     H_    0.880729 0.439741 0.505596 0.175110
H60   H     H_    0.560254 0.880729 0.505629 0.174735
H61   H     H_    0.119271 0.439740 0.494405 0.175110
H62   H     H_    0.439746 0.880729 0.494372 0.174735
H63   H     H_    0.880729 0.560259 0.494404 0.175110
H64   H     H_    0.560253 0.119271 0.494371 0.174735
N1    N     N_R   0.500000 0.000000 0.676310 -0.352420
N2    N     N_R   0.000000 0.500000 0.676234 -0.353587
N3    N     N_R   0.500000 0.000000 0.323689 -0.352414
N4    N     N_R   0.000001 0.499999 0.323766 -0.353577
N5    N     N_R   1.000000 0.500000 0.176310 -0.352421
N6    N     N_R   0.499999 0.000000 0.176232 -0.353574
N7    N     N_R   1.000000 0.500000 0.823691 -0.352427
N8    N     N_R   0.499999 1.000000 0.823767 -0.353579
O1    O     O_R   0.555440 0.968650 0.000000 -0.618376
O2    O     O_R   0.031350 0.555440 0.000000 -0.618518
O3    O     O_R   0.444560 0.031350 0.000000 -0.618373
O4    O     O_R   0.968650 0.444560 0.000000 -0.618517
O5    O     O_R   0.555440 0.031350 0.000000 -0.618374
O6    O     O_R   0.031350 0.444560 0.000000 -0.618518
O7    O     O_R   0.444560 0.968650 0.000000 -0.618371
O8    O     O_R   0.968650 0.555440 0.000000 -0.618519
O9    O     O_R   0.055440 0.468650 0.500000 -0.618373
O10   O     O_R   0.531350 0.055440 0.500000 -0.618517
O11   O     O_R   0.944560 0.531350 0.500000 -0.618373
O12   O     O_R   0.468650 0.944560 0.500000 -0.618517
O13   O     O_R   0.055440 0.531350 0.500000 -0.618374
O14   O     O_R   0.531350 0.944560 0.500000 -0.618517
O15   O     O_R   0.944560 0.468650 0.500000 -0.618373
O16   O     O_R   0.468650 0.055440 0.500000 -0.618517
O17   O     O_R   0.499980 0.968650 0.958070 -0.607647
O18   O     O_R   0.031350 0.499980 0.958070 -0.608590
O19   O     O_R   0.500020 0.031350 0.958070 -0.607651
O20   O     O_R   0.968650 0.500020 0.958070 -0.608591
O21   O     O_R   0.499980 0.031350 0.041930 -0.607646
O22   O     O_R   0.031350 0.500020 0.041930 -0.608595
O23   O     O_R   0.500020 0.968650 0.041930 -0.607650
O24   O     O_R   0.968650 0.499980 0.041930 -0.608594
O25   O     O_R   0.999980 0.468650 0.458070 -0.607650
O26   O     O_R   0.531350 0.999980 0.458070 -0.608597
O27   O     O_R   0.000020 0.531350 0.458070 -0.607649
O28   O     O_R   0.468650 0.000020 0.458070 -0.608597
O29   O     O_R   0.999980 0.531350 0.541930 -0.607648
O30   O     O_R   0.531350 0.000020 0.541930 -0.608594
O31   O     O_R   0.000020 0.468650 0.541930 -0.607648
O32   O     O_R   0.468650 0.999980 0.541930 -0.608593
O33   O     O_2   0.528896 0.059645 0.675775 -0.541073
O34   O     O_2   0.971654 0.559874 0.675625 -0.539439
O35   O     O_2   0.471103 0.940355 0.675775 -0.541073
O36   O     O_2   0.028346 0.440127 0.675625 -0.539439
O37   O     O_2   0.528827 0.940321 0.324223 -0.541083
O38   O     O_2   0.971725 0.440093 0.324375 -0.539458
O39   O     O_2   0.471172 0.059679 0.324223 -0.541083
O40   O     O_2   0.028277 0.559906 0.324375 -0.539458
O41   O     O_2   0.028901 0.559643 0.175775 -0.541070
O42   O     O_2   0.471800 0.059943 0.175624 -0.539464
O43   O     O_2   0.971099 0.440357 0.175775 -0.541071
O44   O     O_2   0.528198 0.940057 0.175624 -0.539464
O45   O     O_2   0.028970 0.440391 0.824226 -0.541059
O46   O     O_2   0.471729 0.940091 0.824375 -0.539454
O47   O     O_2   0.971030 0.559609 0.824226 -0.541060
O48   O     O_2   0.528270 0.059909 0.824375 -0.539454
O49   O     O_R   0.000020 0.055270 0.976310 -0.616696
O50   O     O_R   0.944730 0.000020 0.976310 -0.616700
O51   O     O_R   0.999980 0.944730 0.976310 -0.616693
O52   O     O_R   0.055270 0.999980 0.976310 -0.616699
O53   O     O_R   0.000020 0.944730 0.023690 -0.616696
O54   O     O_R   0.944730 0.999980 0.023690 -0.616701
O55   O     O_R   0.999980 0.055270 0.023690 -0.616694
O56   O     O_R   0.055270 0.000020 0.023690 -0.616700
O57   O     O_R   0.500020 0.555270 0.476310 -0.616694
O58   O     O_R   0.444730 0.500020 0.476310 -0.616700
O59   O     O_R   0.499980 0.444730 0.476310 -0.616695
O60   O     O_R   0.555270 0.499980 0.476310 -0.616700
O61   O     O_R   0.500020 0.444730 0.523690 -0.616694
O62   O     O_R   0.444730 0.499980 0.523690 -0.616701
O63   O     O_R   0.499980 0.555270 0.523690 -0.616695
O64   O     O_R   0.555270 0.500020 0.523690 -0.616701
Zn1   Zn    Zn3+2 0.500000 0.958160 0.000000 1.015959
Zn2   Zn    Zn3+2 0.041840 0.500000 0.000000 1.013640
Zn3   Zn    Zn3+2 0.500000 0.041840 0.000000 1.015959
Zn4   Zn    Zn3+2 0.958160 0.500000 0.000000 1.013640
Zn5   Zn    Zn3+2 0.000000 0.458160 0.500000 1.015958
Zn6   Zn    Zn3+2 0.541840 0.000000 0.500000 1.013638
Zn7   Zn    Zn3+2 0.000000 0.541840 0.500000 1.015958
Zn8   Zn    Zn3+2 0.458160 0.000000 0.500000 1.013638
Zn9   Zn    Zn3+2 0.000000 0.000000 0.968380 1.016635
Zn10  Zn    Zn3+2 0.000000 0.000000 0.031620 1.016635
Zn11  Zn    Zn3+2 0.500000 0.500000 0.468380 1.016636
Zn12  Zn    Zn3+2 0.500000 0.500000 0.531620 1.016636
C241  C     C_1   0.553289 0.954069 0.912783 0.211890
N9    N     N_1   0.575467 0.935744 0.924312 -0.175082
C242  C     C_1   0.045865 0.553336 0.912790 0.213030
N10   N     N_1   0.064172 0.575527 0.924321 -0.175252
C243  C     C_1   0.446711 0.045931 0.912783 0.211891
N11   N     N_1   0.424533 0.064255 0.924313 -0.175103
C244  C     C_1   0.954135 0.446663 0.912789 0.213030
N12   N     N_1   0.935828 0.424473 0.924321 -0.175252
C245  C     C_1   0.553315 0.045900 0.087215 0.211863
N13   N     N_1   0.575503 0.064211 0.075685 -0.175091
C246  C     C_1   0.045899 0.446692 0.087212 0.213068
N14   N     N_1   0.064220 0.424513 0.075681 -0.175242
C247  C     C_1   0.446684 0.954100 0.087214 0.211865
N15   N     N_1   0.424496 0.935789 0.075684 -0.175112
C248  C     C_1   0.954101 0.553308 0.087212 0.213067
N16   N     N_1   0.935780 0.575488 0.075681 -0.175240
C249  C     C_1   0.053275 0.454051 0.412783 0.211907
N17   N     N_1   0.075447 0.435720 0.424312 -0.175076
C250  C     C_1   0.545935 0.053278 0.412786 0.213106
N18   N     N_1   0.564270 0.075446 0.424317 -0.175229
C251  C     C_1   0.946725 0.545948 0.412782 0.211907
N19   N     N_1   0.924553 0.564280 0.424311 -0.175075
C252  C     C_1   0.454065 0.946722 0.412786 0.213106
N20   N     N_1   0.435730 0.924554 0.424316 -0.175228
C253  C     C_1   0.053272 0.545952 0.587218 0.211905
N21   N     N_1   0.075443 0.564284 0.575689 -0.175075
C254  C     C_1   0.545899 0.946692 0.587212 0.213068
N22   N     N_1   0.564219 0.924511 0.575681 -0.175240
C255  C     C_1   0.946728 0.454049 0.587218 0.211905
N23   N     N_1   0.924557 0.435716 0.575689 -0.175075
C256  C     C_1   0.454101 0.053309 0.587212 0.213068
N24   N     N_1   0.435781 0.075489 0.575681 -0.175240
Br1   Br    Br    0.800990 0.002107 0.061749 -0.445951
Br2   Br    Br    0.997670 0.800990 0.061744 -0.444355
Br3   Br    Br    0.199010 0.997840 0.061748 -0.445952
Br4   Br    Br    0.002331 0.199010 0.061745 -0.444359
Br5   Br    Br    0.800990 0.997893 0.938251 -0.445949
Br6   Br    Br    0.997669 0.199010 0.938255 -0.444356
Br7   Br    Br    0.199010 0.002160 0.938252 -0.445950
Br8   Br    Br    0.002329 0.800990 0.938255 -0.444359
Br9   Br    Br    0.300990 0.502106 0.561749 -0.445946
Br10  Br    Br    0.497670 0.300990 0.561745 -0.444355
Br11  Br    Br    0.699010 0.497895 0.561749 -0.445946
Br12  Br    Br    0.502331 0.699010 0.561745 -0.444355
Br13  Br    Br    0.300990 0.497893 0.438251 -0.445949
Br14  Br    Br    0.497669 0.699010 0.438256 -0.444355
Br15  Br    Br    0.699010 0.502105 0.438251 -0.445950
Br16  Br    Br    0.502330 0.300990 0.438255 -0.444355
C257  C     C_1   0.692976 0.069567 0.006487 0.209346
N25   N     N_1   0.708565 0.097946 0.009161 -0.146186
C258  C     C_1   0.930439 0.692976 0.006525 0.209799
N26   N     N_1   0.902063 0.708565 0.009214 -0.146138
C259  C     C_1   0.307024 0.930441 0.006533 0.209358
N27   N     N_1   0.291436 0.902064 0.009225 -0.146174
C260  C     C_1   0.069560 0.307024 0.006528 0.209799
N28   N     N_1   0.097936 0.291435 0.009218 -0.146138
C261  C     C_1   0.692976 0.930433 0.993513 0.209343
N29   N     N_1   0.708565 0.902054 0.990840 -0.146187
C262  C     C_1   0.930440 0.307024 0.993472 0.209800
N30   N     N_1   0.902064 0.291435 0.990781 -0.146138
C263  C     C_1   0.307024 0.069560 0.993468 0.209355
N31   N     N_1   0.291436 0.097936 0.990776 -0.146175
C264  C     C_1   0.069560 0.692976 0.993474 0.209799
N32   N     N_1   0.097937 0.708564 0.990784 -0.146139
C265  C     C_1   0.192977 0.569567 0.506483 0.209341
N33   N     N_1   0.208565 0.597947 0.509155 -0.146188
C266  C     C_1   0.430439 0.192976 0.506524 0.209796
N34   N     N_1   0.402062 0.208564 0.509213 -0.146139
C267  C     C_1   0.807023 0.430433 0.506484 0.209341
N35   N     N_1   0.791435 0.402053 0.509157 -0.146188
C268  C     C_1   0.569561 0.807024 0.506524 0.209796
N36   N     N_1   0.597938 0.791435 0.509212 -0.146139
C269  C     C_1   0.192977 0.430432 0.493517 0.209342
N37   N     N_1   0.208565 0.402053 0.490845 -0.146187
C270  C     C_1   0.430439 0.807023 0.493478 0.209795
N38   N     N_1   0.402063 0.791435 0.490789 -0.146138
C271  C     C_1   0.807023 0.569568 0.493516 0.209342
N39   N     N_1   0.791435 0.597947 0.490844 -0.146187
C272  C     C_1   0.569561 0.192976 0.493477 0.209796
N40   N     N_1   0.597937 0.208565 0.490788 -0.146138

loop_
_geom_bond_atom_site_label_1
_geom_bond_atom_site_label_2
_ccdc_geom_bond_type
O50   Zn9   S    
C268  N36   T    
C155  N5    A    
C211  H19   S    
C37   C69   A    
C191  H7    S    
C267  N35   T    
C117  C133  A    
C42   C58   A    
C79   C87   T    
C176  C200  A    
C41   H33   S    
O59   Zn11  S    
C257  N25   T    
C31   C67   A    
C45   C57   A    
C149  O37   S    
O16   Zn8   S    
C3    C131  S    
C99   C143  A    
C18   C210  A    
C36   Br12  S    
C1    C129  S    
C98   C114  A    
C15   C239  A    
C118  H62   S    
C176  C184  A    
C243  N11   T    
C226  C242  S    
C227  C243  S    
C1    O5    A    
C57   C202  S    
C9    C121  S    
C2    O2    A    
C203  O51   A    
C168  C192  A    
C3    O7    A    
C37   Br13  S    
C20   C216  A    
C33   C69   A    
C61   C206  S    
C13   C125  S    
C125  O27   A    
C35   C71   A    
C113  C133  A    
C80   C88   T    
C76   C84   T    
C235  C251  S    
C31   Br7   S    
C73   C81   T    
O7    Zn1   S    
C153  N5    A    
C48   H40   S    
O3    Zn3   S    
C174  C198  A    
C7    O11   A    
C270  N38   T    
C91   C107  A    
C171  C195  A    
C100  C144  A    
C174  C184  A    
C186  H2    S    
O49   Zn9   S    
C10   C122  S    
C168  C180  A    
C28   C44   A    
C221  C237  A    
O9    Zn5   S    
C160  O48   S    
C223  H31   S    
O21   Zn3   S    
C52   H44   S    
C233  C249  S    
C155  C169  A    
C209  H17   S    
C150  C168  A    
C6    O16   A    
C218  C234  A    
O52   Zn9   S    
C107  C131  A    
O30   Zn6   S    
C44   H36   S    
C45   H37   S    
C63   C208  S    
C35   C51   A    
C241  N9    T    
C56   C62   A    
C186  C199  A    
C172  C196  A    
C210  H18   S    
C161  C177  A    
C4    O6    A    
O31   Zn5   S    
C145  O33   S    
C149  C167  A    
C121  O19   A    
C175  C183  A    
C102  C270  S    
C106  C130  A    
C30   Br6   S    
C11   C231  A    
O57   Zn11  S    
C46   C60   A    
C171  C181  A    
C164  C188  A    
C103  C143  A    
C177  C184  A    
C33   Br9   S    
C64   C205  S    
C15   C237  A    
C95   C139  A    
C14   C126  S    
C148  C162  A    
C91   C259  S    
C191  C194  A    
C101  C117  A    
C95   C263  S    
C151  C165  A    
C249  N17   T    
C99   C267  S    
C189  C196  A    
C199  H15   S    
O60   Zn11  S    
C109  H53   S    
C156  C170  A    
C218  H26   S    
C2    O8    A    
O54   Zn10  S    
C19   C215  A    
C261  N29   T    
C105  H49   S    
O1    Zn1   S    
C42   H34   S    
C149  N3    A    
C147  O35   S    
O13   Zn7   S    
O32   Zn8   S    
C213  H21   S    
C39   C71   A    
C23   N2    S    
C223  C239  A    
C251  N19   T    
C229  C245  S    
C3    O3    A    
C202  O54   A    
C150  N4    A    
C69   C77   S    
C256  N24   T    
O51   Zn9   S    
C71   C79   S    
C247  N15   T    
C4    C132  S    
C126  O28   A    
C269  N37   T    
C5    C133  S    
O23   Zn1   S    
C232  C248  S    
C101  C269  S    
C123  O23   A    
O19   Zn3   S    
C115  H59   S    
C28   C68   A    
C151  O39   S    
C8    O12   A    
C96   C138  A    
C89   C137  A    
C246  N14   T    
C66   C74   S    
C24   N1    S    
O4    Zn4   S    
C26   Br2   S    
C2    C130  S    
C53   C61   A    
C59   C204  S    
C92   C108  A    
C254  N22   T    
C20   N5    S    
C55   C63   A    
C194  H10   S    
C12   C230  A    
C36   C52   A    
C43   C59   A    
C37   C53   A    
C198  H14   S    
C77   C85   T    
C11   C229  A    
C21   C217  A    
C98   C142  A    
C210  C226  A    
C103  C271  S    
C102  C144  A    
O17   Zn1   S    
C90   C138  A    
O62   Zn12  S    
C38   C72   A    
C190  H6    S    
C111  H55   S    
C230  C246  S    
C187  C198  A    
C173  C197  A    
C26   C66   A    
C219  C235  A    
C122  O20   A    
C145  C163  A    
C124  O22   A    
O8    Zn4   S    
C146  C164  A    
C118  C136  A    
C27   Br3   S    
C19   C213  A    
C20   C214  A    
C163  C177  A    
C38   Br14  S    
O11   Zn7   S    
C150  O38   S    
C39   Br15  S    
C167  C191  A    
C127  O31   A    
C196  H12   S    
C55   H47   S    
O63   Zn12  S    
C114  C134  A    
C92   C260  S    
C56   H48   S    
C224  C240  A    
C175  C199  A    
C206  O58   A    
C190  C195  A    
C200  H16   S    
C29   C65   A    
C154  N6    A    
C111  C131  A    
C23   C223  A    
C207  O59   A    
C109  C129  A    
C165  C179  A    
O29   Zn7   S    
C67   C75   S    
C117  H61   S    
C164  C178  A    
C26   C42   A    
C13   C233  A    
C126  O26   A    
C145  N1    A    
O12   Zn8   S    
C116  H60   S    
C113  H57   S    
O64   Zn12  S    
C30   C46   A    
C238  C254  S    
C128  O30   A    
C152  C166  A    
C68   C76   S    
C201  O49   A    
C239  C255  S    
C225  C241  S    
C119  H63   S    
C157  O45   S    
C72   C80   S    
C245  N13   T    
C7    O15   A    
C108  H52   S    
C115  C135  A    
C49   H41   S    
C120  C134  A    
O22   Zn2   S    
C162  C178  A    
C27   C67   A    
C264  N32   T    
C166  C180  A    
C123  O21   A    
C5    O9    A    
C263  N31   T    
C21   C219  A    
C89   C105  A    
O53   Zn10  S    
C15   C127  S    
C112  C130  A    
C36   C72   A    
C93   C109  A    
C167  C179  A    
C253  N21   T    
C34   Br10  S    
C8    C136  S    
C94   C140  A    
C100  C116  A    
C122  O18   A    
C83   C139  S    
C124  O24   A    
C156  N6    A    
C81   C137  S    
C110  H54   S    
C50   H42   S    
C219  H27   S    
C207  O61   A    
C128  O32   A    
C17   C209  A    
C106  H50   S    
C99   C115  A    
C43   H35   S    
C33   C49   A    
O61   Zn12  S    
C127  O29   A    
C161  C185  A    
C206  O62   A    
C39   C55   A    
C23   C221  A    
C47   H39   S    
C40   C56   A    
C152  N4    A    
C165  C189  A    
C208  O64   A    
C110  C132  A    
C34   C70   A    
C178  C183  A    
C13   C235  A    
C179  C182  A    
C35   Br11  S    
C169  C193  A    
O14   Zn6   S    
C152  O40   S    
C266  N34   T    
C146  O34   S    
C31   C47   A    
C32   C48   A    
C209  C225  A    
C74   C82   T    
O2    Zn2   S    
C49   C61   A    
C28   Br4   S    
C262  N30   T    
C112  H56   S    
C215  H23   S    
C6    O10   A    
C173  C183  A    
C51   C63   A    
C216  H24   S    
C187  H3    S    
C52   C64   A    
C170  C194  A    
C185  H1    S    
C104  C272  S    
C94   C110  A    
C21   N4    S    
C119  C135  A    
O10   Zn6   S    
C22   N3    S    
C258  N26   T    
O55   Zn10  S    
C38   C54   A    
C156  O44   S    
C121  O17   A    
C204  O52   A    
C97   C141  A    
C40   C70   A    
C91   C139  A    
C58   C203  S    
C217  H25   S    
C147  C161  A    
C100  C268  S    
C104  C142  A    
C188  H4    S    
C217  C233  A    
C92   C140  A    
C62   C207  S    
O6    Zn2   S    
C180  C181  A    
C86   C142  S    
C32   C66   A    
C22   C220  A    
C4    O4    A    
O25   Zn5   S    
C40   Br16  S    
C160  C174  A    
C214  H22   S    
C11   C123  S    
O27   Zn7   S    
C17   C211  A    
C192  H8    S    
C148  N2    A    
C244  N12   T    
C48   C58   A    
C116  C136  A    
C24   C222  A    
C54   H46   S    
O5    Zn3   S    
C237  C253  S    
C32   Br8   S    
C41   C57   A    
C75   C83   T    
C188  C197  A    
C44   C60   A    
C46   H38   S    
C212  H20   S    
C90   C106  A    
C212  C228  A    
C27   C43   A    
C60   C201  S    
C5    O13   A    
C146  N2    A    
C29   C45   A    
C252  N20   T    
C114  H58   S    
O56   Zn10  S    
C120  H64   S    
C30   C68   A    
C104  C120  A    
C89   C257  S    
O28   Zn8   S    
C1    O1    A    
C70   C78   S    
C205  O63   A    
O58   Zn11  S    
C248  N16   T    
C14   C236  A    
C255  N23   T    
C242  N10   T    
C25   C41   A    
C96   C112  A    
C17   N8    S    
C54   C64   A    
C18   N7    S    
C215  C231  A    
C19   N6    S    
C224  H32   S    
C65   C73   S    
C163  C187  A    
C153  O41   S    
O26   Zn6   S    
C159  N7    A    
C53   H45   S    
C160  N8    A    
C51   H43   S    
C195  H11   S    
C250  N18   T    
C228  C244  S    
C93   C261  S    
C8    O14   A    
C102  C118  A    
C78   C86   T    
C22   C218  A    
C197  H13   S    
C211  C227  A    
C10   C228  A    
C148  O36   S    
C155  O43   S    
C101  C141  A    
C107  H51   S    
C12   C232  A    
C24   C224  A    
C34   C50   A    
C47   C59   A    
C108  C132  A    
C189  H5    S    
O20   Zn4   S    
C25   C65   A    
C90   C258  S    
C231  C247  S    
C9    C227  A    
C162  C186  A    
C240  C256  S    
C105  C129  A    
C234  C250  S    
C29   Br5   S    
C222  C238  A    
C208  O60   A    
C166  C190  A    
C18   C212  A    
C7    C135  S    
C272  N40   T    
C12   C124  S    
C169  C181  A    
C153  C171  A    
C271  N39   T    
C154  C172  A    
C16   C128  S    
C16   C240  A    
C236  C252  S    
C98   C266  S    
C157  C175  A    
C205  O57   A    
C213  C229  A    
C158  C176  A    
O18   Zn2   S    
C201  O55   A    
C193  H9    S    
C50   C62   A    
C203  O53   A    
C97   C113  A    
C220  H28   S    
C14   C234  A    
C221  H29   S    
O24   Zn4   S    
C172  C182  A    
C125  O25   A    
C94   C262  S    
C157  N7    A    
C158  N8    A    
C220  C236  A    
C96   C264  S    
C103  C119  A    
C159  O47   S    
C9    C225  A    
C202  O50   A    
C147  N1    A    
C151  N3    A    
C204  O56   A    
C25   Br1   S    
C192  C193  A    
C158  O46   S    
C260  N28   T    
C6    C134  S    
C95   C111  A    
C82   C138  S    
C259  N27   T    
C154  O42   S    
C216  C232  A    
C185  C200  A    
C265  N33   T    
C93   C137  A    
C16   C238  A    
C222  H30   S    
C97   C265  S    
C85   C141  S    
C84   C140  S    
C159  C173  A    
C10   C226  A    
O15   Zn5   S    
C87   C143  S    
C88   C144  S    
C170  C182  A    
C214  C230  A    
