data_mof_unit_39170.cif
_audit_creation_date              2012-10-26T20:58:17-0400
_audit_creation_method            fapswitch 2.2
_symmetry_space_group_name_H-M    P1
_symmetry_Int_Tables_number       1
_space_group_crystal_system       triclinic
_cell_length_a                    10.59598
_cell_length_b                    14.818882
_cell_length_c                    14.668792
_cell_angle_alpha                 64.759024
_cell_angle_beta                  105.042239
_cell_angle_gamma                 102.213074
_cell_volume                      1998.53926238

loop_
_atom_site_label
_atom_site_type_symbol
_atom_type_description
_atom_site_fract_x
_atom_site_fract_y
_atom_site_fract_z
_atom_type_partial_charge
C1    C     C_R   0.480829 0.119200 0.311320 0.567907
C2    C     C_R   0.493613 0.534799 0.948095 0.058998
C3    C     C_R   0.456493 0.496847 0.870326 -0.091433
C4    C     C_R   0.543507 0.503153 0.129674 -0.091433
C5    C     C_R   0.445807 0.394978 0.893380 -0.077325
C6    C     C_R   0.554192 0.605022 0.106620 -0.077324
C7    C     C_R   0.703218 0.272781 0.683462 -0.122196
C8    C     C_R   0.296782 0.727219 0.316538 -0.122197
C9    C     C_R   0.680813 0.198957 0.644473 0.031928
C10   C     C_R   0.319188 0.801043 0.355527 0.031928
C11   C     C_R   0.516922 0.286852 0.507389 0.357639
C12   C     C_R   0.519171 0.880800 0.688680 0.567907
C13   C     C_R   0.483078 0.713148 0.492611 0.357638
C14   C     C_R   0.549234 0.371196 0.535693 -0.017994
C15   C     C_R   0.450766 0.628804 0.464307 -0.017994
C16   C     C_R   0.259659 0.000374 0.499775 0.559818
C17   C     C_R   0.740340 0.999626 0.500224 0.559819
C18   C     C_R   0.633310 0.357151 0.632121 0.015210
C19   C     C_R   0.366690 0.642849 0.367879 0.015210
C20   C     C_R   0.494562 0.465289 0.476957 -0.016442
C21   C     C_R   0.505438 0.534710 0.523043 -0.016442
C22   C     C_R   0.565604 0.505600 0.627423 -0.055655
C23   C     C_R   0.480940 0.288853 0.174961 -0.160767
C24   C     C_R   0.434396 0.494400 0.372576 -0.055655
C25   C     C_R   0.638177 0.423913 0.678350 0.229258
C26   C     C_R   0.361823 0.576086 0.321650 0.229258
C27   C     C_3   0.010726 0.923132 0.477979 -0.103162
C28   C     C_3   0.989274 0.076867 0.522021 -0.103162
C29   C     C_3   0.927598 0.010288 0.406838 -0.124513
C30   C     C_3   0.072402 0.989712 0.593162 -0.124513
C31   C     C_3   0.877393 0.999754 0.500170 0.037956
C32   C     C_3   0.122607 0.000246 0.499829 0.037956
C33   C     C_3   0.958279 0.912733 0.571353 -0.106596
C34   C     C_R   0.519060 0.711147 0.825039 -0.160767
C35   C     C_3   0.041721 0.087267 0.428646 -0.106596
C36   C     C_R   0.474518 0.185991 0.200969 -0.000382
C37   C     C_R   0.525482 0.814009 0.799031 -0.000382
C38   C     C_R   0.455271 0.220243 0.019176 0.022321
C39   C     C_R   0.544729 0.779757 0.980823 0.022320
C40   C     C_R   0.466547 0.151192 0.123087 0.239901
C41   C     C_R   0.533453 0.848808 0.876913 0.239901
C42   C     C_3   0.437436 0.184056 0.933488 -0.325295
C43   C     C_3   0.562564 0.815944 0.066512 -0.325296
C44   C     C_R   0.484797 0.359873 0.074893 0.014791
C45   C     C_R   0.515203 0.640127 0.925107 0.014791
C46   C     C_R   0.462611 0.324717 0.995379 0.045111
C47   C     C_R   0.537388 0.675283 0.004621 0.045111
C48   C     C_R   0.506387 0.465201 0.051905 0.058998
Cl1   Cl    Cl    0.632351 0.725058 0.577209 -0.610818
Cl2   Cl    Cl    0.367649 0.274941 0.422791 -0.610818
Cl3   Cl    Cl    0.525307 0.977419 0.845342 -0.628629
Cl4   Cl    Cl    0.474693 0.022581 0.154658 -0.628629
Cl5   Cl    Cl    0.725878 0.404283 0.804041 -0.609525
Cl6   Cl    Cl    0.274122 0.595717 0.195959 -0.609525
Cu1   Cu    Cu3+1 0.465750 0.918270 0.475680 1.053632
Cu2   Cu    Cu3+1 0.534250 0.081730 0.524320 1.053631
H1    H     H_    0.865036 0.018562 0.330792 0.152021
H2    H     H_    0.977997 0.139919 0.540107 0.146317
H3    H     H_    0.920968 0.841405 0.629633 0.175549
H4    H     H_    0.079032 0.158595 0.370366 0.175549
H5    H     H_    0.421723 0.372455 0.829234 0.126121
H6    H     H_    0.578277 0.627545 0.170766 0.126121
H7    H     H_    0.520386 0.687643 0.765398 0.169753
H8    H     H_    0.479614 0.312357 0.234602 0.169753
H9    H     H_    0.432732 0.543925 0.789949 0.103767
H10   H     H_    0.567268 0.456075 0.210051 0.103767
H11   H     H_    0.435203 0.102024 0.959487 0.226586
H12   H     H_    0.134964 0.981438 0.669208 0.152021
H13   H     H_    0.342578 0.204177 0.880014 0.122480
H14   H     H_    0.519523 0.219790 0.890857 0.183829
H15   H     H_    0.564797 0.897976 0.040513 0.226586
H16   H     H_    0.480477 0.780210 0.109143 0.183829
H17   H     H_    0.657422 0.795823 0.119985 0.122480
H18   H     H_    0.267302 0.866864 0.314508 0.155731
H19   H     H_    0.732698 0.133136 0.685492 0.155731
H20   H     H_    0.772520 0.261773 0.754935 0.183517
H21   H     H_    0.227480 0.738227 0.245065 0.183517
H22   H     H_    0.556151 0.544942 0.671880 0.179543
H23   H     H_    0.443849 0.455058 0.328120 0.179543
H24   H     H_    0.022003 0.860081 0.459893 0.146317
N1    N     N_R   0.585750 0.204560 0.560800 -0.216914
N2    N     N_R   0.414250 0.795440 0.439200 -0.216914
O1    O     O_R   0.454850 0.022100 0.338110 -0.451247
O2    O     O_R   0.545150 0.977900 0.661890 -0.451247
O3    O     O_R   0.512700 0.160150 0.379180 -0.479947
O4    O     O_R   0.487300 0.839850 0.620820 -0.479946
O5    O     O_R   0.287930 0.931000 0.479440 -0.533578
O6    O     O_R   0.712070 0.069000 0.520560 -0.533578
O7    O     O_R   0.345780 0.069050 0.520520 -0.427265
O8    O     O_R   0.654220 0.930950 0.479480 -0.427265

loop_
_geom_bond_atom_site_label_1
_geom_bond_atom_site_label_2
_ccdc_geom_bond_type
C43   H17   S    
C30   C32   S    
Cu1   Cu2   S    
C43   H16   S    
C27   C29   S    
C17   O6    A    
C14   C18   A    
Cu2   N1    S    
C39   C41   A    
C11   N1    A    
C15   C19   A    
C38   C40   A    
C24   C26   A    
C38   C42   S    
Cu1   O8    S    
C11   C14   A    
Cu2   O6    S    
C34   C37   A    
C42   H14   S    
C12   O2    A    
C12   C37   S    
C19   C26   A    
C20   C24   A    
C28   C35   S    
C22   C25   A    
C16   O5    A    
C31   C33   S    
C16   O7    A    
C33   H3    S    
C21   C22   A    
C37   C41   A    
C3    H9    S    
C18   C25   A    
C26   Cl6   S    
C44   C46   A    
Cu2   O2    S    
C45   C47   A    
C2    C45   A    
C1    O3    A    
C8    C19   A    
C6    C47   A    
C32   C35   S    
C14   C20   A    
C36   C40   A    
C22   H22   S    
C4    C6    A    
C27   H24   S    
C39   C43   S    
C2    C48   A    
C40   Cl4   S    
C13   N2    A    
C10   N2    A    
C42   H13   S    
C27   C33   S    
C23   C44   A    
C35   H4    S    
C24   H23   S    
C7    C18   A    
C5    H5    S    
C34   C45   A    
Cu1   N2    S    
C13   Cl1   S    
C23   H8    S    
C29   H1    S    
C13   C15   A    
C8    H21   S    
C17   C31   S    
C16   C32   S    
Cu1   O1    S    
C39   C47   A    
C4    C48   A    
C7    C9    A    
Cu2   O7    S    
C43   H15   S    
C30   C33   S    
C27   C32   S    
C28   C31   S    
C17   O8    A    
C25   Cl5   S    
C3    C5    A    
C7    H20   S    
C28   H2    S    
C1    O1    A    
C5    C46   A    
C29   C35   S    
C12   O4    A    
C6    H6    S    
Cu1   O4    S    
C28   C30   S    
C2    C3    A    
C29   C31   S    
C11   Cl2   S    
C4    H10   S    
C10   H18   S    
Cu2   O3    S    
C42   H11   S    
C34   H7    S    
Cu1   O5    S    
C38   C46   A    
C15   C21   A    
C20   C21   A    
C8    C10   A    
C23   C36   A    
C9    H19   S    
C41   Cl3   S    
C30   H12   S    
C44   C48   A    
C1    C36   S    
C9    N1    A    
