data_mof_unit_39633.cif
_audit_creation_date              2012-12-11T17:07:52-0500
_audit_creation_method            fapswitch 2.2
_symmetry_space_group_name_H-M    P1
_symmetry_Int_Tables_number       1
_space_group_crystal_system       triclinic
_cell_length_a                    17.541946
_cell_length_b                    17.504992
_cell_length_c                    17.986405
_cell_angle_alpha                 90.00456
_cell_angle_beta                  90.194008
_cell_angle_gamma                 90.612926
_cell_volume                      5522.76687797

loop_
_atom_site_label
_atom_site_type_symbol
_atom_type_description
_atom_site_fract_x
_atom_site_fract_y
_atom_site_fract_z
_atom_type_partial_charge
C1    C     C_R   0.408989 0.316636 0.871417 0.572750
C2    C     C_R   0.193132 0.895676 0.392017 0.667682
C3    C     C_R   0.789085 0.841720 0.202948 -0.177277
C4    C     C_R   0.231595 0.305683 0.659037 -0.237234
C5    C     C_R   0.286796 0.759812 0.674001 -0.210346
C6    C     C_R   0.780740 0.694309 0.670819 -0.167685
C7    C     C_R   0.794947 0.167003 0.792197 -0.228679
C8    C     C_R   0.752727 0.205157 0.846119 -0.202164
C9    C     C_R   0.746117 0.659913 0.731896 -0.142058
C10   C     C_R   0.326569 0.721515 0.728727 -0.256408
C11   C     C_R   0.271380 0.348227 0.711614 -0.250191
C12   C     C_R   0.758513 0.802487 0.141967 -0.238823
C13   C     C_R   0.098876 0.190422 0.382604 0.629073
C14   C     C_R   0.722128 0.334311 0.279262 -0.248609
C15   C     C_R   0.261058 0.197227 0.159573 -0.150175
C16   C     C_R   0.204148 0.730069 0.175869 -0.166037
C17   C     C_3   0.379078 0.198715 0.914252 -0.248418
C18   C     C_3   0.820262 0.373384 0.958615 -0.110875
C19   C     C_3   0.660701 0.792328 0.931645 -0.035715
C20   C     C_3   0.197332 0.634530 0.956855 -0.137122
C21   C     C_3   0.426024 0.794042 0.027430 0.011115
C22   C     C_3   0.797041 0.617712 0.004646 -0.009690
C23   C     C_3   0.560144 0.215039 0.035394 0.022892
C24   C     C_R   0.801571 0.104531 0.409318 0.662535
C25   C     C_3   0.199466 0.386783 0.005214 -0.029943
C26   C     C_3   0.848761 0.717293 0.445452 -0.129247
C27   C     C_3   0.277454 0.842490 0.474454 -0.085667
C28   C     C_3   0.140788 0.290129 0.453632 -0.114333
C29   C     C_3   0.699233 0.086957 0.484047 -0.150711
C30   C     C_3   0.941505 0.282981 0.539332 0.126359
C31   C     C_3   0.283656 0.058191 0.528069 0.150366
C32   C     C_3   0.049070 0.715852 0.535689 0.082843
C33   C     C_3   0.707072 0.871208 0.501857 -0.061791
C34   C     C_3   0.855591 0.440146 0.594822 -0.234754
C35   C     C_R   0.906888 0.187805 0.621564 0.500649
C36   C     C_3   0.537453 0.919911 0.602969 -0.110477
C37   C     C_3   0.109341 0.544671 0.603262 -0.240100
C38   C     C_3   0.445846 0.173489 0.530226 -0.271894
C39   C     C_3   0.928735 0.559104 0.334527 -0.189032
C40   C     C_3   0.557704 0.065144 0.357403 -0.220988
C41   C     C_3   0.050332 0.426752 0.328236 -0.169635
C42   C     C_3   0.445238 0.915848 0.367184 -0.178274
C43   C     C_3   0.414515 0.946349 0.167762 -0.238663
C44   C     C_3   0.040338 0.391363 0.118914 -0.244481
C45   C     C_3   0.569302 0.055803 0.152150 -0.244458
C46   C     C_R   0.194796 0.101327 0.608174 0.466534
C47   C     C_3   0.952421 0.582346 0.127284 -0.141665
C48   C     C_3   0.537645 0.150423 0.709780 -0.176843
C49   C     C_3   0.103223 0.487818 0.799195 -0.104691
C50   C     C_3   0.551396 0.927859 0.806256 -0.122303
C51   C     C_3   0.868903 0.495968 0.783604 -0.055972
C52   C     C_3   0.392535 0.819089 0.857818 -0.133090
C53   C     C_3   0.386713 0.500193 0.770558 -0.236380
C54   C     C_3   0.570399 0.324211 0.771536 0.004257
C55   C     C_3   0.598412 0.520281 0.773591 -0.161807
C56   C     C_3   0.427005 0.292062 0.222466 -0.027600
C57   C     C_R   0.094476 0.807699 0.614287 0.519244
C58   C     C_3   0.305226 0.547983 0.224844 -0.168289
C59   C     C_3   0.589308 0.821416 0.137508 -0.057299
C60   C     C_3   0.817738 0.387809 0.143986 -0.047930
C61   C     C_3   0.922683 0.202718 0.272600 -0.056029
C62   C     C_3   0.880395 0.996774 0.270357 -0.358046
C63   C     C_3   0.103958 0.676663 0.369940 -0.114208
C64   C     C_3   0.317824 0.103776 0.357635 -0.137311
C65   C     C_3   0.938867 0.803826 0.727282 -0.109657
C66   C     C_3   0.698159 0.085663 0.672281 -0.179547
C67   C     C_3   0.066018 0.263233 0.711373 -0.110243
C68   C     C_R   0.801260 0.891803 0.590104 0.658078
C69   C     C_3   0.268148 0.941106 0.709884 -0.128368
C70   C     C_3   0.837395 0.353553 0.693468 0.878688
C71   C     C_3   0.630785 0.856191 0.672031 0.804747
C72   C     C_3   0.127378 0.634521 0.699035 0.870858
C73   C     C_R   0.698465 0.393646 0.910587 0.712117
C74   C     C_3   0.380675 0.170828 0.644085 0.859590
C75   C     C_3   0.881980 0.663373 0.266457 0.876495
C76   C     C_3   0.659533 0.115745 0.289576 0.855452
C77   C     C_3   0.118645 0.333195 0.265511 0.845202
C78   C     C_3   0.344230 0.862793 0.297522 0.848984
C79   C     C_3   0.381759 0.831517 0.228464 0.863954
C80   C     C_3   0.147210 0.367454 0.193059 0.837629
C81   C     C_3   0.624835 0.154256 0.222398 0.861857
C82   C     C_3   0.849624 0.627020 0.196563 0.820763
C83   C     C_3   0.426657 0.222413 0.695127 0.797594
C84   C     C_R   0.598695 0.689046 0.880934 0.656462
C85   C     C_3   0.174043 0.593441 0.756782 0.828332
C86   C     C_3   0.592994 0.819606 0.740601 0.865564
C87   C     C_3   0.785377 0.395927 0.746811 0.808310
C88   C     C_R   0.398449 0.687859 0.878730 0.437988
C89   C     C_R   0.335476 0.417952 0.854732 0.520228
C90   C     C_R   0.607138 0.306933 0.891408 0.475102
C91   C     C_R   0.669658 0.585114 0.859164 0.543882
C92   C     C_R   0.389095 0.304550 0.102007 0.491553
C93   C     C_R   0.307600 0.604973 0.111166 0.567509
C94   C     C_R   0.611141 0.697015 0.099165 0.552013
C95   C     C_R   0.305636 0.602301 0.894019 0.718719
C96   C     C_R   0.686433 0.400438 0.123749 0.524005
C97   C     C_R   0.889750 0.193702 0.394349 0.442881
C98   C     C_R   0.832339 0.915009 0.356852 0.619462
C99   C     C_R   0.098414 0.810089 0.381110 0.466664
C100  C     C_R   0.185799 0.097455 0.374577 0.452193
C101  C     C_R   0.892181 0.806924 0.609518 0.503923
C102  C     C_R   0.823491 0.091993 0.635268 0.477144
C103  C     C_R   0.107093 0.190297 0.615694 0.475352
C104  C     C_R   0.186248 0.895543 0.622455 0.494600
C105  C     C_R   0.355543 0.347353 0.824114 -0.309257
C106  C     C_R   0.396539 0.695289 0.102182 0.530104
C107  C     C_R   0.685944 0.319547 0.888859 -0.398626
C108  C     C_R   0.656431 0.660751 0.836847 -0.400011
C109  C     C_R   0.324369 0.667235 0.855738 -0.342314
C110  C     C_R   0.323482 0.682263 0.124064 -0.362385
C111  C     C_R   0.689707 0.681611 0.106258 -0.396329
C112  C     C_R   0.662147 0.329726 0.154237 -0.321470
C113  C     C_R   0.310352 0.317351 0.104182 -0.387942
C114  C     C_R   0.849429 0.841207 0.330478 -0.372022
C115  C     C_R   0.170648 0.828960 0.356386 -0.338740
C116  C     C_R   0.164318 0.168301 0.344744 -0.317465
C117  C     C_R   0.698942 0.606127 0.089817 0.610630
C118  C     C_R   0.810594 0.179206 0.390645 -0.361567
C119  C     C_R   0.848176 0.162813 0.665271 -0.265550
C120  C     C_R   0.183666 0.174674 0.630130 -0.277139
C121  C     C_R   0.164352 0.820605 0.643105 -0.316096
C122  C     C_R   0.813427 0.818421 0.613807 -0.378369
C123  C     C_R   0.753803 0.318332 0.768834 -0.269476
C124  C     C_R   0.652913 0.758592 0.734082 -0.218284
C125  C     C_R   0.208765 0.670064 0.777870 -0.195512
C126  C     C_R   0.353691 0.241678 0.733674 -0.104536
C127  C     C_R   0.786257 0.684029 0.201803 -0.237740
C128  C     C_R   0.596375 0.309511 0.116824 0.539272
C129  C     C_R   0.689873 0.211515 0.225394 -0.162424
C130  C     C_R   0.217005 0.319115 0.203744 -0.236870
C131  C     C_R   0.324913 0.766522 0.230961 -0.212037
C132  C     C_R   0.288871 0.796391 0.291889 -0.202315
C133  C     C_R   0.189264 0.285138 0.267991 -0.170522
C134  C     C_R   0.721499 0.175831 0.286335 -0.240309
C135  C     C_R   0.818316 0.721221 0.261952 -0.164958
C136  C     C_R   0.310369 0.196584 0.685462 -0.193834
C137  C     C_R   0.168074 0.707773 0.722897 -0.198469
C138  C     C_R   0.685606 0.790645 0.672644 -0.178407
C139  C     C_R   0.300962 0.392717 0.086618 0.598433
C140  C     C_R   0.796413 0.281152 0.717010 -0.163127
C141  C     C_R   0.734614 0.282216 0.835943 0.237681
C142  C     C_R   0.684242 0.694248 0.767999 0.177733
C143  C     C_R   0.286383 0.686971 0.787007 0.172742
C144  C     C_R   0.329524 0.314471 0.753545 0.139542
C145  C     C_R   0.750006 0.723562 0.145080 0.220799
C146  C     C_R   0.690913 0.291231 0.220224 0.145019
C147  C     C_R   0.256063 0.276391 0.150770 0.233302
C148  C     C_R   0.283562 0.731897 0.173554 0.259093
C149  C     C_R   0.209559 0.795417 0.294532 0.125491
C150  C     C_R   0.904439 0.812552 0.377884 0.626877
C151  C     C_R   0.195547 0.206038 0.278504 0.138656
C152  C     C_R   0.756281 0.218185 0.343379 0.242624
C153  C     C_R   0.819485 0.801544 0.264392 0.153287
C154  C     C_R   0.244426 0.227008 0.653604 0.223365
C155  C     C_R   0.207254 0.759741 0.676685 0.231742
C156  C     C_R   0.757184 0.766821 0.647520 0.147658
C157  C     C_R   0.817451 0.205225 0.727049 0.163435
C158  C     C_R   0.167177 0.764699 0.234747 -0.206827
C159  C     C_R   0.228356 0.162065 0.221494 -0.228822
C160  C     C_R   0.757031 0.297986 0.339236 -0.145622
H1    H     H_    0.105514 0.766446 0.234055 0.180548
H2    H     H_    0.771149 0.608940 0.753396 0.173203
H3    H     H_    0.055646 0.468983 0.373940 0.112725
H4    H     H_    0.000432 0.389403 0.340982 0.221526
H5    H     H_    0.423397 0.972376 0.350387 0.160316
H6    H     H_    0.496171 0.901419 0.333935 0.137864
H7    H     H_    0.463989 0.920979 0.425894 0.136278
H8    H     H_    0.458867 0.947505 0.211923 0.121002
H9    H     H_    0.375605 0.995094 0.176319 0.165036
H10   H     H_    0.443006 0.955740 0.113641 0.130568
H11   H     H_    0.002853 0.392082 0.168482 0.134923
H12   H     H_    0.006171 0.367799 0.072085 0.126099
H13   H     H_    0.387991 0.724289 0.728845 0.208560
H14   H     H_    0.057836 0.450370 0.103248 0.191125
H15   H     H_    0.512043 0.082295 0.154059 0.201778
H16   H     H_    0.575454 0.012369 0.196511 0.133382
H17   H     H_    0.573592 0.025300 0.098300 0.136552
H18   H     H_    0.981420 0.570340 0.180972 0.125363
H19   H     H_    0.996634 0.602504 0.087725 0.130948
H20   H     H_    0.926942 0.529232 0.104075 0.173437
H21   H     H_    0.554442 0.178164 0.656687 0.110503
H22   H     H_    0.526692 0.088650 0.700709 0.127025
H23   H     H_    0.586441 0.155357 0.748419 0.186945
H24   H     H_    0.252422 0.405179 0.721962 0.237385
H25   H     H_    0.150626 0.446360 0.798530 0.167608
H26   H     H_    0.070648 0.486080 0.746232 0.109064
H27   H     H_    0.063749 0.469557 0.843992 0.117182
H28   H     H_    0.494639 0.915758 0.781533 0.134232
H29   H     H_    0.577891 0.977646 0.777974 0.123923
H30   H     H_    0.542040 0.944820 0.864904 0.140505
H31   H     H_    0.862089 0.543188 0.824079 0.132645
H32   H     H_    0.855662 0.518019 0.727409 0.109755
H33   H     H_    0.929634 0.479383 0.785590 0.127451
H34   H     H_    0.334978 0.811969 0.882964 0.074096
H35   H     H_    0.739321 0.833569 0.093670 0.129178
H36   H     H_    0.386107 0.838597 0.799657 0.162521
H37   H     H_    0.421390 0.866173 0.888378 0.118545
H38   H     H_    0.400234 0.457356 0.727096 0.146199
H39   H     H_    0.436042 0.508812 0.808335 0.097916
H40   H     H_    0.377816 0.555436 0.742098 0.165962
H41   H     H_    0.613057 0.370885 0.774289 0.075809
H42   H     H_    0.513691 0.351046 0.768266 0.144083
H43   H     H_    0.584647 0.294543 0.719357 0.173507
H44   H     H_    0.559607 0.489261 0.811697 0.090612
H45   H     H_    0.601889 0.487617 0.721181 0.170134
H46   H     H_    0.721865 0.396166 0.277719 0.156294
H47   H     H_    0.572356 0.575462 0.757159 0.107895
H48   H     H_    0.378456 0.330397 0.235086 0.059472
H49   H     H_    0.480737 0.325854 0.226922 0.112312
H50   H     H_    0.425979 0.247732 0.266477 0.150787
H51   H     H_    0.356388 0.585330 0.234118 0.091783
H52   H     H_    0.324236 0.487692 0.224647 0.126072
H53   H     H_    0.267863 0.557061 0.273628 0.143216
H54   H     H_    0.628002 0.868899 0.122176 0.083088
H55   H     H_    0.604480 0.796906 0.192793 0.137846
H56   H     H_    0.534822 0.851165 0.141937 0.227506
H57   H     H_    0.292035 0.163138 0.119761 0.130461
H58   H     H_    0.807779 0.328124 0.124801 0.063560
H59   H     H_    0.834894 0.388783 0.203270 0.144051
H60   H     H_    0.867758 0.409880 0.113381 0.113641
H61   H     H_    0.870419 0.168727 0.261146 0.079696
H62   H     H_    0.972006 0.163820 0.267524 0.108786
H63   H     H_    0.923952 0.246201 0.227785 0.155919
H64   H     H_    0.905265 0.948587 0.238639 0.139187
H65   H     H_    0.925550 0.021115 0.306923 0.148304
H66   H     H_    0.864229 0.040688 0.229076 0.160126
H67   H     H_    0.161896 0.685038 0.394306 0.086869
H68   H     H_    0.171199 0.701903 0.132581 0.131511
H69   H     H_    0.108232 0.653860 0.312682 0.169279
H70   H     H_    0.075724 0.631280 0.403223 0.114552
H71   H     H_    0.309903 0.163799 0.376422 0.097576
H72   H     H_    0.341347 0.103051 0.300534 0.163148
H73   H     H_    0.362401 0.079331 0.393923 0.116979
H74   H     H_    0.882842 0.819155 0.751698 0.100316
H75   H     H_    0.974436 0.856098 0.718735 0.097651
H76   H     H_    0.968535 0.767818 0.768590 0.141983
H77   H     H_    0.699015 0.146646 0.654493 0.087119
H78   H     H_    0.683931 0.080469 0.731964 0.162507
H79   H     H_    0.322548 0.198469 0.885952 0.125421
H80   H     H_    0.651282 0.058670 0.640201 0.170208
H81   H     H_    0.118030 0.245920 0.742360 0.080223
H82   H     H_    0.017233 0.228059 0.731520 0.140814
H83   H     H_    0.056105 0.323755 0.726142 0.171824
H84   H     H_    0.254251 0.891320 0.745885 0.090506
H85   H     H_    0.233420 0.990636 0.727531 0.131702
H86   H     H_    0.329003 0.955346 0.719900 0.152454
H87   H     H_    0.373392 0.219606 0.972289 0.105829
H88   H     H_    0.398769 0.138773 0.916933 0.165489
H89   H     H_    0.229934 0.100401 0.225189 0.171011
H90   H     H_    0.846526 0.344891 0.910190 0.137794
H91   H     H_    0.795651 0.329877 0.996842 0.080974
H92   H     H_    0.867358 0.403930 0.987455 0.135396
H93   H     H_    0.702045 0.802898 0.886042 0.113659
H94   H     H_    0.686789 0.753385 0.972831 0.075647
H95   H     H_    0.650500 0.847698 0.959711 0.159712
H96   H     H_    0.165307 0.672717 0.919118 0.142797
H97   H     H_    0.236793 0.669695 0.991686 0.047183
H98   H     H_    0.155527 0.606959 0.994739 0.169054
H99   H     H_    0.366075 0.791006 0.006964 0.056923
H100  H     H_    0.786206 0.331832 0.381215 0.135270
H101  H     H_    0.466448 0.764596 0.990715 0.202400
H102  H     H_    0.443456 0.854987 0.028017 0.136862
H103  H     H_    0.825149 0.670445 0.025462 0.138907
H104  H     H_    0.754399 0.635487 0.963430 0.020390
H105  H     H_    0.840442 0.583173 0.975610 0.149211
H106  H     H_    0.617499 0.216440 0.009292 0.068339
H107  H     H_    0.517952 0.249093 0.004369 0.114389
H108  H     H_    0.539273 0.155166 0.032799 0.142217
H109  H     H_    0.186840 0.326309 0.019709 0.122988
H110  H     H_    0.234627 0.388215 0.954758 0.066131
H111  H     H_    0.788150 0.902986 0.200336 0.185486
H112  H     H_    0.144809 0.414571 0.990980 0.155898
H113  H     H_    0.796789 0.706081 0.411632 0.151170
H114  H     H_    0.835203 0.761628 0.486159 0.047890
H115  H     H_    0.862808 0.664537 0.476573 0.159477
H116  H     H_    0.226050 0.822963 0.504842 0.056825
H117  H     H_    0.322082 0.859714 0.515053 0.176219
H118  H     H_    0.298604 0.792355 0.443399 0.154935
H119  H     H_    0.191390 0.310447 0.422155 0.158661
H120  H     H_    0.160129 0.245780 0.493138 0.077531
H121  H     H_    0.118693 0.338775 0.486373 0.156443
H122  H     H_    0.185908 0.332948 0.629072 0.176722
H123  H     H_    0.694236 0.150140 0.489149 0.110196
H124  H     H_    0.730419 0.062706 0.530605 0.183887
H125  H     H_    0.641195 0.061654 0.486750 0.161418
H126  H     H_    0.885428 0.282514 0.510569 0.074309
H127  H     H_    0.983883 0.247682 0.510535 0.123240
H128  H     H_    0.964543 0.342109 0.537169 0.129929
H129  H     H_    0.280405 0.113780 0.498662 0.087166
H130  H     H_    0.247198 0.014787 0.501695 0.157884
H131  H     H_    0.342835 0.037005 0.524614 0.154421
H132  H     H_    0.105682 0.715073 0.508589 0.087432
H133  H     H_    0.317899 0.794310 0.634297 0.166292
H134  H     H_    0.007882 0.752149 0.506386 0.137931
H135  H     H_    0.024577 0.657331 0.533982 0.136651
H136  H     H_    0.685429 0.815931 0.523428 0.146177
H137  H     H_    0.750591 0.858421 0.460228 0.047388
H138  H     H_    0.659475 0.900070 0.472852 0.163741
H139  H     H_    0.919782 0.333400 0.765311 0.273316
H140  H     H_    0.705774 0.919766 0.725758 0.314167
H141  H     H_    0.040433 0.657404 0.764228 0.295378
H142  H     H_    0.383611 0.077967 0.705922 0.299965
H143  H     H_    0.954268 0.735872 0.219667 0.294168
H144  H     H_    0.830373 0.667357 0.647351 0.167636
H145  H     H_    0.719697 0.042458 0.232268 0.320040
H146  H     H_    0.060154 0.250151 0.219303 0.284653
H147  H     H_    0.270588 0.931079 0.248294 0.295602
H148  H     H_    0.457241 0.763892 0.275695 0.300883
H149  H     H_    0.191057 0.457258 0.241882 0.309306
H150  H     H_    0.558988 0.224330 0.277603 0.287871
H151  H     H_    0.781185 0.549589 0.241109 0.304990
H152  H     H_    0.421843 0.314603 0.631937 0.311599
H153  H     H_    0.257966 0.569710 0.688212 0.308634
H154  H     H_    0.519414 0.753321 0.687874 0.292873
H155  H     H_    0.808530 0.107367 0.800411 0.152980
H156  H     H_    0.701663 0.409354 0.675235 0.288743
H157  H     H_    0.816761 0.487395 0.609190 0.162014
H158  H     H_    0.860553 0.440347 0.533355 0.138063
H159  H     H_    0.913708 0.451211 0.617501 0.164325
H160  H     H_    0.508899 0.933160 0.656195 0.123558
H161  H     H_    0.491881 0.908676 0.561419 0.136463
H162  H     H_    0.571071 0.969833 0.583120 0.148524
H163  H     H_    0.046730 0.544637 0.612491 0.171611
H164  H     H_    0.135625 0.495295 0.631747 0.153678
H165  H     H_    0.118244 0.536372 0.542777 0.140789
H166  H     H_    0.734612 0.174941 0.895680 0.129989
H167  H     H_    0.460858 0.112460 0.537744 0.154368
H168  H     H_    0.494476 0.210913 0.546307 0.174140
H169  H     H_    0.436197 0.182400 0.469906 0.151611
H170  H     H_    0.986122 0.578796 0.317069 0.164511
H171  H     H_    0.911090 0.508360 0.301612 0.134802
H172  H     H_    0.933288 0.540713 0.393376 0.132909
H173  H     H_    0.583654 0.008242 0.366304 0.188158
H174  H     H_    0.520967 0.064689 0.307063 0.129842
H175  H     H_    0.520316 0.076526 0.405624 0.112040
H176  H     H_    0.041259 0.458628 0.275692 0.108130
N1    N     N_R   0.425360 0.368540 0.922560 -0.163078
N2    N     N_R   0.131460 0.925360 0.422560 -0.147223
N3    N     N_R   0.074640 0.131460 0.422560 -0.150140
N4    N     N_R   0.868540 0.074640 0.422560 -0.127127
N5    N     N_R   0.925360 0.131460 0.577440 -0.162516
N6    N     N_R   0.131460 0.074640 0.577440 -0.145874
N7    N     N_R   0.074640 0.868540 0.577440 -0.155654
N8    N     N_R   0.868540 0.925360 0.577440 -0.132354
N9    N     N_R   0.425340 0.631500 0.922560 -0.157321
N10   N     N_R   0.368500 0.425340 0.922560 -0.142429
N11   N     N_R   0.574660 0.368500 0.922560 -0.157588
N12   N     N_R   0.631460 0.425360 0.922560 -0.125852
N13   N     N_R   0.631500 0.574660 0.922560 -0.138249
N14   N     N_R   0.425340 0.368500 0.077440 -0.141849
N15   N     N_R   0.368500 0.574660 0.077440 -0.136183
N16   N     N_R   0.574660 0.631500 0.077440 -0.131016
N17   N     N_R   0.631500 0.425340 0.077440 -0.127249
N18   N     N_R   0.925340 0.131500 0.422560 -0.146641
N19   N     N_R   0.868500 0.925340 0.422560 -0.143052
N20   N     N_R   0.074660 0.868500 0.422560 -0.150988
N21   N     N_R   0.131500 0.074660 0.422560 -0.148930
N22   N     N_R   0.925340 0.868500 0.577440 -0.144987
N23   N     N_R   0.574640 0.631460 0.922560 -0.148904
N24   N     N_R   0.868500 0.074660 0.577440 -0.139623
N25   N     N_R   0.074660 0.131500 0.577440 -0.131939
N26   N     N_R   0.131500 0.925340 0.577440 -0.128195
N27   N     N_R   0.368540 0.574640 0.922560 -0.137750
N28   N     N_R   0.425360 0.631460 0.077440 -0.149046
N29   N     N_R   0.631460 0.574640 0.077440 -0.141413
N30   N     N_R   0.574640 0.368540 0.077440 -0.166318
N31   N     N_R   0.368540 0.425360 0.077440 -0.134782
N32   N     N_R   0.925360 0.868540 0.422560 -0.163711
Ni1   Ni    Ni4+2 0.500000 0.369720 0.000000 0.164775
Ni2   Ni    Ni4+2 0.630280 0.500000 0.000000 0.257142
Ni3   Ni    Ni4+2 0.500000 0.630280 0.000000 0.214194
Ni4   Ni    Ni4+2 0.369720 0.500000 0.000000 0.231779
Ni5   Ni    Ni4+2 0.000000 0.869720 0.500000 0.181646
Ni6   Ni    Ni4+2 0.130280 0.000000 0.500000 0.196228
Ni7   Ni    Ni4+2 0.000000 0.130280 0.500000 0.180068
Ni8   Ni    Ni4+2 0.869720 0.000000 0.500000 0.222150
O1    O     O_3   0.433332 0.242172 0.874494 -0.527436
O2    O     O_3   0.263230 0.905034 0.426344 -0.569906
O3    O     O_3   0.082694 0.263838 0.404712 -0.563781
O4    O     O_3   0.734493 0.063959 0.417926 -0.542919
O5    O     O_3   0.932792 0.261805 0.614449 -0.546346
O6    O     O_3   0.264192 0.066871 0.602868 -0.582762
O7    O     O_3   0.057718 0.738158 0.609853 -0.546860
O8    O     O_3   0.734801 0.919879 0.558921 -0.572746
O9    O     O_3   0.914905 0.356061 0.714879 -0.768843
O10   O     O_3   0.666806 0.926743 0.686142 -0.742556
O11   O     O_3   0.048252 0.635456 0.713986 -0.731405
O12   O     O_3   0.765446 0.427630 0.936792 -0.567797
O13   O     O_3   0.395466 0.092221 0.653741 -0.771711
O14   O     O_3   0.955529 0.696374 0.259254 -0.736116
O15   O     O_3   0.686408 0.041290 0.276803 -0.715841
O16   O     O_3   0.051757 0.289578 0.258105 -0.751112
O17   O     O_3   0.309600 0.934702 0.288339 -0.733584
O18   O     O_3   0.457132 0.806433 0.239120 -0.793032
O19   O     O_3   0.163153 0.446358 0.195219 -0.707888
O20   O     O_3   0.552843 0.185735 0.237461 -0.732802
O21   O     O_3   0.823469 0.551051 0.204484 -0.733206
O22   O     O_3   0.461273 0.285786 0.659645 -0.839938
O23   O     O_3   0.590272 0.763656 0.903992 -0.539840
O24   O     O_3   0.227006 0.542604 0.726288 -0.764276
O25   O     O_3   0.518584 0.790535 0.729549 -0.758825
O26   O     O_3   0.731646 0.441679 0.710385 -0.748354
O27   O     O_3   0.824434 0.368823 0.616865 -0.626265
O28   O     O_3   0.583900 0.854769 0.607557 -0.654865
O29   O     O_3   0.144642 0.614506 0.624291 -0.630691
O30   O     O_3   0.378678 0.193911 0.568313 -0.644893
O31   O     O_3   0.873065 0.616265 0.330096 -0.619818
O32   O     O_3   0.614409 0.122797 0.354505 -0.620684
O33   O     O_3   0.118164 0.384863 0.326157 -0.639407
O34   O     O_3   0.234488 0.576758 0.916118 -0.562622
O35   O     O_3   0.389906 0.857006 0.362550 -0.620529
O36   O     O_3   0.371722 0.877508 0.164091 -0.612220
O37   O     O_3   0.104490 0.344496 0.129557 -0.643019
O38   O     O_3   0.628068 0.111254 0.155524 -0.620873
O39   O     O_3   0.896362 0.639224 0.133430 -0.653217
O40   O     O_3   0.475127 0.184116 0.745396 -0.553199
O41   O     O_3   0.130264 0.562070 0.815852 -0.610524
O42   O     O_3   0.600950 0.864661 0.805634 -0.611135
O43   O     O_3   0.822616 0.433801 0.806450 -0.614000
O44   O     O_3   0.439451 0.753546 0.860897 -0.549875
O45   O     O_3   0.433291 0.764340 0.099152 -0.559818
O46   O     O_3   0.320002 0.479648 0.810569 -0.563642
O47   O     O_3   0.572778 0.271560 0.831658 -0.552432
O48   O     O_3   0.671894 0.527768 0.806830 -0.549752
O49   O     O_3   0.422702 0.255547 0.152084 -0.560160
O50   O     O_3   0.262819 0.562776 0.158946 -0.547112
O51   O     O_3   0.583796 0.767890 0.078925 -0.613891
O52   O     O_3   0.756064 0.437843 0.131613 -0.541344
O53   O     O_3   0.924838 0.240289 0.342696 -0.568294
O54   O     O_3   0.814407 0.974987 0.311001 -0.560118
O55   O     O_3   0.057404 0.742503 0.371016 -0.560141
O56   O     O_3   0.765019 0.573321 0.062760 -0.525003
O57   O     O_3   0.251739 0.056443 0.361574 -0.575751
O58   O     O_3   0.929755 0.762014 0.660522 -0.556631
O59   O     O_3   0.765591 0.044661 0.659691 -0.583508
O60   O     O_3   0.072214 0.257754 0.632955 -0.602591
O61   O     O_3   0.257834 0.926479 0.633147 -0.590727
O62   O     O_3   0.564408 0.237720 0.110313 -0.531027
O63   O     O_3   0.234361 0.427891 0.064068 -0.539862
O64   O     O_3   0.911393 0.737668 0.399961 -0.536440

loop_
_geom_bond_atom_site_label_1
_geom_bond_atom_site_label_2
_ccdc_geom_bond_type
C70   C140  S    
C94   O51   S    
C34   O27   S    
C133  C151  A    
C74   C83   S    
C108  C142  S    
C31   H130  S    
N18   Ni7   S    
C27   H117  S    
C43   H8    S    
C95   N27   A    
C52   O44   S    
C17   O1    S    
C90   C107  A    
C59   H55   S    
C98   C114  A    
C94   C111  A    
N19   Ni8   S    
H150  O20   S    
C49   H26   S    
C99   N20   A    
C73   N12   A    
C22   H104  S    
C74   C136  S    
C57   O7    S    
H148  O18   S    
N16   Ni3   S    
N31   Ni4   S    
N3    N21   A    
C92   O49   S    
C93   C110  A    
C95   O34   S    
C33   H137  S    
C42   O35   S    
C126  C136  A    
C106  N28   A    
C37   H163  S    
C43   H10   S    
C28   H120  S    
C89   O46   S    
C40   H175  S    
C16   C158  A    
C65   H74   S    
C99   O55   S    
C95   C109  A    
C60   H59   S    
C63   H67   S    
C70   O27   S    
C17   H88   S    
C5    C155  A    
N11   Ni1   S    
N23   Ni3   S    
C44   H12   S    
C81   C129  S    
N4    Ni8   S    
C123  C141  A    
C41   H176  S    
C104  N26   A    
N6    Ni6   S    
N5    N24   A    
C127  C145  A    
C63   H70   S    
C86   O42   S    
C88   C109  A    
C17   H79   S    
C19   H95   S    
C58   O50   S    
H141  O11   S    
C14   H46   S    
C30   H127  S    
C13   O3    S    
C114  C150  A    
C83   C126  S    
C24   O4    S    
C21   O45   S    
C42   H7    S    
C32   H135  S    
C16   H68   S    
C66   H80   S    
C78   C79   S    
N2    N20   A    
C83   O40   S    
C116  C151  S    
C64   H71   S    
C69   H84   S    
C7    C157  A    
C62   H65   S    
C101  C122  A    
C41   O33   S    
C56   H49   S    
C27   H118  S    
N17   N30   A    
N7    N26   A    
N19   N32   A    
C23   H107  S    
C2    N2    A    
C60   O52   S    
C106  O45   S    
C61   O53   S    
C41   H4    S    
C84   O23   S    
C33   O8    S    
C25   H109  S    
C102  C119  A    
C1    C105  A    
C102  O59   S    
C91   N13   A    
C65   H76   S    
C50   H28   S    
C6    C9    A    
C72   C85   S    
C7    C8    A    
C58   H51   S    
C102  N24   A    
C117  O56   S    
C44   H14   S    
C45   H15   S    
C26   H115  S    
C68   N8    A    
C40   H174  S    
C100  O57   S    
C54   H43   S    
C3    H111  S    
C137  C155  A    
C72   O11   S    
N3    Ni7   S    
C50   H29   S    
C78   C132  S    
C61   H62   S    
C19   O23   S    
C19   H93   S    
C45   O38   S    
C37   O29   S    
C22   O56   S    
C113  C139  A    
C8    C141  A    
N10   Ni4   S    
C107  C141  S    
C149  C158  A    
C13   N3    A    
C42   H5    S    
C20   H97   S    
C24   N4    A    
C30   O5    S    
N26   Ni6   S    
C82   O39   S    
C90   N11   A    
C110  C148  S    
C70   C87   S    
C5    C10   A    
C34   H159  S    
C67   H82   S    
C53   H39   S    
C79   O18   S    
C159  H89   S    
C51   H33   S    
C84   N23   A    
C21   H99   S    
C89   N10   A    
C25   O63   S    
C26   O64   S    
C12   C145  A    
C87   O43   S    
C47   H20   S    
C60   H58   S    
C71   C86   S    
C18   O12   S    
C18   H91   S    
C119  C157  S    
C79   C131  S    
C115  C149  S    
C120  C154  S    
C28   O3    S    
C46   C120  A    
C118  C152  S    
N30   Ni1   S    
C6    H144  S    
N1    N10   A    
H143  O14   S    
C86   C124  S    
C98   O54   S    
C36   H162  S    
C78   O35   S    
N6    N25   A    
N2    Ni6   S    
C139  N31   A    
C62   O54   S    
C74   O13   S    
C51   H31   S    
C29   H125  S    
C79   O36   S    
C36   O28   S    
C11   H24   S    
C26   H113  S    
N8    N22   A    
C9    C142  A    
C31   H129  S    
C75   C82   S    
N20   Ni5   S    
C32   H134  S    
C54   H41   S    
C55   H47   S    
N16   N29   A    
C68   O8    S    
C111  C117  A    
N4    N18   A    
C71   O28   S    
H146  O16   S    
C87   C123  S    
C44   O37   S    
C77   C80   S    
C125  C143  A    
C29   H124  S    
C59   O51   S    
C85   O24   S    
C126  C144  A    
C24   C118  A    
C130  C147  A    
C150  N32   A    
C93   O50   S    
C21   H102  S    
C49   H25   S    
C89   C105  A    
N12   Ni2   S    
C34   H157  S    
C6    C156  A    
C4    C154  A    
N9    Ni3   S    
C39   O31   S    
C103  C120  A    
C100  C116  A    
C96   N17   A    
C105  C144  S    
C92   N14   A    
C43   H9    S    
C39   H172  S    
C94   N16   A    
N28   Ni3   S    
C124  C138  A    
C127  C135  A    
C47   H18   S    
C60   H60   S    
C99   C115  A    
C48   H21   S    
C75   C135  S    
C73   C107  A    
C17   H87   S    
H140  O10   S    
C43   O36   S    
C86   O25   S    
N14   N31   A    
C38   H167  S    
C158  H1    S    
C85   C125  S    
C46   O6    S    
C83   O22   S    
C63   O55   S    
C15   H57   S    
C92   C113  A    
C63   H69   S    
C10   H13   S    
H145  O15   S    
C30   H128  S    
C132  C149  A    
C80   O37   S    
H156  O26   S    
C20   H96   S    
C71   C138  S    
C28   H121  S    
C55   H45   S    
C53   O46   S    
C72   O29   S    
C96   O52   S    
C68   C122  A    
N11   N12   A    
C64   H72   S    
C76   C134  S    
C59   H56   S    
C74   O30   S    
C31   O6    S    
C125  C137  A    
C62   H66   S    
C38   O30   S    
C69   O61   S    
C46   N6    A    
C38   H169  S    
C15   C159  A    
C37   H165  S    
C90   O47   S    
C50   O42   S    
C136  C154  A    
C2    C115  A    
C56   H48   S    
C54   O47   S    
C134  C152  A    
C75   O14   S    
C117  N29   A    
C109  C143  S    
C4    C11   A    
C129  C146  A    
C33   H138  S    
C32   O7    S    
C67   O60   S    
C41   H3    S    
C12   H35   S    
C130  C133  A    
C65   O58   S    
C53   H38   S    
C131  C132  A    
C37   H164  S    
C28   H119  S    
C103  O60   S    
C39   H170  S    
C35   O5    S    
C67   H83   S    
C101  O58   S    
C121  C155  S    
H153  O24   S    
C77   O33   S    
H149  O19   S    
C122  C156  S    
C91   C108  A    
C65   H75   S    
C75   O31   S    
C52   H36   S    
C48   H23   S    
C58   H52   S    
C113  C147  S    
C104  O61   S    
C44   H11   S    
C93   N15   A    
C36   H160  S    
C15   C147  A    
C22   H105  S    
C55   O48   S    
C82   O21   S    
C55   H44   S    
C7    H155  S    
C84   C108  A    
C76   O15   S    
C112  C146  S    
C31   H131  S    
N13   Ni2   S    
C50   H30   S    
C61   H61   S    
N27   Ni4   S    
C112  C128  A    
C13   C116  A    
C97   O53   S    
N15   N28   A    
C138  C156  A    
C128  N30   A    
C129  C134  A    
C58   H53   S    
C69   H86   S    
C20   O34   S    
C23   O62   S    
C30   H126  S    
C52   H37   S    
N17   Ni2   S    
C42   H6    S    
C20   H98   S    
C27   H116  S    
C152  C160  A    
H151  O21   S    
C35   C119  A    
C3    C153  A    
C33   H136  S    
N13   N23   A    
C67   H81   S    
C59   H54   S    
C139  O63   S    
C103  N25   A    
C56   H50   S    
C96   C112  A    
N21   Ni6   S    
N7    Ni5   S    
C5    H133  S    
C111  C145  S    
N32   Ni5   S    
C56   O49   S    
C78   O17   S    
C23   H108  S    
C160  H100  S    
C151  C159  A    
C97   C118  A    
N5    Ni7   S    
C47   H19   S    
C81   O38   S    
C18   H92   S    
C49   H27   S    
C3    C12   A    
N8    Ni8   S    
C80   O19   S    
C11   C144  A    
C22   H103  S    
C114  C153  S    
C8    H166  S    
C25   H110  S    
C45   H17   S    
H152  O22   S    
C2    O2    S    
C71   O10   S    
C64   O57   S    
C35   N5    A    
C124  C142  A    
C77   C133  S    
C100  N21   A    
N14   Ni1   S    
C1    O1    S    
C80   C130  S    
H139  O9    S    
C52   H34   S    
C88   N9    A    
C98   N19   A    
C45   H16   S    
C26   H114  S    
C40   H173  S    
C104  C121  A    
C54   H42   S    
C123  C140  A    
C14   C160  A    
C81   O20   S    
C61   H63   S    
C101  N22   A    
C87   O26   S    
C140  C157  A    
C85   O41   S    
C91   O48   S    
C19   H94   S    
C4    H122  S    
N15   Ni4   S    
C29   H123  S    
N9    N27   A    
C97   N18   A    
C131  C148  A    
C47   O39   S    
C48   O40   S    
N22   Ni5   S    
N29   Ni2   S    
C32   H132  S    
C21   H101  S    
C72   C137  S    
C62   H64   S    
C66   H77   S    
C76   O32   S    
C1    N1    A    
C29   O4    S    
H147  O17   S    
C34   H158  S    
C40   O32   S    
C66   O59   S    
C69   H85   S    
C53   H40   S    
C76   C81   S    
C51   O43   S    
C77   O16   S    
C39   H171  S    
C14   C146  A    
C23   H106  S    
C49   O41   S    
C135  C153  A    
C16   C148  A    
C73   O12   S    
C64   H73   S    
H142  O13   S    
C48   H22   S    
C18   H90   S    
C27   O2    S    
H154  O25   S    
C10   C143  A    
C70   O9    S    
C9    H2    S    
C38   H168  S    
C82   C127  S    
C25   H112  S    
C57   C121  A    
C128  O62   S    
C106  C110  A    
N1    Ni1   S    
C36   H161  S    
N25   Ni7   S    
C150  O64   S    
C88   O44   S    
C66   H78   S    
C51   H32   S    
C57   N7    A    
N24   Ni8   S    
