data_mof_unit_19168.cif
_audit_creation_date              2012-12-11T14:40:11-0500
_audit_creation_method            fapswitch 2.2
_symmetry_space_group_name_H-M    P1
_symmetry_Int_Tables_number       1
_space_group_crystal_system       triclinic
_cell_length_a                    19.674501
_cell_length_b                    10.860198
_cell_length_c                    19.498286
_cell_angle_alpha                 89.99956
_cell_angle_beta                  97.474177
_cell_angle_gamma                 90.0
_cell_volume                      4130.78124112

loop_
_atom_site_label
_atom_site_type_symbol
_atom_type_description
_atom_site_fract_x
_atom_site_fract_y
_atom_site_fract_z
_atom_type_partial_charge
C1    C     C_R   0.707107 0.002090 0.365963 0.557385
C2    C     C_R   0.292895 0.002097 0.634037 0.557445
C3    C     C_R   0.207467 0.500260 0.366422 0.554526
C4    C     C_R   0.792533 0.500267 0.633579 0.554508
C5    C     C_3   0.732724 0.336085 0.487004 -0.094977
C6    C     C_3   0.267231 0.336044 0.513003 -0.094976
C7    C     C_3   0.201715 0.890271 0.484172 -0.125921
C8    C     C_3   0.798307 0.890323 0.515837 -0.125925
C9    C     C_3   0.752574 0.418747 0.428866 0.039635
C10   C     C_3   0.247423 0.418759 0.571139 0.039617
C11   C     C_3   0.251507 0.913495 0.430969 0.039508
C12   C     C_3   0.748499 0.913481 0.569027 0.039501
C13   C     C_3   0.723247 0.532865 0.460605 -0.104512
C14   C     C_3   0.276789 0.532828 0.539383 -0.104467
C15   C     C_3   0.263628 0.046693 0.454768 -0.118466
C16   C     C_3   0.736335 0.046661 0.545222 -0.118454
C17   C     C_3   0.795744 0.555610 0.501777 -0.167591
C18   C     C_3   0.204292 0.555646 0.498222 -0.167571
C19   C     C_3   0.325215 0.000589 0.506958 -0.164630
C20   C     C_3   0.674777 0.000489 0.493024 -0.164615
C21   C     C_3   0.824296 0.440595 0.468357 -0.117439
C22   C     C_3   0.175703 0.440678 0.531660 -0.117478
C23   C     C_3   0.312580 0.866897 0.481999 -0.104856
C24   C     C_3   0.687458 0.866817 0.517987 -0.104875
C25   C     C_3   0.804663 0.358526 0.527308 -0.101089
C26   C     C_3   0.195293 0.358555 0.472710 -0.101092
C27   C     C_3   0.262863 0.845249 0.535752 -0.130273
C28   C     C_3   0.737190 0.845240 0.464245 -0.130286
C29   C     C_3   0.776506 0.472774 0.560159 0.062607
C30   C     C_3   0.223489 0.472758 0.439842 0.062608
C31   C     C_3   0.276188 0.977475 0.560639 0.068597
C32   C     C_3   0.723820 0.977446 0.439356 0.068607
C33   C     C_3   0.521528 0.272583 0.969734 -0.151278
C34   C     C_3   0.478456 0.272569 0.030271 -0.151313
C35   C     C_3   0.021539 0.772574 0.969729 -0.151438
C36   C     C_3   0.978469 0.772579 0.030268 -0.151423
C37   C     C_3   0.569039 0.171091 0.004857 -0.179268
C38   C     C_3   0.430958 0.171064 0.995143 -0.179271
C39   C     C_3   0.069043 0.671073 0.004855 -0.179291
C40   C     C_3   0.930961 0.671081 0.995145 -0.179291
C41   C     C_3   0.525886 0.171592 0.064914 0.002958
C42   C     C_3   0.474110 0.171594 0.935087 0.002991
C43   C     C_3   0.025892 0.671594 0.064912 0.003040
C44   C     C_3   0.974112 0.671592 0.935087 0.003026
C45   C     C_R   0.534867 0.180063 0.337886 0.551171
C46   C     C_R   0.465136 0.180063 0.662117 0.551200
C47   C     C_R   0.035150 0.679915 0.338053 0.549864
C48   C     C_R   0.964850 0.679916 0.661947 0.549850
C49   C     C_3   0.478972 0.070842 0.030354 0.282548
C50   C     C_3   0.521036 0.070857 0.969643 0.282547
C51   C     C_3   0.978969 0.570851 0.030358 0.282897
C52   C     C_3   0.021032 0.570846 0.969644 0.282896
C53   C     C_1   0.762451 0.424546 0.903937 0.032907
C54   C     C_1   0.237549 0.424547 0.096063 0.032904
C55   C     C_1   0.262453 0.924553 0.903940 0.032864
C56   C     C_1   0.737548 0.924552 0.096061 0.032814
C57   C     C_1   0.746355 0.406704 0.034077 0.014271
C58   C     C_1   0.253645 0.406703 0.965923 0.014254
C59   C     C_1   0.246358 0.906712 0.034080 0.014103
C60   C     C_1   0.753644 0.906709 0.965921 0.014155
C61   C     C_1   0.753260 0.414205 0.963372 0.007744
C62   C     C_1   0.246740 0.414205 0.036628 0.007718
C63   C     C_1   0.253264 0.914213 0.963375 0.007697
C64   C     C_1   0.746739 0.914211 0.036627 0.007700
C65   C     C_1   0.741854 0.393675 0.094493 0.048622
C66   C     C_1   0.258146 0.393673 0.905507 0.048628
C67   C     C_1   0.241856 0.893682 0.094496 0.047686
C68   C     C_1   0.758145 0.893679 0.905505 0.047729
C69   C     C_R   0.740722 0.368420 0.359694 0.545711
C70   C     C_R   0.259276 0.368428 0.640310 0.545690
C71   C     C_R   0.239566 0.863960 0.361636 0.544887
C72   C     C_R   0.760434 0.863960 0.638363 0.544890
C73   C     C_R   0.721876 0.952524 0.163729 0.545061
C74   C     C_R   0.278124 0.952523 0.836271 0.545139
C75   C     C_R   0.221877 0.452520 0.163731 0.544699
C76   C     C_R   0.778123 0.452520 0.836269 0.544678
C77   C     C_R   0.557546 0.181568 0.135451 0.564700
C78   C     C_R   0.442452 0.181568 0.864548 0.564800
C79   C     C_R   0.057552 0.681568 0.135451 0.564996
C80   C     C_R   0.942451 0.681567 0.864549 0.564960
C81   C     C_R   0.735633 0.359935 0.164088 0.553093
C82   C     C_R   0.264367 0.359934 0.835912 0.553096
C83   C     C_R   0.235635 0.859940 0.164090 0.554574
C84   C     C_R   0.764366 0.859939 0.835910 0.554579
C85   C     C_1   0.486554 0.173015 0.594998 -0.017768
C86   C     C_1   0.513459 0.173014 0.405009 -0.017755
C87   C     C_1   0.985863 0.671822 0.594732 -0.017816
C88   C     C_1   0.014139 0.671821 0.405269 -0.017811
C89   C     C_1   0.503691 0.170730 0.464600 -0.071507
C90   C     C_1   0.496329 0.170730 0.535409 -0.071515
C91   C     C_1   0.004163 0.668272 0.464742 -0.064395
C92   C     C_1   0.995840 0.668273 0.535259 -0.064403
C93   C     C_3   0.705974 0.450578 0.519660 0.109227
C94   C     C_3   0.294020 0.450491 0.480330 0.109226
C95   C     C_3   0.215700 0.021725 0.509693 0.110440
C96   C     C_3   0.784281 0.021756 0.490309 0.110425
Cr1   Cr    Cr6+3 0.765830 0.160660 0.268180 1.039968
Cr2   Cr    Cr6+3 0.234170 0.160660 0.731820 1.040049
Cr3   Cr    Cr6+3 0.265830 0.660660 0.268180 1.054297
Cr4   Cr    Cr6+3 0.734170 0.660660 0.731820 1.054180
Cr5   Cr    Cr6+3 0.612110 0.009150 0.248770 1.085969
Cr6   Cr    Cr6+3 0.387890 0.009150 0.751230 1.085250
Cr7   Cr    Cr6+3 0.112110 0.509150 0.248770 1.081070
Cr8   Cr    Cr6+3 0.887890 0.509150 0.751230 1.081374
Cr9   Cr    Cr6+3 0.615930 0.324050 0.248450 1.029770
Cr10  Cr    Cr6+3 0.384070 0.324050 0.751550 1.029792
Cr11  Cr    Cr6+3 0.115930 0.824050 0.248450 1.026865
Cr12  Cr    Cr6+3 0.884070 0.824050 0.751550 1.026855
H1    H     H_    0.702653 0.250627 0.476690 0.111674
H2    H     H_    0.297279 0.250564 0.523328 0.111694
H3    H     H_    0.149780 0.849215 0.473033 0.111714
H4    H     H_    0.850255 0.849335 0.526988 0.111759
H5    H     H_    0.685530 0.595613 0.431524 0.122133
H6    H     H_    0.314533 0.595552 0.568450 0.122111
H7    H     H_    0.262523 0.126741 0.419248 0.116432
H8    H     H_    0.737398 0.126700 0.580735 0.116420
H9    H     H_    0.375945 0.045221 0.517717 0.118301
H10   H     H_    0.624033 0.045043 0.482252 0.118324
H11   H     H_    0.824371 0.642917 0.510127 0.102765
H12   H     H_    0.175690 0.642981 0.489870 0.102746
H13   H     H_    0.873021 0.436670 0.445402 0.139268
H14   H     H_    0.126980 0.436829 0.554627 0.139255
H15   H     H_    0.352922 0.801535 0.470260 0.156720
H16   H     H_    0.647140 0.801411 0.529719 0.156760
H17   H     H_    0.838216 0.290181 0.557189 0.150664
H18   H     H_    0.161705 0.290227 0.442852 0.150621
H19   H     H_    0.260243 0.770046 0.573391 0.129237
H20   H     H_    0.739863 0.770062 0.426606 0.129218
H21   H     H_    0.625941 0.170440 0.010326 0.124758
H22   H     H_    0.374055 0.170393 0.989674 0.124751
H23   H     H_    0.125946 0.670409 0.010322 0.124628
H24   H     H_    0.874059 0.670423 0.989678 0.124629
H25   H     H_    0.539222 0.356071 0.944348 0.168808
H26   H     H_    0.460752 0.356044 0.055660 0.168726
H27   H     H_    0.039239 0.856054 0.944340 0.168429
H28   H     H_    0.960772 0.856063 0.055654 0.168464
O1    O     O_R   0.783230 0.287800 0.346510 -0.499626
O2    O     O_R   0.216770 0.287800 0.653490 -0.499587
O3    O     O_R   0.283230 0.787800 0.346510 -0.513422
O4    O     O_R   0.716770 0.787800 0.653490 -0.513449
O5    O     O_R   0.554500 0.081650 0.170370 -0.424553
O6    O     O_R   0.445500 0.081650 0.829630 -0.424930
O7    O     O_R   0.054500 0.581650 0.170370 -0.424473
O8    O     O_R   0.945500 0.581650 0.829630 -0.424320
O9    O     O_R   0.545430 0.285140 0.163100 -0.512262
O10   O     O_R   0.454570 0.285140 0.836900 -0.512173
O11   O     O_R   0.045430 0.785140 0.163100 -0.512504
O12   O     O_R   0.954570 0.785140 0.836900 -0.512543
O13   O     O_R   0.677850 0.374730 0.185500 -0.516969
O14   O     O_R   0.322150 0.374730 0.814500 -0.516945
O15   O     O_R   0.177850 0.874730 0.185500 -0.516261
O16   O     O_R   0.822150 0.874730 0.814500 -0.516264
O17   O     O_3   0.664630 0.164620 0.255130 -0.312580
O18   O     O_3   0.335370 0.164620 0.744870 -0.312518
O19   O     O_3   0.164630 0.664620 0.255130 -0.313852
O20   O     O_3   0.835370 0.664620 0.744870 -0.313870
O21   O     O_R   0.760130 0.037060 0.338610 -0.494416
O22   O     O_R   0.239870 0.037060 0.661390 -0.494349
O23   O     O_R   0.260130 0.537060 0.338610 -0.471485
O24   O     O_R   0.739870 0.537060 0.661390 -0.471508
O25   O     O_R   0.666620 0.921370 0.332440 -0.519373
O26   O     O_R   0.333380 0.921370 0.667560 -0.519454
O27   O     O_R   0.166620 0.421370 0.332440 -0.529486
O28   O     O_R   0.833380 0.421370 0.667560 -0.529458
O29   O     O_R   0.557170 0.082420 0.312350 -0.501864
O30   O     O_R   0.442830 0.082420 0.687650 -0.501962
O31   O     O_R   0.057170 0.582420 0.312350 -0.501637
O32   O     O_R   0.942830 0.582420 0.687650 -0.501592
O33   O     O_R   0.548310 0.285980 0.316250 -0.501276
O34   O     O_R   0.451690 0.285980 0.683750 -0.501269
O35   O     O_R   0.048310 0.785980 0.316250 -0.506135
O36   O     O_R   0.951690 0.785980 0.683750 -0.506145
O37   O     O_R   0.680520 0.375500 0.327470 -0.507859
O38   O     O_R   0.319480 0.375500 0.672530 -0.507874
O39   O     O_R   0.180520 0.875500 0.327470 -0.505539
O40   O     O_R   0.819480 0.875500 0.672530 -0.505529
O41   O     O_R   0.780350 0.286970 0.193350 -0.480373
O42   O     O_R   0.219650 0.286970 0.806650 -0.480349
O43   O     O_R   0.280350 0.786970 0.193350 -0.477738
O44   O     O_R   0.719650 0.786970 0.806650 -0.477813
O45   O     O_R   0.757460 0.036290 0.196640 -0.504198
O46   O     O_R   0.242540 0.036290 0.803360 -0.504181
O47   O     O_R   0.257460 0.536290 0.196640 -0.503523
O48   O     O_R   0.742540 0.536290 0.803360 -0.503525
O49   O     O_R   0.663740 0.920540 0.179290 -0.465801
O50   O     O_R   0.336260 0.920540 0.820710 -0.465977
O51   O     O_R   0.163740 0.420540 0.179290 -0.465930
O52   O     O_R   0.836260 0.420540 0.820710 -0.465859
N1    N     N_3   0.641364 0.455211 0.548552 -0.594101
H29   H     H_    0.602281 0.435701 0.508403 0.229185
H30   H     H_    0.641735 0.383055 0.584075 0.238623
N2    N     N_3   0.358627 0.455019 0.451423 -0.594061
H31   H     H_    0.397709 0.435436 0.491561 0.229175
H32   H     H_    0.358209 0.382866 0.415891 0.238607
N3    N     N_3   0.161456 0.102760 0.526906 -0.608531
H33   H     H_    0.124076 0.105496 0.483650 0.213045
H34   H     H_    0.138110 0.059947 0.565750 0.251781
N4    N     N_3   0.838507 0.102826 0.473097 -0.608588
H35   H     H_    0.875904 0.105539 0.516336 0.213043
H36   H     H_    0.861839 0.060067 0.434234 0.251818
S1    S     S_3+6 0.449373 0.936627 0.070360 0.063575
O53   O     O_2   0.407775 0.974892 0.126161 -0.298346
O54   O     O_2   0.405731 0.861354 0.017031 -0.256715
O55   O     O_3   0.516688 0.851774 0.104933 -0.454922
H37   H     H_    0.496372 0.781146 0.127151 0.355116
S2    S     S_3+6 0.550649 0.936670 0.929622 0.063487
O56   O     O_2   0.592245 0.975016 0.873832 -0.299071
O57   O     O_2   0.594297 0.861361 0.982926 -0.256237
O58   O     O_3   0.483343 0.851810 0.895033 -0.454730
H38   H     H_    0.503609 0.782397 0.871721 0.354843
S3    S     S_3+6 0.949361 0.436651 0.070373 0.062947
O59   O     O_2   0.907760 0.474953 0.126165 -0.299579
O60   O     O_2   0.905719 0.361360 0.017054 -0.256697
O61   O     O_3   0.016670 0.351797 0.104959 -0.455089
H39   H     H_    0.996365 0.281573 0.127552 0.354317
S4    S     S_3+6 0.050636 0.436638 0.929636 0.062983
O62   O     O_2   0.092239 0.474912 0.873841 -0.299284
O63   O     O_2   0.094275 0.361361 0.982966 -0.256895
O64   O     O_3   0.983326 0.351784 0.895053 -0.455155
H40   H     H_    0.003656 0.281056 0.872920 0.354425

loop_
_geom_bond_atom_site_label_1
_geom_bond_atom_site_label_2
_ccdc_geom_bond_type
C58   C62   S    
Cr9   O17   S    
Cr2   O18   S    
C67   C83   S    
Cr10  O14   S    
Cr3   O23   S    
C17   C29   S    
S1    O53   D    
C14   C18   S    
C19   C23   S    
C35   C36   S    
C8    C96   S    
S4    O64   S    
C24   H16   S    
C44   C80   S    
C75   O47   A    
C2    O26   A    
C20   H10   S    
C38   C49   S    
Cr11  O35   S    
C10   C22   S    
C96   N4    S    
Cr6   O50   S    
Cr9   O33   S    
Cr2   O2    S    
C37   C41   S    
C33   C42   S    
C38   H22   S    
C9    C69   S    
C38   C42   S    
C78   O6    A    
C15   C95   S    
C11   C71   S    
C66   C82   S    
Cr12  O12   S    
C34   H26   S    
C43   C79   S    
C36   H28   S    
C52   S4    S    
C7    C27   S    
C10   C70   S    
N1    H30   S    
C26   H18   S    
C41   C49   S    
C57   C61   S    
C84   O44   A    
C25   H17   S    
C7    C11   S    
C9    C13   S    
Cr4   O4    S    
C59   C67   T    
C15   C19   S    
C55   C74   S    
C11   C15   S    
C58   C66   T    
C48   O36   A    
Cr2   O22   S    
C71   O39   A    
C80   O8    A    
C55   C63   T    
Cr4   O48   S    
C56   C64   T    
N4    H35   S    
C18   C30   S    
Cr1   O17   S    
S2    O56   D    
Cr2   O42   S    
Cr10  O18   S    
C73   O45   A    
Cr6   O18   S    
Cr3   O47   S    
C4    C29   S    
C76   O52   A    
Cr6   O6    S    
C16   C20   S    
C46   C85   S    
Cr11  O15   S    
C44   C52   S    
C72   O40   A    
C39   C52   S    
C40   H24   S    
C19   C31   S    
Cr5   O25   S    
Cr6   O30   S    
C49   S1    S    
Cr12  O16   S    
C87   C92   T    
C25   C29   S    
O55   H37   S    
S1    O54   D    
Cr3   O3    S    
C34   C41   S    
C27   H19   S    
Cr5   O49   S    
C16   H8    S    
Cr1   O1    S    
C73   O49   A    
C29   C93   S    
C22   H14   S    
C83   O15   A    
C69   O1    A    
C12   C16   S    
Cr8   O52   S    
Cr1   O41   S    
C79   O7    A    
C16   C96   S    
C27   C31   S    
C51   C52   S    
C68   C84   S    
C20   C24   S    
C36   C40   S    
Cr7   O51   S    
S4    O62   D    
O58   H38   S    
C21   C25   S    
C10   C14   S    
C50   S2    S    
C35   H27   S    
C91   C92   S    
C17   H11   S    
O61   H39   S    
C71   O3    A    
C54   C62   T    
C6    C94   S    
Cr11  O11   S    
C14   H6    S    
C69   O37   A    
C33   C37   S    
C46   O34   A    
Cr3   O19   S    
C2    C31   S    
Cr9   O37   S    
Cr1   O21   S    
Cr3   O43   S    
C6    H2    S    
C3    C30   S    
C35   C39   S    
N3    H34   S    
C5    C9    S    
C33   H25   S    
Cr8   O32   S    
C47   O31   A    
Cr4   O24   S    
C47   O35   A    
S3    O59   D    
Cr12  O20   S    
C88   C91   T    
C28   C32   S    
C8    C12   S    
Cr9   O9    S    
C82   O42   A    
C4    O28   A    
C33   C34   S    
Cr10  O38   S    
C48   C87   S    
C1    O21   A    
C3    O23   A    
Cr7   O31   S    
Cr8   O20   S    
Cr5   O29   S    
C35   C44   S    
C70   O38   A    
C60   C68   T    
C82   O14   A    
C42   C50   S    
C79   O11   A    
C84   O16   A    
Cr7   O19   S    
C32   C96   S    
C13   H5    S    
C80   O12   A    
C70   O2    A    
C23   C27   S    
Cr12  O36   S    
C22   C26   S    
C8    C28   S    
S1    O55   S    
C15   H7    S    
C59   C63   S    
Cr11  O39   S    
C53   C76   S    
C9    C21   S    
Cr5   O17   S    
C53   C61   T    
Cr4   O44   S    
C18   H12   S    
O64   H40   S    
C24   C28   S    
Cr9   O13   S    
Cr6   O26   S    
C5    C25   S    
C42   C78   S    
C19   H9    S    
C20   C32   S    
C23   H15   S    
C95   N3    S    
C56   C73   S    
C46   O30   A    
S3    O60   D    
C34   C38   S    
Cr5   O5    S    
C75   O51   A    
C72   O4    A    
S4    O63   D    
C86   C89   T    
Cr7   O7    S    
C6    C10   S    
C5    C93   S    
C85   C90   T    
C93   N1    S    
Cr1   O45   S    
C6    C26   S    
C74   O46   A    
C3    O27   A    
Cr2   O46   S    
C7    H3    S    
C40   C51   S    
C7    C95   S    
C12   C24   S    
Cr7   O27   S    
C83   O43   A    
Cr10  O10   S    
C13   C17   S    
C60   C64   S    
N2    H31   S    
C18   C22   S    
C45   C86   S    
C81   O41   A    
C30   C94   S    
C47   C88   S    
C41   C77   S    
C37   C50   S    
S2    O58   S    
Cr4   O20   S    
Cr8   O28   S    
C4    O24   A    
C77   O9    A    
C39   H23   S    
C43   C51   S    
C81   O13   A    
Cr12  O40   S    
C11   C23   S    
C8    H4    S    
C37   H21   S    
S2    O57   D    
C1    C32   S    
C21   H13   S    
N1    H29   S    
C12   C72   S    
C94   N2    S    
C31   C95   S    
C78   O10   A    
C1    O25   A    
N3    H33   S    
C51   S3    S    
C40   C44   S    
S3    O61   S    
C2    O22   A    
C39   C43   S    
C77   O5    A    
C49   C50   S    
Cr10  O34   S    
C13   C93   S    
C65   C81   S    
C36   C43   S    
N4    H36   S    
C5    H1    S    
C74   O50   A    
C89   C90   S    
C76   O48   A    
Cr8   O8    S    
C45   O29   A    
C48   O32   A    
C14   C94   S    
Cr11  O19   S    
C45   O33   A    
C28   H20   S    
N2    H32   S    
C54   C75   S    
C57   C65   T    
C26   C30   S    
C17   C21   S    
