data_mof_unit_40657.cif
_audit_creation_date              2013-03-05T16:02:22-0500
_audit_creation_method            fapswitch 2.2
_symmetry_space_group_name_H-M    P1
_symmetry_Int_Tables_number       1
_space_group_crystal_system       triclinic
_cell_length_a                    14.972973
_cell_length_b                    14.101982
_cell_length_c                    10.812587
_cell_angle_alpha                 89.28996
_cell_angle_beta                  88.678449
_cell_angle_gamma                 89.998517
_cell_volume                      2282.27993937

loop_
_atom_site_label
_atom_site_type_symbol
_atom_site_description
_atom_site_fract_x
_atom_site_fract_y
_atom_site_fract_z
_atom_type_partial_charge
O1    O     O_R   0.367860 0.580280 0.500020 -0.546508
O2    O     O_R   0.367860 0.419720 0.500020 -0.584240
C1    C     C_R   0.326904 0.500380 0.496544 0.956329
O3    O     O_R   0.500000 0.580270 0.314790 -0.554997
O4    O     O_R   0.500000 0.419730 0.314790 -0.621419
C2    C     C_R   0.501360 0.500900 0.258123 0.842844
Zn1   Zn    Zn3+2 0.500020 0.607200 0.499990 1.099855
Zn2   Zn    Zn3+2 0.500020 0.392800 0.499990 1.091551
O5    O     O_R   0.632160 0.580270 0.499960 -0.639412
O6    O     O_R   0.632160 0.419730 0.499960 -0.592805
O7    O     O_R   0.500030 0.580270 0.685200 -0.577041
O8    O     O_R   0.500030 0.419730 0.685200 -0.549233
C3    C     C_R   0.672882 0.499530 0.501524 0.878818
C4    C     C_R   0.499391 0.499331 0.742926 0.965453
C5    C     C_3   0.467004 0.605797 0.071095 0.097941
C6    C     C_3   0.430556 0.419974 0.080492 0.063538
C7    C     C_3   0.477232 0.603223 0.926794 -0.000567
C8    C     C_3   0.422492 0.430745 0.937028 0.055464
H1    H     H_    0.412204 0.623369 0.886085 0.165644
H2    H     H_    0.359877 0.468932 0.919562 0.170521
H3    H     H_    0.641072 0.538255 0.086150 0.233468
H4    H     H_    0.624413 0.419475 0.115234 0.210166
H5    H     H_    0.644318 0.506402 0.881519 0.189225
H6    H     H_    0.602529 0.391470 0.906283 0.277143
C9    C     C_3   0.592932 0.481107 0.068920 -0.346374
C10   C     C_3   0.497167 0.502692 0.122792 -0.213338
C11   C     C_3   0.497834 0.498797 0.880375 -0.213909
C12   C     C_3   0.589487 0.466620 0.928488 -0.330285
C13   C     C_R   0.814957 0.526569 0.397807 -0.265617
C14   C     C_R   0.768322 0.496302 0.503710 -0.061190
C15   C     C_R   0.811852 0.457215 0.606126 -0.008095
C16   C     C_R   0.905312 0.456950 0.605033 0.011535
C17   C     C_R   0.953087 0.488140 0.497413 0.098708
C18   C     C_R   0.907742 0.518813 0.390091 0.043423
C19   C     C_R   0.952118 0.423133 0.707719 -0.243833
C20   C     C_R   0.044545 0.427699 0.710420 0.341949
C21   C     C_R   0.091893 0.468059 0.608249 -0.110350
C22   C     C_R   0.046419 0.489936 0.498057 -0.001218
C23   C     C_R   0.094468 0.517066 0.389922 0.098174
C24   C     C_R   0.050097 0.541139 0.281883 -0.085595
C25   C     C_R   0.956706 0.542646 0.279907 -0.063380
C26   C     C_R   0.183063 0.489849 0.613318 0.333641
C27   C     C_R   0.231006 0.501636 0.500795 -0.109384
C28   C     C_R   0.186960 0.518027 0.390747 -0.207264
H7    H     H_    0.777068 0.555429 0.322228 0.145754
H8    H     H_    0.917706 0.391271 0.786768 0.182681
H9    H     H_    0.224550 0.535626 0.306988 0.174976
H10   H     H_    0.088792 0.558994 0.198770 0.218236
C29   C     C_R   0.575714 0.797488 0.462143 0.006208
C30   C     C_R   0.577250 0.203105 0.468927 0.012748
N1    N     N_R   0.500070 0.750030 0.500050 -0.165875
N2    N     N_R   0.500070 0.249970 0.500050 -0.164641
C31   C     C_R   0.425739 0.799327 0.537758 0.435030
C32   C     C_R   0.423891 0.199322 0.527867 0.430993
C33   C     C_R   0.425633 0.899315 0.536591 -0.063630
C34   C     C_R   0.425201 0.099536 0.533117 -0.060354
C35   C     C_R   0.503449 0.949391 0.498642 0.057204
C36   C     C_R   0.503913 0.050241 0.500213 0.053395
C37   C     C_R   0.579883 0.898590 0.459651 0.010413
C38   C     C_R   0.581782 0.101900 0.467854 0.006766
C39   C     C_R   0.349197 0.950083 0.573916 -0.096143
C40   C     C_R   0.348559 0.048345 0.570375 -0.083908
C41   C     C_R   0.660378 0.051129 0.432353 -0.060359
C42   C     C_R   0.658285 0.950059 0.423147 -0.061399
H11   H     H_    0.633077 0.755490 0.436187 0.203252
H12   H     H_    0.634254 0.245537 0.441221 0.201774
H13   H     H_    0.288694 0.914549 0.605523 0.208965
H14   H     H_    0.287472 0.083774 0.598811 0.210440
N3    N     N_R   0.519012 0.687999 0.117731 0.309065
O9    O     O_R   0.489321 0.773777 0.099158 -0.263751
O10   O     O_R   0.597307 0.679168 0.166404 -0.342990
N4    N     N_R   0.463933 0.323071 0.114827 0.275976
O11   O     O_R   0.416298 0.266947 0.186902 -0.307760
O12   O     O_R   0.538382 0.288987 0.069984 -0.343752
N5    N     N_R   0.089131 0.384049 0.812944 0.249156
O13   O     O_R   0.159101 0.331241 0.793440 -0.256723
O14   O     O_R   0.053365 0.386499 0.923736 -0.311309
N6    N     N_R   0.220954 0.518708 0.728572 0.242318
O15   O     O_R   0.170401 0.558628 0.812563 -0.308354
O16   O     O_R   0.306517 0.528057 0.737628 -0.436939
C43   C     C_2   0.913080 0.565598 0.160658 0.513104
H15   H     H_    0.843900 0.547824 0.145560 0.047727
O17   O     O_2   0.955115 0.603484 0.075393 -0.496883
N7    N     N_R   0.347940 0.749683 0.581459 0.216991
O18   O     O_R   0.277117 0.748626 0.513882 -0.356721
O19   O     O_R   0.340866 0.725573 0.697660 -0.315500
N8    N     N_R   0.340354 0.246575 0.542896 0.201681
O20   O     O_R   0.283967 0.245831 0.453102 -0.352289
O21   O     O_R   0.312831 0.271063 0.652594 -0.295002
C44   C     C_2   0.745121 0.102207 0.401503 0.384969
H16   H     H_    0.785027 0.082117 0.320978 0.097406
O22   O     O_2   0.773308 0.163595 0.469046 -0.518035
C45   C     C_2   0.739779 0.899708 0.377811 0.389124
H17   H     H_    0.804928 0.919969 0.410617 0.087581
O23   O     O_2   0.735337 0.838799 0.298918 -0.494524
C46   C     C_2   0.369305 0.625603 0.106884 0.329705
H18   H     H_    0.315907 0.610623 0.043763 0.123109
O24   O     O_2   0.348932 0.656725 0.208637 -0.502056
C47   C     C_2   0.338191 0.429109 0.144661 0.404381
H19   H     H_    0.334382 0.434617 0.244272 0.074912
O25   O     O_2   0.268343 0.424489 0.088711 -0.484430
N9    N     N_R   0.542391 0.674697 0.878858 0.283317
O26   O     O_R   0.626643 0.670743 0.905323 -0.344978
O27   O     O_R   0.513774 0.748689 0.818492 -0.307232
N10   N     N_R   0.412159 0.337256 0.879285 0.286151
O28   O     O_R   0.480882 0.287292 0.843393 -0.295219
O29   O     O_R   0.336282 0.293523 0.896080 -0.201788
C48   C     C_2   0.760675 0.420431 0.715944 0.362660
H20   H     H_    0.776458 0.445369 0.807338 0.058316
O30   O     O_2   0.704789 0.358197 0.705995 -0.503274

loop_
_geom_bond_atom_site_label_1
_geom_bond_atom_site_label_2
_geom_bond_distance
_ccdc_geom_bond_type
N8    O20   1.301403 A    
C45   H17   1.085130 S    
C15   C48   1.486274 S    
C19   C20   1.386403 A    
C6    N4    1.500300 S    
C27   C28   1.390543 A    
C43   H15   1.082233 S    
C44   H16   1.085124 S    
C32   N8    1.424142 S    
C9    C12   1.536672 S    
Zn1   O7    2.033665 S    
N10   O29   1.300705 A    
C1    C27   1.435671 S    
C37   C42   1.425565 A    
C21   C22   1.416573 A    
C29   H11   1.077124 S    
C31   N7    1.427154 S    
C20   C21   1.412538 A    
N7    O19   1.299509 A    
C42   C45   1.488065 S    
N3    O9    1.303560 A    
O4    C2    1.291559 A    
O7    C4    1.294037 A    
N6    O16   1.293984 A    
C35   C37   1.409229 A    
C7    N9    1.483289 S    
C36   C38   1.409766 A    
C48   H20   1.084184 S    
C24   H10   1.084931 S    
C21   C26   1.401711 A    
N3    O10   1.301393 A    
O5    C3    1.291671 A    
C47   H19   1.081008 S    
C48   O30   1.220051 D    
C29   N1    1.367680 A    
H4    C9    1.108344 S    
C46   O24   1.221730 D    
C30   N2    1.368570 A    
C4    C11   1.485753 S    
Zn2   N2    2.014180 S    
C28   H9    1.081443 S    
C45   O23   1.220915 D    
N9    O26   1.301015 A    
C18   C25   1.421135 A    
O3    Zn1   2.042810 S    
C43   O17   1.221726 D    
N2    C32   1.371324 A    
C31   C33   1.409934 A    
C6    C10   1.612127 S    
C22   C23   1.407531 A    
C5    N3    1.495686 S    
C32   C34   1.407772 A    
C7    C11   1.589586 S    
C16   C19   1.405017 A    
C3    C14   1.430477 S    
N7    O18   1.301784 A    
N4    O12   1.299825 A    
C23   C24   1.395437 A    
N6    O15   1.302136 A    
C5    C10   1.619250 S    
C9    C10   1.566460 S    
C13   C18   1.394232 A    
C13   H7    1.080938 S    
O1    C1    1.284199 A    
N5    O13   1.300113 A    
C13   C14   1.389962 A    
C20   N5    1.438985 S    
N5    O14   1.301722 A    
C39   H13   1.081698 S    
C44   O22   1.220993 D    
C15   C16   1.399145 A    
C14   C15   1.404663 A    
Zn2   O8    2.042912 S    
C25   C43   1.490791 S    
C46   H18   1.085552 S    
C17   C18   1.420758 A    
H5    C12   1.104716 S    
N9    O27   1.301689 A    
C30   H12   1.077072 S    
O3    C2    1.282588 A    
C24   C25   1.399146 A    
C47   O25   1.222348 D    
O8    C4    1.291064 A    
C26   N6    1.444195 S    
N8    O21   1.297511 A    
C34   C40   1.404223 A    
C26   C27   1.406380 A    
C5    C46   1.531079 S    
C5    C7    1.565123 S    
H3    C9    1.101675 S    
O1    Zn1   2.014916 S    
Zn2   O6    2.014646 S    
O2    Zn2   2.014898 S    
C8    C11   1.588206 S    
H6    C12   1.105897 S    
N4    O11   1.304438 A    
O6    C3    1.280404 A    
O4    Zn2   2.033563 S    
C6    C47   1.539024 S    
C23   C28   1.385176 A    
N10   O28   1.301604 A    
C17   C22   1.397867 A    
C29   C37   1.426997 A    
C40   H14   1.082374 S    
C30   C38   1.428983 A    
C16   C17   1.417111 A    
C33   C35   1.412582 A    
O2    C1    1.292779 A    
C8    N10   1.475377 S    
Zn1   N1    2.014194 S    
C35   C36   1.422520 A    
C2    C10   1.465971 S    
C33   C39   1.403945 A    
C41   C44   1.488173 S    
C7    H1    1.113174 S    
C34   C36   1.409089 A    
C8    H2    1.100109 S    
C39   C40   1.385789 A    
C38   C41   1.425051 A    
C41   C42   1.430382 A    
Zn1   O5    2.014628 S    
C6    C8    1.564199 S    
C11   C12   1.544937 S    
N1    C31   1.369027 A    
C19   H8    1.080794 S    
