data_mof_unit_40147.cif
_audit_creation_date              2013-03-05T15:45:32-0500
_audit_creation_method            fapswitch 2.2
_symmetry_space_group_name_H-M    P1
_symmetry_Int_Tables_number       1
_space_group_crystal_system       triclinic
_cell_length_a                    10.949583
_cell_length_b                    11.006627
_cell_length_c                    18.788219
_cell_angle_alpha                 89.719627
_cell_angle_beta                  89.593787
_cell_angle_gamma                 59.571212
_cell_volume                      1952.37807736

loop_
_atom_site_label
_atom_site_type_symbol
_atom_site_description
_atom_site_fract_x
_atom_site_fract_y
_atom_site_fract_z
_atom_type_partial_charge
O1    O     O_R   0.507430 0.255570 0.581420 -0.490418
O2    O     O_R   0.280190 0.527390 0.578910 -0.509881
C1    C     C_R   0.236755 0.646376 0.609802 0.542278
O3    O     O_R   0.260310 0.739740 0.584580 -0.497329
O4    O     O_R   0.532250 0.695150 0.573830 -0.415751
C2    C     C_R   0.627965 0.589282 0.609197 0.559051
O5    O     O_R   0.744930 0.503430 0.576380 -0.500051
O6    O     O_R   0.699250 0.276390 0.571950 -0.531548
C3    C     C_R   0.628400 0.227787 0.602679 0.562479
O7    O     O_R   0.499020 0.256400 0.419850 -0.505250
O8    O     O_R   0.272400 0.528160 0.429140 -0.502119
C4    C     C_R   0.219701 0.650646 0.401813 0.551809
O9    O     O_R   0.251910 0.740570 0.423020 -0.518428
O10   O     O_R   0.524460 0.695920 0.424060 -0.495012
C5    C     C_R   0.642799 0.625380 0.393219 0.574500
O11   O     O_R   0.736530 0.504260 0.414810 -0.511507
O12   O     O_R   0.691460 0.277160 0.422180 -0.510539
C6    C     C_R   0.618428 0.229302 0.394997 0.562461
Cr1   Cr    Cr6+3 0.392930 0.397900 0.502230 1.059767
Cr2   Cr    Cr6+3 0.398240 0.708600 0.501260 1.103922
Cr3   Cr    Cr6+3 0.708800 0.393470 0.496460 1.044773
O13   O     O_3   0.499990 0.499990 0.499980 -0.300450
C7    C     C_3   0.530963 0.784325 0.791321 -0.022309
H1    H     H_    0.450920 0.773421 0.823205 0.097291
C8    C     C_3   0.507084 0.757419 0.713400 0.099873
H2    H     H_    0.424332 0.727445 0.714496 0.091209
H3    H     H_    0.838023 0.719357 0.782869 0.181061
C9    C     C_3   0.809605 0.638516 0.769829 -0.038291
C10   C     C_3   0.664274 0.528872 0.812511 -0.048669
C11   C     C_3   0.680655 0.661299 0.818496 0.000332
H4    H     H_    0.558094 0.553655 0.832269 0.119146
C12   C     C_3   0.643993 0.622726 0.683791 -0.044657
C13   C     C_3   0.777783 0.637730 0.690371 0.106209
C14   C     C_3   0.668476 0.493342 0.731933 -0.310711
H5    H     H_    0.584902 0.466738 0.721204 0.092615
H6    H     H_    0.771798 0.398538 0.718772 0.183528
H7    H     H_    0.867782 0.542347 0.666288 0.166488
C15   C     C_R   0.794917 0.128704 0.705387 -0.097951
H8    H     H_    0.885794 0.103315 0.672029 0.137683
C16   C     C_R   0.811355 0.106275 0.778736 -0.095248
H9    H     H_    0.915257 0.058780 0.801621 0.142003
C17   C     C_R   0.691913 0.147650 0.822336 0.049825
C18   C     C_R   0.557638 0.214506 0.792698 -0.116532
H10   H     H_    0.463798 0.251082 0.825394 0.153090
C19   C     C_R   0.543623 0.219013 0.720477 -0.080388
H11   H     H_    0.439863 0.254340 0.699574 0.165429
C20   C     C_R   0.660098 0.181976 0.676008 0.075937
C21   C     C_R   0.224169 0.544592 0.725726 -0.127741
H12   H     H_    0.247012 0.448253 0.699993 0.152005
C22   C     C_R   0.220375 0.551570 0.799986 -0.130421
H13   H     H_    0.241530 0.460281 0.831217 0.158116
C23   C     C_R   0.177830 0.679361 0.833516 0.016949
C24   C     C_R   0.158334 0.794826 0.792597 -0.148569
H14   H     H_    0.136045 0.892552 0.817197 0.157305
C25   C     C_R   0.158948 0.789084 0.719183 -0.115024
H15   H     H_    0.137914 0.882126 0.689518 0.180515
C26   C     C_R   0.194594 0.662797 0.684783 0.043301
C27   C     C_R   0.787327 0.594820 0.288774 -0.133878
H16   H     H_    0.882782 0.526780 0.318449 0.150575
C28   C     C_R   0.795624 0.600062 0.216176 -0.107278
H17   H     H_    0.899668 0.538189 0.192558 0.170096
C29   C     C_R   0.673756 0.682244 0.174815 0.051455
C30   C     C_R   0.541529 0.763410 0.208444 0.052081
C31   C     C_R   0.533624 0.755551 0.282206 -0.124402
H18   H     H_    0.430482 0.810900 0.307648 0.160272
C32   C     C_R   0.656054 0.667623 0.321977 -0.001561
C33   C     C_R   0.579433 0.118586 0.292572 -0.148985
H19   H     H_    0.520856 0.083639 0.325113 0.155215
C34   C     C_R   0.577291 0.107860 0.219860 -0.174901
H20   H     H_    0.523834 0.056378 0.198024 0.170959
C35   C     C_R   0.648886 0.156017 0.176245 0.016064
C36   C     C_R   0.722699 0.217147 0.206133 0.179842
C37   C     C_R   0.725576 0.225688 0.279754 -0.131233
H21   H     H_    0.777420 0.277673 0.302933 0.174958
C38   C     C_R   0.651168 0.179773 0.322721 -0.016239
C39   C     C_R   0.066021 0.815926 0.308814 -0.115880
H22   H     H_    0.048866 0.905296 0.340484 0.142910
C40   C     C_R   0.022566 0.837474 0.238486 -0.114368
H23   H     H_    0.971277 0.943318 0.216980 0.154484
C41   C     C_R   0.054273 0.722108 0.194859 0.022599
C42   C     C_R   0.117972 0.586163 0.223746 -0.137273
H24   H     H_    0.142822 0.495588 0.191110 0.150663
C43   C     C_R   0.159688 0.564702 0.294324 -0.134594
H25   H     H_    0.216948 0.457613 0.314304 0.147814
C44   C     C_R   0.140602 0.678634 0.336010 0.029695
O14   O     O_R   0.089490 0.825610 0.930610 -0.509614
O15   O     O_R   0.818370 0.054540 0.929880 -0.478927
C45   C     C_R   0.704195 0.097160 0.894891 0.576660
O16   O     O_R   0.605870 0.077310 0.915530 -0.493648
O17   O     O_R   0.646440 0.806700 0.917570 -0.484384
C46   C     C_R   0.716474 0.684301 0.891262 0.583423
O18   O     O_R   0.837200 0.593290 0.915250 -0.445341
O19   O     O_R   0.065330 0.635370 0.931590 -0.480959
C47   C     C_R   0.118930 0.707221 0.905716 0.554702
O20   O     O_R   0.068300 0.828790 0.091860 -0.463318
O21   O     O_R   0.798730 0.057480 0.079370 -0.476556
C48   C     C_R   0.673730 0.107336 0.103729 0.577177
O22   O     O_R   0.584680 0.080480 0.076790 -0.515407
O23   O     O_R   0.626790 0.809640 0.067050 -0.490883
C49   C     C_R   0.698172 0.692147 0.099342 0.579936
O24   O     O_R   0.816010 0.596460 0.076500 -0.486572
O25   O     O_R   0.045680 0.638310 0.081070 -0.510458
C50   C     C_R   0.027932 0.745773 0.118930 0.532771
Cr4   Cr    Cr6+3 0.937620 0.938540 0.007640 1.117003
Cr5   Cr    Cr6+3 0.625150 0.937450 0.994520 1.086449
Cr6   Cr    Cr6+3 0.937990 0.625080 0.001190 1.098845
O26   O     O_3   0.833590 0.833690 0.001120 -0.319954
I1    I     I_    0.422652 0.004019 0.820996 -0.228248
I2    I     I_    0.004562 0.434604 0.786985 -0.348414
I3    I     I_    0.349008 0.887925 0.152681 -0.271767
N1    N     N_R   0.792644 0.272118 0.162821 0.086644
O27   O     O_R   0.736852 0.336106 0.103106 -0.297032
O28   O     O_R   0.905448 0.269974 0.185989 -0.349600
N2    N     N_R   0.450768 0.886012 0.669093 0.134764
O29   O     O_R   0.515184 0.957417 0.663117 -0.238710
O30   O     O_R   0.323997 0.940841 0.642877 -0.332842
N3    N     N_R   0.772393 0.754868 0.649422 0.116752
O31   O     O_R   0.803662 0.842793 0.678457 -0.342470
O32   O     O_R   0.762945 0.755706 0.580399 -0.277569
I4    I     I_    0.781063 0.360138 0.887958 -0.257695

loop_
_geom_bond_atom_site_label_1
_geom_bond_atom_site_label_2
_geom_bond_distance
_ccdc_geom_bond_type
C2    C12   1.484746 S    
O15   C45   1.276604 A    
C13   N3    1.473612 S    
C6    C38   1.439482 S    
C37   H21   1.083628 S    
N1    O27   1.301595 A    
C25   H15   1.081551 S    
O14   Cr4   2.072343 S    
N2    O29   1.298959 A    
C21   C26   1.398669 A    
O4    Cr2   1.959701 S    
C19   H11   1.074039 S    
C23   C24   1.403465 A    
Cr5   O26   1.972579 S    
O8    Cr1   1.942387 S    
O19   C47   1.291711 A    
O22   Cr5   2.090789 S    
C4    C44   1.454213 S    
C39   C40   1.385694 A    
N3    O32   1.301280 A    
C15   H8    1.082701 S    
C40   C41   1.401564 A    
Cr6   O26   1.979925 S    
C27   C28   1.369243 A    
C5    O11   1.268781 A    
C48   O22   1.262813 A    
C28   C29   1.409930 A    
C14   H5    1.112830 S    
C19   C20   1.397274 A    
C34   C35   1.405170 A    
O14   C47   1.264510 A    
C27   C32   1.386660 A    
O23   C49   1.275374 A    
O6    C3    1.277630 A    
C22   C23   1.390342 A    
C7    H1    1.113469 S    
C23   C47   1.463368 S    
C11   C46   1.482760 S    
C8    C12   1.581040 S    
C16   C17   1.405010 A    
C36   N1    1.438940 S    
Cr3   O13   1.972265 S    
C37   C38   1.405223 A    
C34   H20   1.083361 S    
C42   C43   1.385289 A    
O20   C50   1.300124 A    
O6    Cr3   1.949287 S    
C24   C25   1.380883 A    
O23   Cr5   1.947374 S    
C10   I4    2.165196 S    
O1    Cr1   2.062481 S    
C41   C50   1.453349 S    
C33   H19   1.084053 S    
C7    C11   1.593027 S    
O10   Cr2   1.952316 S    
Cr1   O13   1.992915 S    
O1    C3    1.266310 A    
C39   H22   1.083471 S    
C46   O18   1.271504 A    
C40   H23   1.082472 S    
C41   C42   1.400080 A    
C22   H13   1.080718 S    
C27   H16   1.084182 S    
O5    Cr3   2.094559 S    
C5    C32   1.445113 S    
C10   C14   1.559984 S    
C42   H24   1.082925 S    
C30   C31   1.392943 A    
C28   H17   1.080956 S    
C33   C34   1.373196 A    
C31   C32   1.408909 A    
C18   H10   1.081512 S    
C10   C11   1.560779 S    
O19   Cr6   1.949254 S    
C35   C48   1.439295 S    
C43   H25   1.083402 S    
O7    Cr1   2.082339 S    
O21   C48   1.271504 A    
C29   C30   1.405660 A    
O12   C6    1.269988 A    
N1    O28   1.301400 A    
C4    O9    1.273652 A    
C21   C22   1.396858 A    
C18   C19   1.364489 A    
C15   C20   1.399750 A    
C29   C49   1.454897 S    
C1    C26   1.462587 S    
O18   Cr6   2.090325 S    
C21   H12   1.074869 S    
C43   C44   1.404089 A    
Cr2   O13   1.980615 S    
C9    C13   1.536466 S    
C3    C20   1.447595 S    
C25   C26   1.399225 A    
C33   C38   1.391841 A    
C17   C18   1.387412 A    
C1    O3    1.268487 A    
O20   Cr4   2.067130 S    
C13   H7    1.108336 S    
O24   Cr6   2.068867 S    
C16   H9    1.074610 S    
O9    Cr2   2.075846 S    
O2    Cr1   1.960482 S    
O17   Cr5   1.972653 S    
C36   C37   1.388515 A    
N2    O30   1.300712 A    
O8    C4    1.274176 A    
O11   Cr3   2.069457 S    
C24   H14   1.080519 S    
C2    O5    1.296902 A    
C9    I2    2.201746 S    
C12   C13   1.560915 S    
C30   I3    2.123793 S    
O21   Cr4   1.953047 S    
O2    C1    1.284837 A    
C8    H2    1.110296 S    
C35   C36   1.407924 A    
C10   H4    1.112457 S    
N3    O31   1.301858 A    
C31   H18   1.083220 S    
C15   C16   1.395588 A    
O17   C46   1.265702 A    
O4    C2    1.289575 A    
O7    C6    1.270493 A    
C7    I1    2.159505 S    
C9    C11   1.586760 S    
C49   O24   1.256299 A    
O25   Cr6   1.966008 S    
C14   H6    1.110258 S    
C7    C8    1.545138 S    
O25   C50   1.310047 A    
O12   Cr3   1.972314 S    
O15   Cr4   1.946698 S    
O3    Cr2   2.072774 S    
C17   C45   1.450749 S    
C45   O16   1.260440 A    
O16   Cr5   2.066321 S    
H3    C9    1.110062 S    
O10   C5    1.261853 A    
C8    N2    1.479262 S    
C39   C44   1.399932 A    
Cr4   O26   1.994806 S    
C12   C14   1.588124 S    
