data_mof_unit_23919.cif
_audit_creation_date              2012-12-11T19:47:10-0500
_audit_creation_method            fapswitch 2.2
_symmetry_space_group_name_H-M    P1
_symmetry_Int_Tables_number       1
_space_group_crystal_system       triclinic
_cell_length_a                    8.197044
_cell_length_b                    15.138448
_cell_length_c                    18.858166
_cell_angle_alpha                 102.35486
_cell_angle_beta                  91.572751
_cell_angle_gamma                 98.82959
_cell_volume                      2254.42502188

loop_
_atom_site_label
_atom_site_type_symbol
_atom_type_description
_atom_site_fract_x
_atom_site_fract_y
_atom_site_fract_z
_atom_type_partial_charge
Ba1   Ba    Ba6+2 0.853520 0.540910 0.466490 1.718493
Ba2   Ba    Ba6+2 0.336320 0.459170 0.533520 1.681140
C1    C     C_3   0.677716 0.842463 0.230805 0.245221
C2    C     C_3   0.614758 0.760922 0.264949 0.779012
C3    C     C_3   0.462375 0.316312 0.309553 0.303250
C4    C     C_3   0.434521 0.287775 0.227202 -0.368814
C5    C     C_3   0.982904 0.226836 0.714504 0.212620
C6    C     C_3   0.020413 0.213492 0.790880 -0.238543
C7    C     C_3   0.520661 0.223822 0.686562 0.440833
C8    C     C_3   0.509792 0.140022 0.719681 0.166984
C9    C     C_R   0.995146 0.443711 0.043830 -0.034801
C10   C     C_R   0.890865 0.408375 0.094409 0.366455
C11   C     C_R   0.797871 0.380467 0.935539 -0.098318
C12   C     C_3   0.135237 0.715711 0.276617 0.362420
C13   C     C_R   0.943414 0.437421 0.969258 0.041462
C14   C     C_R   0.737392 0.384859 0.867217 -0.131665
C15   C     C_R   0.827308 0.439437 0.825697 -0.040164
C16   C     C_R   0.983340 0.490532 0.854088 0.027711
C17   C     C_R   0.041911 0.488405 0.926038 0.052067
C18   C     C_R   0.769763 0.439823 0.754847 -0.007202
C19   C     C_R   0.879275 0.476501 0.708925 -0.230594
C20   C     C_R   0.027534 0.535230 0.735781 0.020462
C21   C     C_R   0.077080 0.546369 0.811948 -0.026455
C22   C     C_R   0.159035 0.486752 0.069338 -0.044742
C23   C     C_3   0.143344 0.737927 0.201734 -0.358282
C24   C     C_R   0.216280 0.491456 0.142784 -0.007536
C25   C     C_R   0.111356 0.452500 0.190940 -0.097339
C26   C     C_R   0.954666 0.405398 0.163032 -0.005053
C27   C     C_R   0.214213 0.609666 0.849120 -0.034537
C28   C     C_R   0.276997 0.601407 0.916892 -0.124719
C29   C     C_R   0.198862 0.536942 0.954166 0.011138
C30   C     C_R   0.265532 0.527026 0.022304 -0.035063
C31   C     C_R   0.435403 0.556777 0.045894 0.355474
C32   C     C_R   0.379215 0.534872 0.167868 -0.072553
C33   C     C_R   0.486996 0.564644 0.118200 -0.067101
C34   C     C_3   0.250035 0.743599 0.629709 0.346878
C35   C     C_R   0.431546 0.545314 0.241624 -0.015293
C36   C     C_R   0.322159 0.513034 0.289762 -0.283967
C37   C     C_R   0.164262 0.464537 0.265954 0.051849
C38   C     C_R   0.862263 0.172173 0.540780 -0.037565
C39   C     C_R   0.795479 0.079257 0.535208 -0.007355
C40   C     C_R   0.648888 0.895572 0.534428 -0.047962
C41   C     C_R   0.799068 0.937943 0.575703 -0.016331
C42   C     C_R   0.877437 0.023670 0.568821 -0.060391
C43   C     C_R   0.579530 0.800733 0.525790 0.008027
C44   C     C_R   0.426509 0.767527 0.486662 -0.271189
C45   C     C_3   0.337258 0.841838 0.659312 -0.331707
C46   C     C_R   0.617087 0.193378 0.474871 0.090150
C47   C     C_R   0.549596 0.100238 0.468173 -0.027937
C48   C     C_R   0.636905 0.043504 0.500477 0.084985
C49   C     C_R   0.396068 0.062729 0.431263 -0.043662
C50   C     C_R   0.324445 0.973324 0.429485 -0.089696
C51   C     C_R   0.406514 0.916246 0.462381 0.009384
C52   C     C_R   0.565219 0.951127 0.498247 0.110589
C53   C     C_R   0.335340 0.824792 0.458951 -0.015078
C54   C     C_R   0.770019 0.228458 0.512657 -0.237496
C55   C     C_3   0.965673 0.242711 0.356233 0.643876
C56   C     C_3   0.055802 0.160334 0.344901 -0.302233
C57   C     C_3   0.645496 0.681964 0.696605 0.635018
C58   C     C_3   0.722746 0.705393 0.774144 -0.310444
H1    H     H_    0.464522 0.842005 0.680864 0.029166
H2    H     H_    0.343089 0.881346 0.616047 0.084886
H3    H     H_    0.270379 0.877183 0.704431 0.205436
H4    H     H_    0.999785 0.284333 0.412166 0.032072
H5    H     H_    0.006165 0.109439 0.294424 0.105463
H6    H     H_    0.040827 0.126919 0.391859 0.104362
H7    H     H_    0.187989 0.182436 0.338591 0.101009
H8    H     H_    0.516499 0.693377 0.699351 0.034659
H9    H     H_    0.856362 0.700229 0.773567 0.143146
H10   H     H_    0.661306 0.656930 0.805661 0.080285
H11   H     H_    0.709033 0.776369 0.801281 0.104326
H12   H     H_    0.497301 0.725702 0.233576 -0.216186
H13   H     H_    0.580078 0.886639 0.232852 -0.000218
H14   H     H_    0.351409 0.342284 0.332499 -0.015080
H15   H     H_    0.570999 0.371784 0.322893 0.080539
H16   H     H_    0.322114 0.234840 0.212094 0.122645
H17   H     H_    0.417990 0.347716 0.204379 0.083612
H18   H     H_    0.543095 0.259519 0.203344 0.144931
H19   H     H_    0.179728 0.680059 0.162041 0.076643
H20   H     H_    0.964464 0.298900 0.718715 0.015794
H21   H     H_    0.868484 0.179108 0.691170 0.031463
H22   H     H_    0.144569 0.252036 0.812417 0.102048
H23   H     H_    0.927344 0.241195 0.827276 0.079569
H24   H     H_    0.651352 0.244471 0.675034 -0.173399
H25   H     H_    0.445171 0.205554 0.634283 0.094986
H26   H     H_    0.379715 0.118533 0.731782 0.074838
H27   H     H_    0.037716 0.655265 0.273712 0.100771
H28   H     H_    0.589222 0.157968 0.771226 0.056931
H29   H     H_    0.843800 0.462547 0.651524 0.071560
H30   H     H_    0.622647 0.340975 0.846454 0.101778
H31   H     H_    0.871956 0.371900 0.196218 0.132986
H32   H     H_    0.615936 0.591178 0.133857 0.131122
H33   H     H_    0.363796 0.521503 0.346101 0.063184
H34   H     H_    0.730041 0.329054 0.959947 0.141085
H35   H     H_    0.379436 0.652624 0.943833 0.119460
H36   H     H_    0.255872 0.698172 0.291561 -0.071223
H37   H     H_    0.995671 0.050629 0.598266 0.105294
H38   H     H_    0.203644 0.950243 0.401711 0.122531
H39   H     H_    0.327789 0.102159 0.404006 0.086627
H40   H     H_    0.374987 0.695682 0.478985 0.052168
H41   H     H_    0.820647 0.300045 0.517784 0.055891
H42   H     H_    0.020489 0.749601 0.183072 0.169390
H43   H     H_    0.236047 0.800306 0.203726 0.112604
H44   H     H_    0.338957 0.702326 0.601714 -0.057313
H45   H     H_    0.146720 0.743617 0.590625 0.087344
O1    O     O_2   0.871960 0.437280 0.322960 -0.464327
O2    O     O_3   0.730017 0.742008 0.657878 -0.664322
O3    O     O_3   0.097829 0.791679 0.326935 -0.593779
O4    O     O_2   0.317750 0.562750 0.677090 -0.448010
O5    O     O_3   0.068300 0.555620 0.587560 -0.503928
O6    O     O_3   0.528270 0.392500 0.627460 -0.437735
O7    O     O_3   0.188055 0.708968 0.688103 -0.604294
O8    O     O_3   0.609290 0.386840 0.459690 -0.474726
O9    O     O_3   0.105700 0.342700 0.589730 -0.466927
O10   O     O_2   0.203702 0.183078 0.539288 -0.491829
O11   O     O_3   0.115213 0.208123 0.671334 -0.590209
O12   O     O_3   0.121410 0.444460 0.412450 -0.502504
O13   O     O_3   0.580430 0.613240 0.540320 -0.457238
O14   O     O_2   0.337390 0.273050 0.457610 -0.487018
O15   O     O_3   0.490018 0.239985 0.336388 -0.611639
O16   O     O_2   0.437910 0.467385 0.756769 -0.459300
O17   O     O_3   0.458618 0.293355 0.734929 -0.632966
O18   O     O_3   0.661450 0.607570 0.372550 -0.463757
O19   O     O_2   0.764178 0.531535 0.246435 -0.491221
O20   O     O_3   0.006692 0.291179 0.301978 -0.667318
O21   O     O_3   0.733027 0.701807 0.259805 -0.597402
O22   O     O_2   0.852310 0.726980 0.542430 -0.434032
O23   O     O_3   0.084010 0.657370 0.410280 -0.499579
O24   O     O_2   0.989812 0.818604 0.457048 -0.431143
P1    P     P_3+3 0.039430 0.410940 0.333230 0.973809
P2    P     P_3+3 0.676770 0.715000 0.563590 1.000541
P3    P     P_3+3 0.126921 0.774378 0.415047 0.991963
P4    P     P_3+3 0.150290 0.589140 0.666780 0.999897
P5    P     P_3+3 0.069416 0.225092 0.584517 0.960004
P6    P     P_3+3 0.644811 0.596607 0.278693 0.962271
P7    P     P_3+3 0.517054 0.271621 0.431386 0.996733
P8    P     P_3+3 0.550103 0.399568 0.720338 1.012115
O25   O     O_3   0.586180 0.794129 0.337956 -0.728564
H46   H     H_    0.510372 0.744675 0.352435 0.252186
O26   O     O_3   0.796369 0.210036 0.348885 -0.759759
H47   H     H_    0.767044 0.179644 0.296971 0.319868
O27   O     O_3   0.654744 0.590416 0.665804 -0.688401
H48   H     H_    0.763643 0.590397 0.644318 0.282300
C59   C     C_2   0.831023 0.900611 0.271705 0.614330
H49   H     H_    0.950124 0.900000 0.248062 0.015270
O28   O     O_2   0.823174 0.948425 0.332116 -0.588335
O29   O     O_3   0.712181 0.810749 0.158107 -0.761483
H50   H     H_    0.604004 0.788723 0.129985 0.309341
C60   C     C_2   0.014979 0.113819 0.790385 0.504967
H51   H     H_    0.099369 0.075251 0.758629 0.046137
O30   O     O_2   0.915153 0.075331 0.825294 -0.563380
O31   O     O_3   0.562780 0.068286 0.670872 -0.782704
H52   H     H_    0.565544 0.018602 0.697450 0.302484
C61   C     C_2   0.272122 0.697504 0.829751 0.558964
H53   H     H_    0.401508 0.717357 0.821616 -0.051340
O32   O     O_2   0.177295 0.752322 0.829806 -0.556140
O33   O     O_3   0.721801 0.384954 0.082991 -0.745331
H54   H     H_    0.682845 0.431754 0.060191 0.312819
O34   O     O_3   0.557937 0.572157 0.999206 -0.734416
H55   H     H_    0.524946 0.529629 0.951479 0.304339
C62   C     C_2   0.856445 0.910898 0.640893 0.543490
H56   H     H_    0.771331 0.902907 0.682860 0.014487
O35   O     O_2   0.001107 0.904127 0.650747 -0.596157

loop_
_geom_bond_atom_site_label_1
_geom_bond_atom_site_label_2
_ccdc_geom_bond_type
C5    O11   S    
Ba2   O4    S    
C1    O29   S    
O33   H54   S    
C32   C35   A    
O29   H50   S    
Ba1   O23   S    
O7    P4    S    
C17   C29   A    
C45   H2    S    
Ba1   O18   S    
C62   H56   S    
Ba2   O13   S    
C5    C6    S    
C19   H29   S    
C51   C52   A    
C14   H30   S    
C8    H28   S    
C24   C25   A    
C27   C28   A    
C10   C26   A    
C6    H22   S    
C21   C27   A    
C35   C36   A    
C22   C24   A    
C54   H41   S    
Ba1   Ba2   S    
C60   O30   D    
C45   H3    S    
C3    C4    S    
Ba1   O5    S    
Ba2   O8    S    
C23   H42   S    
C4    H18   S    
O11   P5    S    
C6    H23   S    
C9    C22   A    
C15   C18   A    
C34   C45   S    
O1    P1    D    
C32   C33   A    
O16   P8    D    
C3    H14   S    
O13   P2    S    
C8    O31   S    
C9    C13   A    
O20   P1    S    
C24   C32   A    
C8    H26   S    
C29   C30   A    
C57   O27   S    
C25   C37   A    
C14   C15   A    
C38   C54   A    
O8    P7    S    
C44   C53   A    
C34   O7    S    
C35   P6    S    
C10   O33   S    
C7    C8    S    
C61   O32   D    
Ba1   O1    S    
O24   P3    D    
C7    H25   S    
C33   H32   S    
C12   O3    S    
C57   C58   S    
C19   C20   A    
Ba1   O8    S    
O23   P3    S    
C12   H36   S    
C62   O35   D    
Ba2   O12   S    
C56   H6    S    
C15   C16   A    
C51   C53   A    
C49   H39   S    
Ba2   O6    S    
Ba2   P4    S    
C20   P4    S    
O4    P4    D    
C16   C21   A    
O26   H47   S    
C59   O28   D    
Ba1   P1    S    
C16   C17   A    
C4    H17   S    
C3    O15   S    
C58   H11   S    
C47   C49   A    
C43   C44   A    
C38   P5    S    
C57   O2    S    
C49   C50   A    
C55   O26   S    
O18   P6    S    
O15   P7    S    
C40   C43   A    
C18   P8    S    
C3    H15   S    
C13   C17   A    
C41   C42   A    
C22   C30   A    
C28   H35   S    
C57   H8    S    
C42   H37   S    
C56   H5    S    
O34   H55   S    
C53   P3    S    
C58   H10   S    
C28   C29   A    
Ba2   O14   S    
C7    O17   S    
O9    P5    S    
Ba1   O12   S    
C18   C19   A    
O12   P1    S    
C61   H53   S    
C41   C62   S    
O2    P2    S    
C46   C47   A    
C5    H21   S    
O21   P6    S    
C43   P2    S    
C11   C13   A    
C39   C42   A    
C40   C41   A    
C1    C2    S    
C39   C48   A    
C2    H12   S    
C50   C51   A    
O6    P8    S    
C55   H4    S    
C46   C54   A    
C44   H40   S    
Ba2   O5    S    
O19   P6    D    
C34   H45   S    
C23   H19   S    
C46   P7    S    
C20   C21   A    
C23   H43   S    
C1    C59   S    
Ba1   O22   S    
O17   P8    S    
C59   H49   S    
Ba1   P2    S    
C45   H1    S    
C9    C10   A    
C12   H27   S    
C4    H16   S    
O10   P5    D    
O14   P7    D    
C2    O21   S    
C11   H34   S    
C34   H44   S    
C30   C31   A    
C6    C60   S    
C48   C52   A    
C60   H51   S    
C40   C52   A    
C55   O20   S    
Ba2   O9    S    
C55   C56   S    
C36   C37   A    
C58   H9    S    
C36   H33   S    
C50   H38   S    
C31   C33   A    
C26   H31   S    
Ba1   O13   S    
C12   C23   S    
C1    H13   S    
O22   P2    D    
O3    P3    S    
O25   H46   S    
C7    H24   S    
C2    O25   S    
C56   H7    S    
O31   H52   S    
C47   C48   A    
C11   C14   A    
C25   C26   A    
O27   H48   S    
C5    H20   S    
O5    P4    S    
C38   C39   A    
C37   P1    S    
C31   O34   S    
C27   C61   S    
