data_mof_unit_30341.cif
_audit_creation_date              2012-12-10T18:57:12-0500
_audit_creation_method            fapswitch 2.2
_symmetry_space_group_name_H-M    P1
_symmetry_Int_Tables_number       1
_space_group_crystal_system       triclinic
_cell_length_a                    10.690901
_cell_length_b                    9.864562
_cell_length_c                    10.757009
_cell_angle_alpha                 89.878492
_cell_angle_beta                  90.745808
_cell_angle_gamma                 89.93326
_cell_volume                      1134.34606113

loop_
_atom_site_label
_atom_site_type_symbol
_atom_type_description
_atom_site_fract_x
_atom_site_fract_y
_atom_site_fract_z
_atom_type_partial_charge
C1    C     C_R   0.260062 0.500183 0.500142 0.865266
C2    C     C_R   0.739994 0.500007 0.499356 0.844481
C3    C     C_R   0.587326 0.073050 0.569815 0.503146
C4    C     C_R   0.411609 0.072495 0.433079 0.518694
C5    C     C_R   0.586065 0.927109 0.568730 -0.206074
C6    C     C_R   0.413727 0.927892 0.431929 -0.164830
C7    C     C_R   0.493550 0.499732 0.260225 0.968388
C8    C     C_R   0.494248 0.499662 0.739498 0.981032
C9    C     C_R   0.510850 0.616243 0.063601 -0.217035
C10   C     C_R   0.514121 0.615733 0.936130 -0.162511
C11   C     C_R   0.482952 0.498022 0.128006 -0.145865
C12   C     C_R   0.485521 0.497919 0.871274 -0.193149
C13   C     C_R   0.451279 0.377883 0.063897 0.321227
C14   C     C_R   0.444909 0.380901 0.933712 0.312677
C15   C     C_3   0.448973 0.750690 0.925820 0.781077
C16   C     C_3   0.445569 0.751552 0.068973 0.791086
C17   C     C_R   0.064862 0.388099 0.546414 -0.217273
C18   C     C_R   0.936808 0.387126 0.543953 -0.198426
C19   C     C_R   0.872523 0.500425 0.498879 0.004221
C20   C     C_R   0.127682 0.501035 0.500555 0.016456
C21   C     C_R   0.935279 0.614572 0.454714 -0.200921
C22   C     C_R   0.063627 0.614646 0.455019 -0.173467
H1    H     H_    0.114486 0.301627 0.584874 0.156196
H2    H     H_    0.888317 0.299178 0.578558 0.183317
H3    H     H_    0.885423 0.702331 0.418826 0.155111
H4    H     H_    0.112446 0.702253 0.418869 0.149759
H5    H     H_    0.651794 0.867920 0.623165 0.182530
H6    H     H_    0.346709 0.871760 0.376576 0.178704
N1    N     N_R   0.500000 0.857200 0.500000 -0.110979
N2    N     N_R   0.500000 0.142810 0.500000 -0.157475
O1    O     O_R   0.316770 0.614620 0.499990 -0.628415
O2    O     O_R   0.683230 0.614620 0.500010 -0.639207
O3    O     O_R   0.316800 0.385290 0.500000 -0.591922
O4    O     O_R   0.683200 0.385290 0.500000 -0.590092
O5    O     O_R   0.500000 0.614690 0.316780 -0.588415
O6    O     O_R   0.500000 0.614690 0.683220 -0.582723
O7    O     O_R   0.500020 0.385360 0.316780 -0.545044
O8    O     O_R   0.499980 0.385360 0.683220 -0.542844
Zn1   Zn    Zn3+2 0.500000 0.653120 0.500000 1.001399
Zn2   Zn    Zn3+2 0.500000 0.346880 0.500000 1.070076
O9    O     O_3   0.422669 0.261516 0.129217 -0.709181
H7    H     H_    0.446372 0.181970 0.078771 0.337526
O10   O     O_3   0.391254 0.276353 0.866506 -0.785720
H8    H     H_    0.327414 0.231552 0.918355 0.328077
O11   O     O_3   0.529629 0.848293 0.873123 -0.643715
C23   C     C_3   0.467425 0.973702 0.860065 -0.175053
H9    H     H_    0.413338 0.000765 0.943670 0.139931
H10   H     H_    0.404916 0.972755 0.776728 0.199889
H11   H     H_    0.538086 0.054280 0.847199 0.216614
O12   O     O_3   0.325259 0.738371 0.121993 -0.626629
C24   C     C_3   0.258966 0.862189 0.116859 -0.302698
H12   H     H_    0.230978 0.888634 0.020223 0.181082
H13   H     H_    0.312342 0.947043 0.159643 0.224694
H14   H     H_    0.171554 0.849964 0.170064 0.170282
O13   O     O_3   0.331849 0.741631 0.863361 -0.791974
H15   H     H_    0.283164 0.666407 0.900488 0.324183
O14   O     O_3   0.520145 0.851192 0.128155 -0.776101
H16   H     H_    0.607262 0.843022 0.098074 0.330010
O15   O     O_3   0.668927 0.150217 0.643217 -0.565863
C25   C     C_3   0.771594 0.076750 0.692512 -0.386710
H17   H     H_    0.835852 0.148733 0.739858 0.193258
H18   H     H_    0.825034 0.025826 0.617756 0.157882
H19   H     H_    0.741384 0.003691 0.764789 0.196380
O16   O     O_3   0.325771 0.144818 0.361801 -0.529066
C26   C     C_3   0.202644 0.105510 0.391166 -0.309953
H20   H     H_    0.137342 0.185086 0.356929 0.208631
H21   H     H_    0.188982 0.094830 0.493232 0.137069
H22   H     H_    0.176599 0.010016 0.343361 0.128975

loop_
_geom_bond_atom_site_label_1
_geom_bond_atom_site_label_2
_ccdc_geom_bond_type
C3    N2    A    
O5    Zn1   S    
O10   H8    S    
C3    O15   S    
C6    H6    S    
C11   C13   A    
O9    H7    S    
C4    O16   S    
C21   C22   A    
C8    C12   S    
C24   H14   S    
O16   C26   S    
N1    Zn1   S    
O13   H15   S    
C13   O9    S    
C17   C18   A    
C7    O7    A    
C3    C5    A    
C1    O3    A    
O15   C25   S    
C26   H20   S    
C13   C14   A    
C7    C11   S    
C16   O14   S    
C9    C11   A    
C23   H11   S    
C2    O4    A    
O14   H16   S    
C17   H1    S    
C10   C12   A    
C15   O11   S    
C25   H19   S    
O4    Zn2   S    
C9    C10   A    
C25   H18   S    
O8    Zn2   S    
C9    C16   S    
C12   C14   A    
O12   C24   S    
O7    Zn2   S    
C5    N1    A    
C10   C15   S    
C8    O8    A    
C22   H4    S    
C18   H2    S    
O3    Zn2   S    
C20   C22   A    
C24   H13   S    
N2    Zn2   S    
C24   H12   S    
C23   H10   S    
O11   C23   S    
C1    O1    A    
C6    N1    A    
C2    O2    A    
C18   C19   A    
C8    O6    A    
O2    Zn1   S    
O1    Zn1   S    
C21   H3    S    
C23   H9    S    
C14   O10   S    
C1    C20   S    
C26   H22   S    
C19   C21   A    
C2    C19   S    
C5    H5    S    
C4    C6    A    
C17   C20   A    
O6    Zn1   S    
C4    N2    A    
C15   C16   S    
C16   O12   S    
C25   H17   S    
C26   H21   S    
C7    O5    A    
C15   O13   S    
