data_mof_unit_59793.cif
_audit_creation_date              2012-12-11T14:23:15-0500
_audit_creation_method            fapswitch 2.2
_symmetry_space_group_name_H-M    P1
_symmetry_Int_Tables_number       1
_space_group_crystal_system       triclinic
_cell_length_a                    10.911832
_cell_length_b                    10.936588
_cell_length_c                    18.879028
_cell_angle_alpha                 90.052041
_cell_angle_beta                  90.246829
_cell_angle_gamma                 61.146396
_cell_volume                      1973.27329565

loop_
_atom_site_label
_atom_site_type_symbol
_atom_type_description
_atom_site_fract_x
_atom_site_fract_y
_atom_site_fract_z
_atom_type_partial_charge
C1    C     C_R   0.237565 0.643851 0.610193 0.531517
C2    C     C_R   0.600869 0.107222 0.703710 -0.155696
C3    C     C_R   0.607040 0.098554 0.776276 -0.146419
C4    C     C_R   0.650700 0.617055 0.603152 0.542903
C5    C     C_R   0.911915 0.158037 0.813153 -0.135369
C6    C     C_R   0.018699 0.161164 0.774190 -0.140289
C7    C     C_R   0.022203 0.146598 0.700852 -0.133005
C8    C     C_R   0.916177 0.136077 0.665719 -0.119798
C9    C     C_R   0.687250 0.144707 0.667441 -0.021584
C10   C     C_R   0.177885 0.673893 0.834256 0.002339
C11   C     C_R   0.213027 0.545322 0.801711 -0.001809
C12   C     C_3   0.722536 0.520011 0.799563 -0.244214
C13   C     C_R   0.209847 0.537425 0.726499 -0.036195
C14   C     C_R   0.168735 0.777046 0.720063 -0.159771
C15   C     C_R   0.162447 0.786201 0.792756 -0.154029
C16   C     C_R   0.632358 0.221624 0.600574 0.546457
C17   C     C_R   0.250842 0.424627 0.842891 -0.144458
C18   C     C_R   0.272648 0.301375 0.811555 -0.100353
C19   C     C_R   0.259001 0.295339 0.738822 0.333483
C20   C     C_R   0.224576 0.412159 0.696640 -0.058997
C21   C     C_R   0.193456 0.654494 0.685145 -0.011075
C22   C     C_R   0.678352 0.652170 0.171563 -0.009310
C23   C     C_3   0.695126 0.669704 0.814451 0.048492
C24   C     C_R   0.797349 0.572515 0.216262 0.034309
C25   C     C_R   0.785530 0.602224 0.288994 0.018816
C26   C     C_R   0.533685 0.712124 0.275652 -0.152641
C27   C     C_R   0.547140 0.710853 0.202101 -0.197227
C28   C     C_R   0.221396 0.648544 0.401657 0.523650
C29   C     C_R   0.924621 0.457820 0.192977 -0.073737
C30   C     C_R   0.039381 0.393643 0.237992 -0.144178
C31   C     C_R   0.030301 0.441396 0.306911 -0.121126
C32   C     C_R   0.906852 0.550532 0.331163 -0.078651
C33   C     C_R   0.652756 0.662157 0.319672 0.005960
C34   C     C_3   0.665963 0.641201 0.679109 0.038842
C35   C     C_R   0.646173 0.154317 0.177400 0.008965
C36   C     C_R   0.555400 0.126648 0.220365 0.020467
C37   C     C_R   0.508171 0.197571 0.284198 0.033754
C38   C     C_R   0.670419 0.291951 0.270062 -0.166878
C39   C     C_R   0.698005 0.241192 0.201482 -0.150005
C40   C     C_R   0.640989 0.623769 0.392482 0.526210
C41   C     C_R   0.509173 0.030223 0.201675 -0.080368
C42   C     C_R   0.396476 0.029384 0.234783 -0.120283
C43   C     C_R   0.337434 0.111180 0.292667 -0.150074
C44   C     C_R   0.391221 0.194263 0.317007 -0.092749
C45   C     C_3   0.783732 0.678652 0.690408 -0.251937
C46   C     C_R   0.582841 0.264265 0.313123 -0.000469
C47   C     C_R   0.139965 0.700559 0.185898 0.028440
C48   C     C_R   0.101291 0.822191 0.231290 0.013750
C49   C     C_R   0.086967 0.801165 0.303706 0.002088
C50   C     C_R   0.229532 0.552665 0.285655 -0.151581
C51   C     C_R   0.207175 0.567579 0.214005 -0.153402
C52   C     C_R   0.576372 0.296754 0.388364 0.558976
C53   C     C_R   0.073160 0.962366 0.211416 0.081781
C54   C     C_R   0.007131 0.071678 0.260541 -0.152884
C55   C     C_R   0.972032 0.048860 0.327497 -0.143233
C56   C     C_3   0.702312 0.504226 0.720274 -0.216746
C57   C     C_R   0.011069 0.914817 0.349233 -0.089306
C58   C     C_R   0.164018 0.666551 0.331110 0.002234
C59   C     C_R   0.706878 0.092843 0.892990 0.535375
C60   C     C_R   0.720749 0.685989 0.889713 0.539256
C61   C     C_R   0.118564 0.707006 0.905863 0.534485
C62   C     C_R   0.677868 0.099159 0.106103 0.540356
C63   C     C_R   0.699032 0.686182 0.097910 0.536150
C64   C     C_3   0.543048 0.772325 0.790896 -0.235624
C65   C     C_R   0.090787 0.715102 0.113469 0.557488
C66   C     C_3   0.527755 0.759936 0.710572 -0.221909
C67   C     C_R   0.703850 0.121276 0.816023 -0.008736
C68   C     C_3   0.799256 0.698049 0.770057 -0.218142
C69   C     C_2   0.126948 0.002287 0.147382 0.584448
C70   C     C_R   0.806443 0.140163 0.778828 0.019231
C71   C     C_R   0.803100 0.140989 0.703332 0.025451
Cr1   Cr    Cr6+3 0.392940 0.397950 0.502230 0.997335
Cr2   Cr    Cr6+3 0.398400 0.708500 0.501260 1.014482
Cr3   Cr    Cr6+3 0.708640 0.393530 0.496460 0.989034
Cr4   Cr    Cr6+3 0.937880 0.938320 0.007620 1.059109
Cr5   Cr    Cr6+3 0.625560 0.937220 0.994510 1.001089
Cr6   Cr    Cr6+3 0.938080 0.625010 0.001190 1.014863
F1    F     F_    0.286655 0.172803 0.708630 -0.724887
H1    H     H_    0.514541 0.881523 0.803719 0.146486
H2    H     H_    0.926397 0.119349 0.609105 0.135776
H3    H     H_    0.158972 0.866318 0.690995 0.158741
H4    H     H_    0.468297 0.748259 0.819603 0.122129
H5    H     H_    0.267495 0.423398 0.899470 0.140089
H6    H     H_    0.139838 0.884801 0.816440 0.159838
H7    H     H_    0.301081 0.209837 0.843934 0.120666
H8    H     H_    0.206419 0.401798 0.641445 0.164095
H9    H     H_    0.430338 0.749384 0.297900 0.153462
H10   H     H_    0.935432 0.407593 0.142450 0.184919
H11   H     H_    0.456505 0.751636 0.168731 0.184533
H12   H     H_    0.800623 0.417073 0.699532 0.167780
H13   H     H_    0.134709 0.307025 0.218758 0.145359
H14   H     H_    0.116478 0.393196 0.343031 0.104748
H15   H     H_    0.440055 0.737551 0.700774 0.151834
H16   H     H_    0.903223 0.584473 0.385426 0.125820
H17   H     H_    0.720030 0.350242 0.290118 0.141105
H18   H     H_    0.560368 0.952826 0.162616 0.179032
H19   H     H_    0.764114 0.265294 0.168128 0.152255
H20   H     H_    0.353961 0.965328 0.216253 0.150948
H21   H     H_    0.248886 0.111377 0.318516 0.116905
H22   H     H_    0.331983 0.259220 0.360080 0.145321
H23   H     H_    0.909029 0.625621 0.786415 0.146624
H24   H     H_    0.299089 0.452022 0.305941 0.127311
H25   H     H_    0.246301 0.475984 0.180447 0.131857
H26   H     H_    0.500690 0.861131 0.684473 0.160440
H27   H     H_    0.985023 0.176661 0.247854 0.140932
H28   H     H_    0.923176 0.134540 0.364300 0.156514
H29   H     H_    0.989688 0.898914 0.403465 0.127633
H30   H     H_    0.780708 0.805907 0.779859 0.129578
H31   H     H_    0.759201 0.776466 0.661417 0.117022
H32   H     H_    0.831362 0.443377 0.815089 0.150264
H33   H     H_    0.650344 0.496544 0.831055 0.116270
H34   H     H_    0.884349 0.594264 0.669389 0.129990
H35   H     H_    0.617914 0.475743 0.712774 0.128431
H36   H     H_    0.273565 0.946236 0.071206 0.332832
H37   H     H_    0.521889 0.093367 0.675847 0.208999
H38   H     H_    0.913101 0.172219 0.869580 0.145546
H39   H     H_    0.533527 0.073315 0.801112 0.163270
H40   H     H_    0.100320 0.171682 0.801413 0.155695
H41   H     H_    0.106426 0.142530 0.669854 0.207542
O1    O     O_R   0.507340 0.255690 0.581430 -0.502990
O2    O     O_R   0.837290 0.593240 0.915240 -0.523389
O3    O     O_R   0.065320 0.635310 0.931580 -0.508927
O4    O     O_R   0.280360 0.527380 0.578910 -0.516622
O5    O     O_R   0.068470 0.828620 0.091850 -0.482646
O6    O     O_R   0.799150 0.057200 0.079350 -0.486111
O7    O     O_R   0.585220 0.080180 0.076770 -0.533637
O8    O     O_R   0.627170 0.809480 0.067050 -0.515775
O9    O     O_R   0.816200 0.596410 0.076500 -0.529250
O10   O     O_R   0.045770 0.638240 0.081070 -0.505331
O11   O     O_3   0.833840 0.833520 0.001110 -0.259647
O12   O     O_R   0.524510 0.695820 0.424050 -0.498318
O13   O     O_R   0.260600 0.739610 0.584580 -0.526100
O14   O     O_R   0.532370 0.695050 0.573830 -0.502820
O15   O     O_R   0.744850 0.503430 0.576380 -0.526955
O16   O     O_R   0.699080 0.276500 0.571950 -0.511096
O17   O     O_R   0.498860 0.256520 0.419860 -0.535591
O18   O     O_R   0.272490 0.528150 0.429140 -0.539407
O19   O     O_R   0.252110 0.740440 0.423010 -0.516561
O20   O     O_2   0.063710 0.121461 0.124124 -0.573306
O21   O     O_R   0.248724 0.905228 0.113378 -0.726615
O22   O     O_R   0.736370 0.504260 0.414810 -0.535744
O23   O     O_R   0.691220 0.277270 0.422180 -0.511605
O24   O     O_3   0.499990 0.499990 0.499980 -0.266841
O25   O     O_R   0.089570 0.825450 0.930590 -0.522679
O26   O     O_R   0.818700 0.054260 0.929860 -0.507829
O27   O     O_R   0.606310 0.077010 0.915520 -0.532416
O28   O     O_R   0.646730 0.806540 0.917560 -0.512830

loop_
_geom_bond_atom_site_label_1
_geom_bond_atom_site_label_2
_ccdc_geom_bond_type
C69   O20   D    
Cr1   O24   S    
C32   H16   S    
Cr3   O24   S    
Cr2   O12   S    
C34   C56   S    
Cr5   O7    S    
C41   C42   A    
C19   C20   A    
C1    O13   A    
C53   C69   S    
C34   C66   S    
C12   H32   S    
C45   H34   S    
C7    C8    A    
C53   C54   A    
Cr4   O26   S    
C61   O25   A    
C1    C21   S    
C12   C23   S    
C26   C27   A    
C29   C30   A    
C14   C21   A    
C36   C37   A    
C9    C16   S    
C43   H21   S    
C10   C15   A    
C16   O1    A    
C30   C31   A    
C45   H31   S    
C39   H19   S    
C41   H18   S    
Cr2   O19   S    
C51   H25   S    
C46   C52   S    
C49   C57   A    
C18   C19   A    
C65   O5    A    
C24   C29   A    
C29   H10   S    
Cr6   O3    S    
C3    H39   S    
C59   C67   S    
C22   C63   S    
Cr5   O11   S    
C11   C17   A    
C35   C36   A    
Cr5   O28   S    
C26   H9    S    
C20   H8    S    
C38   H17   S    
C56   H35   S    
C70   C71   A    
C60   O28   A    
H36   O21   S    
C63   O9    A    
C54   H27   S    
Cr4   O11   S    
C69   O21   S    
C56   H12   S    
Cr3   O23   S    
Cr2   O13   S    
Cr5   O27   S    
C40   O22   A    
C36   C41   A    
C23   C60   S    
C50   C51   A    
C6    C7    A    
C48   C53   A    
C4    C34   S    
C18   H7    S    
C55   H28   S    
Cr4   O5    S    
C50   C58   A    
C47   C48   A    
C66   H26   S    
C28   O19   A    
C24   C25   A    
Cr4   O25   S    
C62   O7    A    
C44   H22   S    
C47   C51   A    
C52   O23   A    
C49   C58   A    
C61   O3    A    
Cr4   O6    S    
C64   C66   S    
C23   C68   S    
C19   F1    S    
C35   C39   A    
C43   C44   A    
C1    O4    A    
C5    C70   A    
C7    H41   S    
C2    H37   S    
C26   C33   A    
C31   C32   A    
Cr3   O16   S    
Cr1   O1    S    
C45   C68   S    
C17   C18   A    
C13   C21   A    
C34   C45   S    
Cr6   O10   S    
C68   H23   S    
C64   H4    S    
C12   C56   S    
Cr6   O9    S    
C66   H15   S    
C59   O26   A    
Cr1   O18   S    
C57   H29   S    
C40   O12   A    
Cr2   O14   S    
C50   H24   S    
C22   C27   A    
C55   C57   A    
C5    H38   S    
C52   O17   A    
C64   H1    S    
C22   C24   A    
C10   C61   S    
C42   C43   A    
C4    O15   A    
Cr2   O24   S    
C54   C55   A    
C48   C49   A    
C8    C71   A    
C13   C20   A    
C38   C39   A    
Cr3   O22   S    
C3    C67   A    
C28   O18   A    
C9    C71   A    
C30   H13   S    
Cr1   O17   S    
C62   O6    A    
C65   O10   A    
C15   H6    S    
C28   C58   S    
C16   O16   A    
C67   C70   A    
C37   C44   A    
C42   H20   S    
C2    C3    A    
C23   C64   S    
Cr1   O4    S    
C11   C13   A    
C5    C6    A    
C25   C32   A    
Cr3   O15   S    
C6    H40   S    
C27   H11   S    
C35   C62   S    
Cr6   O11   S    
C60   O2    A    
C38   C46   A    
Cr6   O2    S    
C10   C11   A    
C59   O27   A    
C31   H14   S    
C8    H2    S    
Cr5   O8    S    
C33   C40   S    
C14   C15   A    
C68   H30   S    
C14   H3    S    
C17   H5    S    
C37   C46   A    
C2    C9    A    
C47   C65   S    
C12   H33   S    
C63   O8    A    
C25   C33   A    
C4    O14   A    
