data_mof_unit_13947.cif
_audit_creation_date              2013-03-05T16:10:14-0500
_audit_creation_method            fapswitch 2.2
_symmetry_space_group_name_H-M    P1
_symmetry_Int_Tables_number       1
_space_group_crystal_system       triclinic
_cell_length_a                    9.995794
_cell_length_b                    10.639535
_cell_length_c                    13.09481
_cell_angle_alpha                 90.001735
_cell_angle_beta                  73.439861
_cell_angle_gamma                 90.287592
_cell_volume                      1334.85744537

loop_
_atom_site_label
_atom_site_type_symbol
_atom_site_description
_atom_site_fract_x
_atom_site_fract_y
_atom_site_fract_z
_atom_type_partial_charge
O1    O     O_R   0.385370 0.683250 0.500010 -0.606139
O2    O     O_R   0.614700 0.683220 0.500010 -0.631944
C1    C     C_R   0.501736 0.739396 0.496228 0.846050
O3    O     O_R   0.328400 0.499990 0.653620 -0.617438
O4    O     O_R   0.557730 0.499960 0.653620 -0.619884
C2    C     C_R   0.427938 0.471424 0.697626 0.900079
Zn1   Zn    Zn3+2 0.346870 0.500020 0.500000 1.042935
Zn2   Zn    Zn3+2 0.653130 0.499980 0.500000 0.964971
O5    O     O_R   0.385300 0.316780 0.499990 -0.596234
O6    O     O_R   0.614630 0.316750 0.499990 -0.619925
O7    O     O_R   0.442270 0.500040 0.346380 -0.525260
O8    O     O_R   0.671600 0.500010 0.346380 -0.627694
C3    C     C_R   0.500117 0.260678 0.498814 0.892637
C4    C     C_R   0.574878 0.506764 0.297141 0.900408
C5    C     C_R   0.801001 0.480799 0.017916 0.371743
H1    H     H_    0.836901 0.508455 0.168997 0.223285
H2    H     H_    0.852763 0.417679 0.810798 0.182977
C6    C     C_R   0.616589 0.508924 0.181257 -0.240893
C7    C     C_R   0.270445 0.358188 0.855126 -0.077056
C8    C     C_R   0.241526 0.324605 0.963178 0.001696
C9    C     C_R   0.330236 0.365500 0.021577 -0.111264
C10   C     C_R   0.460908 0.417343 0.967753 0.086557
C11   C     C_R   0.502973 0.409129 0.856752 0.085738
C12   C     C_R   0.558099 0.458579 0.019612 -0.062861
C13   C     C_R   0.701725 0.457523 0.963357 0.016195
C14   C     C_R   0.743757 0.423727 0.855402 -0.240596
C15   C     C_R   0.645544 0.388450 0.804867 -0.033560
C16   C     C_R   0.516186 0.502032 0.124894 0.266593
C17   C     C_R   0.758404 0.502995 0.126614 -0.283072
C18   C     C_R   0.398414 0.413586 0.804062 -0.138587
H3    H     H_    0.197955 0.338141 0.809836 0.193545
H4    H     H_    0.302543 0.344966 0.105790 0.204064
H5    H     H_    0.148953 0.272171 0.003799 0.207411
C19   C     C_R   0.620045 0.938097 0.425774 -0.043466
C20   C     C_R   0.618133 0.067899 0.431183 -0.118790
H6    H     H_    0.705263 0.122481 0.382809 0.183270
C21   C     C_R   0.500975 0.128368 0.495663 -0.010367
C22   C     C_R   0.384539 0.063012 0.556002 -0.088631
H7    H     H_    0.294264 0.111380 0.606036 0.158516
C23   C     C_R   0.386373 0.934432 0.554221 -0.130890
H8    H     H_    0.297298 0.883267 0.603812 0.159138
C24   C     C_R   0.503676 0.872360 0.490746 -0.106151
C25   C     C_R   0.941561 0.400438 0.461119 -0.145718
H9    H     H_    0.898725 0.320759 0.429491 0.179796
C26   C     C_R   0.084216 0.399371 0.461018 0.400151
N1    N     N_R   0.142790 0.500030 0.500030 -0.132383
C27   C     C_R   0.057186 0.599502 0.539544 -0.098612
H10   H     H_    0.098506 0.679707 0.571560 0.161441
C28   C     C_R   0.914399 0.599361 0.539646 -0.075056
H11   H     H_    0.849943 0.679490 0.571744 0.164204
N2    N     N_R   0.857180 0.499940 0.500010 -0.122591
N3    N     N_R   0.164672 0.290197 0.420299 0.211390
O9    O     O_R   0.271755 0.299099 0.336492 -0.341043
O10   O     O_R   0.113766 0.179324 0.451569 -0.403933
N4    N     N_R   0.943274 0.453439 0.968993 0.178155
O11   O     O_R   0.972976 0.341127 0.930629 -0.483423
O12   O     O_R   0.040611 0.527085 0.983358 -0.376429
N5    N     N_R   0.387791 0.571054 0.161242 0.220001
O13   O     O_R   0.277241 0.521914 0.227147 -0.348685
O14   O     O_R   0.376663 0.678040 0.116394 -0.339631
C29   C     C_2   0.692506 0.302813 0.712589 0.511728
H12   H     H_    0.800074 0.305137 0.663506 0.050922
O15   O     O_2   0.613730 0.222827 0.695368 -0.586489
C30   C     C_2   0.739212 0.874487 0.348809 0.458406
H13   H     H_    0.730454 0.777618 0.325688 0.078611
O16   O     O_2   0.848721 0.930489 0.308879 -0.517918

loop_
_geom_bond_atom_site_label_1
_geom_bond_atom_site_label_2
_geom_bond_distance
_ccdc_geom_bond_type
O4    Zn2   1.965318 S    
Zn1   O7    1.965319 S    
N4    O11   1.298817 A    
Zn1   N1    2.039830 S    
C1    C24   1.416256 S    
C21   C22   1.389285 A    
C16   N5    1.440207 S    
C4    C6    1.454762 S    
C3    C21   1.408321 S    
C27   H10   1.081530 S    
C19   C24   1.412014 A    
Zn2   O8    1.966980 S    
C7    H3    1.079652 S    
C30   H13   1.084315 S    
C8    C9    1.393938 A    
C28   N2    1.370608 A    
C23   C24   1.397878 A    
O2    C1    1.293580 A    
N5    O13   1.299938 A    
C27   C28   1.426883 A    
C6    C17   1.395752 A    
O1    Zn1   1.985214 S    
C9    C10   1.405376 A    
N3    O9    1.299395 A    
C22   C23   1.368353 A    
C25   C26   1.425672 A    
Zn2   N2    2.039681 S    
C25   N2    1.362202 A    
C14   C15   1.381718 A    
C22   H7    1.084423 S    
O3    Zn1   1.966979 S    
O4    C2    1.295110 A    
H2    C14   1.081864 S    
C19   C30   1.488741 S    
C23   H8    1.084597 S    
C2    C18   1.473803 S    
O8    C4    1.308319 A    
C5    C17   1.385127 A    
C11   C15   1.411443 A    
N4    O12   1.301025 A    
C25   H9    1.082112 S    
C29   H12   1.084259 S    
C19   C20   1.382793 A    
C9    H4    1.079724 S    
C10   C12   1.403300 A    
C5    C13   1.399346 A    
O3    C2    1.320702 A    
C8    H5    1.079202 S    
N5    O14   1.300580 A    
C11   C18   1.407907 A    
C12   C16   1.400918 A    
C6    C16   1.406716 A    
C12   C13   1.414633 A    
H1    C17   1.083910 S    
Zn2   O6    1.985216 S    
C28   H11   1.081528 S    
C5    N4    1.415059 S    
O7    C4    1.299890 A    
Zn1   O5    1.988956 S    
O5    C3    1.292484 A    
N1    C27   1.369909 A    
C15   C29   1.480398 S    
C26   N3    1.430108 S    
C20   C21   1.393621 A    
C13   C14   1.402553 A    
C26   N1    1.383807 A    
C7    C18   1.391278 A    
O6    C3    1.292111 A    
C29   O15   1.220489 D    
O2    Zn2   1.988956 S    
C10   C11   1.396120 A    
C7    C8    1.406798 A    
N3    O10   1.301294 A    
O1    C1    1.293233 A    
C20   H6    1.085116 S    
C30   O16   1.222233 D    
