data_mof_unit_54283.cif
_audit_creation_date              2012-12-11T14:08:32-0500
_audit_creation_method            fapswitch 2.2
_symmetry_space_group_name_H-M    P1
_symmetry_Int_Tables_number       1
_space_group_crystal_system       triclinic
_cell_length_a                    10.968418
_cell_length_b                    10.891726
_cell_length_c                    18.568469
_cell_angle_alpha                 90.712127
_cell_angle_beta                  90.125167
_cell_angle_gamma                 60.239861
_cell_volume                      1925.54614452

loop_
_atom_site_label
_atom_site_type_symbol
_atom_type_description
_atom_site_fract_x
_atom_site_fract_y
_atom_site_fract_z
_atom_type_partial_charge
C1    C     C_R   0.295538 0.620762 0.615278 0.560281
C2    C     C_2   0.767028 0.187678 0.711764 -0.148798
C3    C     C_2   0.257490 0.634007 0.691554 -0.081603
C4    C     C_R   0.656234 0.625812 0.599517 0.543246
C5    C     C_2   0.222980 0.647491 0.848904 -0.100864
C6    C     C_2   0.236581 0.539240 0.807683 -0.161025
C7    C     C_2   0.284507 0.521628 0.731977 -0.177009
C8    C     C_2   0.657266 0.653430 0.319822 0.067316
C9    C     C_2   0.630080 0.660479 0.156148 -0.062645
C10   C     C_2   0.710917 0.548679 0.196189 -0.147957
C11   C     C_2   0.684329 0.547102 0.272382 -0.175445
C12   C     C_3   0.675516 0.587313 0.801159 0.098620
C13   C     C_2   0.630838 0.201277 0.317450 -0.108613
C14   C     C_2   0.635807 0.207777 0.162731 -0.099562
C15   C     C_2   0.519954 0.240419 0.199591 -0.149780
C16   C     C_R   0.627577 0.229704 0.602692 0.543001
C17   C     C_2   0.515275 0.267871 0.276035 -0.164820
C18   C     C_2   0.113292 0.688201 0.346940 -0.101987
C19   C     C_2   0.046203 0.725054 0.195315 -0.057594
C20   C     C_2   0.004185 0.834495 0.241298 -0.116645
C21   C     C_2   0.057207 0.814214 0.315070 -0.140355
C22   C     C_R   0.700765 0.106295 0.898970 0.570114
C23   C     C_3   0.727747 0.697486 0.806413 0.076374
C24   C     C_R   0.756560 0.712454 0.883096 0.643304
C25   C     C_R   0.127853 0.700883 0.911186 0.598849
C26   C     C_R   0.672828 0.115423 0.100936 0.557952
C27   C     C_R   0.691225 0.687048 0.093341 0.588667
C28   C     C_R   0.214673 0.652190 0.404389 0.560505
C29   C     C_R   0.022674 0.749642 0.119226 0.583658
C30   C     C_R   0.643067 0.623531 0.393952 0.555235
C31   C     C_R   0.613721 0.234058 0.393120 0.560009
C32   C     C_3   0.611477 0.839675 0.773289 -0.224950
C33   C     C_3   0.601046 0.818950 0.691370 -0.264835
C34   C     C_3   0.680383 0.658069 0.673053 0.010783
C35   C     C_3   0.864740 0.645299 0.759974 -0.098169
C36   C     C_2   0.644598 0.791978 0.302582 0.545969
C37   C     C_2   0.905649 0.759353 0.751799 0.532428
C38   C     C_3   0.840670 0.594770 0.686012 -0.235934
C39   C     C_3   0.625803 0.584523 0.724226 -0.211346
C40   C     C_2   0.673612 0.166955 0.673702 -0.082761
C41   C     C_2   0.677970 0.181599 0.831439 -0.116058
C42   C     C_2   0.785133 0.163869 0.789842 -0.168462
Cr1   Cr    Cr6+3 0.393010 0.398050 0.501480 1.032024
Cr2   Cr    Cr6+3 0.398820 0.707980 0.501630 1.048909
Cr3   Cr    Cr6+3 0.708140 0.393940 0.496850 1.018666
Cr4   Cr    Cr6+3 0.937950 0.938450 0.008940 1.026219
Cr5   Cr    Cr6+3 0.626180 0.937030 0.994750 1.045707
Cr6   Cr    Cr6+3 0.937790 0.625760 0.001410 1.029013
H1    H     H_    0.634086 0.927237 0.783089 0.141715
H2    H     H_    0.330482 0.416878 0.707491 0.143040
H3    H     H_    0.266973 0.711947 0.830927 0.126229
H4    H     H_    0.507979 0.872287 0.798883 0.172574
H5    H     H_    0.206693 0.739789 0.715023 0.134343
H6    H     H_    0.806895 0.459885 0.174941 0.152515
H7    H     H_    0.697999 0.447002 0.291499 0.137723
H8    H     H_    0.530907 0.745197 0.177125 0.126309
H9    H     H_    0.435407 0.228057 0.176619 0.161899
H10   H     H_    0.411964 0.336033 0.299399 0.159374
H11   H     H_    0.716070 0.227834 0.185206 0.094367
H12   H     H_    0.663863 0.473155 0.707496 0.100160
H13   H     H_    0.735100 0.132197 0.295658 0.098292
H14   H     H_    0.947361 0.942078 0.221459 0.131793
H15   H     H_    0.488322 0.868877 0.676292 0.135908
H16   H     H_    0.067354 0.900151 0.339104 0.154924
H17   H     H_    0.106510 0.615927 0.212096 0.097154
H18   H     H_    0.095180 0.604770 0.326692 0.108208
H19   H     H_    0.647934 0.872555 0.660721 0.157227
H20   H     H_    0.890228 0.619244 0.640422 0.186039
H21   H     H_    0.765294 0.480231 0.813509 0.126424
H22   H     H_    0.509042 0.639851 0.722354 0.144157
H23   H     H_    0.953910 0.553755 0.786592 0.088352
H24   H     H_    0.550414 0.000302 0.326015 0.345882
H25   H     H_    0.957779 0.889965 0.801653 0.334813
H26   H     H_    0.554875 0.535572 0.853412 0.321212
H27   H     H_    0.892849 0.477106 0.686591 0.111113
H28   H     H_    0.889412 0.124171 0.812170 0.140335
H29   H     H_    0.829901 0.226364 0.685864 0.146294
H30   H     H_    0.572513 0.230108 0.809349 0.098854
H31   H     H_    0.615316 0.122425 0.698952 0.099779
H32   H     H_    0.199379 0.469838 0.826883 0.139662
O1    O     O_R   0.507110 0.256280 0.580300 -0.525323
O2    O     O_R   0.837080 0.593860 0.915300 -0.527629
O3    O     O_R   0.064770 0.636080 0.932550 -0.495772
O4    O     O_R   0.280830 0.527190 0.577940 -0.482549
O5    O     O_R   0.068250 0.829200 0.092940 -0.513191
O6    O     O_R   0.799650 0.057040 0.080330 -0.526571
O7    O     O_R   0.586130 0.079760 0.077080 -0.505280
O8    O     O_R   0.627700 0.809630 0.066580 -0.482835
O9    O     O_R   0.816140 0.597180 0.075920 -0.519192
O10   O     O_R   0.045360 0.639170 0.081440 -0.504909
O11   O     O_3   0.833980 0.833750 0.001700 -0.281165
O12   O     O_R   0.524640 0.695370 0.425100 -0.462059
O13   O     O_R   0.261360 0.738990 0.584270 -0.501158
O14   O     O_R   0.532590 0.694780 0.574370 -0.518996
O15   O     O_R   0.744470 0.503750 0.577000 -0.525691
O16   O     O_R   0.698520 0.277230 0.571620 -0.495468
O17   O     O_R   0.498530 0.256920 0.419280 -0.501189
O18   O     O_R   0.272880 0.527780 0.428680 -0.503094
O19   O     O_R   0.252780 0.739630 0.423250 -0.500301
O20   O     O_2   0.717214 0.801441 0.255543 -0.536173
O21   O     O_R   0.552575 0.911418 0.343066 -0.686165
O22   O     O_2   0.931331 0.790239 0.692783 -0.528898
O23   O     O_R   0.735890 0.504390 0.415980 -0.528022
O24   O     O_R   0.912030 0.831374 0.812573 -0.706720
O25   O     O_3   0.565410 0.620797 0.850204 -0.698284
O26   O     O_R   0.690560 0.277820 0.422350 -0.497694
O27   O     O_3   0.499990 0.499990 0.499980 -0.280445
O28   O     O_R   0.089190 0.825870 0.932320 -0.501613
O29   O     O_R   0.819070 0.053960 0.931440 -0.481921
O30   O     O_R   0.607070 0.076440 0.916460 -0.531840
O31   O     O_R   0.647110 0.806550 0.917690 -0.466160

loop_
_geom_bond_atom_site_label_1
_geom_bond_atom_site_label_2
_ccdc_geom_bond_type
C12   H21   S    
C18   C21   D    
C41   C42   D    
C19   C20   D    
Cr1   O18   S    
C12   O25   S    
C1    O4    A    
C14   H11   S    
C12   C23   S    
C9    C27   S    
C35   C37   S    
C3    C7    D    
C37   O22   D    
Cr2   O19   S    
C22   C41   S    
H24   O21   S    
C23   C32   S    
C8    C36   S    
C24   O2    A    
C32   H4    S    
C21   H16   S    
Cr2   O13   S    
Cr3   O23   S    
H25   O24   S    
C26   O7    A    
C22   O30   A    
Cr6   O11   S    
Cr4   O28   S    
C30   O23   A    
C23   C24   S    
C19   H17   S    
C9    C10   D    
C29   O5    A    
Cr2   O12   S    
C33   H15   S    
C17   H10   S    
Cr4   O5    S    
C35   H23   S    
Cr6   O10   S    
Cr1   O4    S    
C15   H9    S    
C24   O31   A    
C29   O10   A    
C38   H27   S    
C4    C34   S    
C16   O16   A    
C34   C39   S    
C35   C38   S    
C18   C28   S    
C30   O12   A    
C41   H30   S    
Cr4   O11   S    
C36   O21   S    
C1    C3    S    
Cr5   O7    S    
C4    O15   A    
C6    H32   S    
C26   O6    A    
C22   O29   A    
C33   C34   S    
C40   H31   S    
C36   O20   D    
C9    H8    S    
Cr1   O27   S    
C14   C26   S    
C16   C40   S    
C4    O14   A    
C28   O19   A    
C38   H20   S    
C23   C35   S    
Cr6   O9    S    
Cr1   O1    S    
C31   O26   A    
C5    C25   S    
C19   C29   S    
C11   H7    S    
Cr3   O26   S    
C33   H19   S    
Cr2   O27   S    
C28   O18   A    
C15   C17   S    
C34   C38   S    
Cr5   O11   S    
C13   C31   S    
Cr1   O17   S    
C7    H2    S    
C37   O24   S    
C6    C7    S    
C18   H18   S    
Cr5   O30   S    
C42   H28   S    
Cr6   O3    S    
C13   C17   D    
C8    C30   S    
C32   C33   S    
C12   C39   S    
C2    H29   S    
Cr5   O8    S    
H26   O25   S    
C3    H5    S    
C5    C6    D    
C2    C42   S    
C8    C11   D    
Cr5   O31   S    
C39   H12   S    
C16   O1    A    
C39   H22   S    
Cr6   O2    S    
C27   O9    A    
C31   O17   A    
C20   H14   S    
C27   O8    A    
C10   H6    S    
C32   H1    S    
Cr2   O14   S    
C10   C11   S    
C2    C40   D    
C13   H13   S    
C20   C21   S    
C1    O13   A    
Cr4   O29   S    
C25   O3    A    
C14   C15   D    
C5    H3    S    
Cr3   O16   S    
Cr3   O27   S    
C25   O28   A    
Cr4   O6    S    
Cr3   O15   S    
