data_mof_unit_5163.cif
_audit_creation_date              2012-12-10T16:50:10-0500
_audit_creation_method            fapswitch 2.2
_symmetry_space_group_name_H-M    P1
_symmetry_Int_Tables_number       1
_space_group_crystal_system       triclinic
_cell_length_a                    7.855024
_cell_length_b                    8.73388
_cell_length_c                    10.619645
_cell_angle_alpha                 91.760279
_cell_angle_beta                  83.912528
_cell_angle_gamma                 93.662622
_cell_volume                      722.76061428

loop_
_atom_site_label
_atom_site_type_symbol
_atom_type_description
_atom_site_fract_x
_atom_site_fract_y
_atom_site_fract_z
_atom_type_partial_charge
C1    C     C_R   0.544872 0.794192 0.493909 0.887860
C2    C     C_R   0.453953 0.205802 0.500776 0.840522
C3    C     C_R   0.504116 0.521927 0.260554 0.944932
C4    C     C_R   0.283488 0.750207 0.889671 0.389657
C5    C     C_R   0.161719 0.833689 0.962328 0.302423
C6    C     C_R   0.141371 0.820131 0.094153 0.347229
C7    C     C_R   0.255871 0.735385 0.153806 0.298672
C8    C     C_R   0.375020 0.644175 0.079379 -0.165413
C9    C     C_3   0.765604 0.799363 0.811497 -0.126745
C10   C     C_3   0.093204 0.051280 0.188461 -0.367860
C11   C     C_3   0.126631 0.023006 0.533916 -0.116294
C12   C     C_R   0.376387 0.642644 0.945682 -0.186914
C13   C     C_3   0.012725 0.404422 0.263897 -0.112744
C14   C     C_R   0.508210 0.567052 0.873013 -0.233737
C15   C     C_R   0.666938 0.585100 0.920175 0.392213
C16   C     C_R   0.669941 0.571328 0.050188 0.342263
C17   C     C_R   0.513119 0.573914 0.129047 -0.144165
C18   C     C_2   0.564275 0.956293 0.473836 0.141632
C19   C     C_2   0.427930 0.042722 0.509437 0.254100
C20   C     C_R   0.501728 0.516987 0.740443 0.935138
H1    H     H_    0.670471 0.791077 0.741461 0.151801
H2    H     H_    0.161037 0.795150 0.323907 0.364320
H3    H     H_    0.916848 0.555725 0.033557 0.339740
H4    H     H_    0.792066 0.936385 0.382022 0.366278
H5    H     H_    0.145090 0.062016 0.435298 0.149338
H6    H     H_    0.068544 0.113278 0.597404 0.199625
H7    H     H_    0.033426 0.922562 0.536266 0.178726
H8    H     H_    0.009824 0.530936 0.257582 0.204875
H9    H     H_    0.896062 0.343827 0.231937 0.195155
H10   H     H_    0.124194 0.371074 0.198366 0.117217
H11   H     H_    0.717826 0.871185 0.894704 0.124087
H12   H     H_    0.879022 0.860614 0.761775 0.221112
H13   H     H_    0.065139 0.696955 0.653453 0.393032
H14   H     H_    0.363661 0.908631 0.775671 0.362204
H15   H     H_    0.981258 0.976060 0.958474 0.361642
H16   H     H_    0.099508 0.122513 0.103259 0.176398
H17   H     H_    0.223503 0.051865 0.221002 0.173957
H18   H     H_    0.007586 0.104658 0.263659 0.248895
N1    N     N_2   0.950330 0.457950 0.466250 0.204862
N2    N     N_2   0.049670 0.542050 0.533750 0.159073
O1    O     O_R   0.389250 0.738570 0.508280 -0.523667
O2    O     O_3   0.971453 0.645809 0.609374 -0.650032
O3    O     O_3   0.337263 0.796280 0.769101 -0.729258
O4    O     O_3   0.081139 0.942123 0.902444 -0.774852
O5    O     O_3   0.020932 0.902542 0.166340 -0.603174
O6    O     O_3   0.271675 0.764072 0.280353 -0.743460
O7    O     O_3   0.823131 0.573174 0.101733 -0.780208
O8    O     O_3   0.712936 0.018381 0.407040 -0.775079
O9    O     O_3   0.279404 0.980706 0.578853 -0.618645
O10   O     O_3   0.034892 0.360147 0.386468 -0.556941
O11   O     O_R   0.678390 0.711630 0.486650 -0.629997
O12   O     O_R   0.355400 0.513470 0.694050 -0.582082
O13   O     O_R   0.644540 0.486530 0.672420 -0.568879
O14   O     O_R   0.321610 0.288370 0.513350 -0.613313
O15   O     O_R   0.610750 0.261430 0.491720 -0.568040
O16   O     O_R   0.355460 0.513470 0.327580 -0.573133
O17   O     O_R   0.644600 0.486530 0.305950 -0.604540
O18   O     O_3   0.808009 0.652236 0.848101 -0.573256
Zn1   Zn    Zn3+2 0.306930 0.517990 0.514440 1.078628
Zn2   Zn    Zn3+2 0.693070 0.482010 0.485560 1.074824

loop_
_geom_bond_atom_site_label_1
_geom_bond_atom_site_label_2
_ccdc_geom_bond_type
C13   H8    S    
C6    C7    A    
C11   O9    S    
O12   Zn1   S    
C8    C12   A    
C4    C12   A    
C3    O16   A    
C19   O9    S    
C20   O13   A    
C8    C17   A    
C9    H12   S    
O16   Zn1   S    
C11   H7    S    
C10   H18   S    
C10   O5    S    
N2    O2    S    
C7    C8    A    
C20   O12   A    
N2    Zn1   S    
O15   Zn2   S    
H15   O4    S    
C1    O11   A    
C9    H1    S    
C1    C18   S    
C11   H5    S    
C10   H17   S    
N1    Zn2   S    
C3    O17   A    
C16   O7    S    
C1    O1    A    
H2    O6    S    
O13   Zn2   S    
C12   C14   A    
C2    O15   A    
C3    C17   S    
O14   Zn1   S    
C5    C6    A    
C15   O18   S    
H3    O7    S    
H13   O2    S    
C6    O5    S    
C4    O3    S    
C15   C16   A    
H4    O8    S    
C7    O6    S    
C14   C20   S    
C13   H10   S    
N1    O10   S    
O1    Zn1   S    
C18   C19   D    
C2    O14   A    
C13   H9    S    
N1    N2    D    
C9    H11   S    
C14   C15   A    
C9    O18   S    
O17   Zn2   S    
C10   H16   S    
O11   Zn2   S    
C11   H6    S    
C2    C19   S    
C5    O4    S    
H14   O3    S    
C13   O10   S    
C16   C17   A    
C4    C5    A    
C18   O8    S    
