data_mof_unit_64865.cif
_audit_creation_date              2012-12-10T16:49:20-0500
_audit_creation_method            fapswitch 2.2
_symmetry_space_group_name_H-M    P1
_symmetry_Int_Tables_number       1
_space_group_crystal_system       triclinic
_cell_length_a                    18.783138
_cell_length_b                    19.023208
_cell_length_c                    18.803474
_cell_angle_alpha                 109.97169
_cell_angle_beta                  109.257877
_cell_angle_gamma                 109.727077
_cell_volume                      5137.00904797

loop_
_atom_site_label
_atom_site_type_symbol
_atom_type_description
_atom_site_fract_x
_atom_site_fract_y
_atom_site_fract_z
_atom_type_partial_charge
C1    C     C_R   0.380814 0.383161 0.502199 0.921083
C2    C     C_R   0.497198 0.671709 0.759578 0.095893
C3    C     C_R   0.496463 0.679542 0.687266 -0.107515
C4    C     C_R   0.500092 0.751457 0.681044 -0.204115
C5    C     C_R   0.505132 0.817160 0.746605 -0.210011
C6    C     C_R   0.507403 0.811846 0.819302 -0.105012
C7    C     C_2   0.178444 0.256979 0.503867 -0.152819
C8    C     C_2   0.175240 0.181484 0.487520 -0.337325
C9    C     C_2   0.239603 0.318196 0.492670 -0.155114
C10   C     C_2   0.316812 0.323503 0.510109 -0.341558
C11   C     C_2   0.491444 0.173037 0.249595 -0.157773
C12   C     C_R   0.497832 0.616725 0.619932 0.874531
C13   C     C_2   0.509599 0.185086 0.190255 -0.333854
C14   C     C_2   0.502706 0.245687 0.322323 -0.152726
C15   C     C_2   0.487258 0.305511 0.310132 -0.334105
C16   C     C_2   0.747590 0.739538 0.421237 -0.166597
C17   C     C_2   0.802509 0.819429 0.492306 -0.056844
C18   C     C_2   0.673995 0.676651 0.418632 -0.144061
C19   C     C_2   0.688239 0.669382 0.489469 -0.293616
C20   C     C_R   0.380331 0.994860 0.876252 0.941388
C21   C     C_R   0.503273 0.877690 0.880586 0.871879
C22   C     C_R   0.619764 0.999059 0.117494 0.918251
C23   C     C_R   0.619485 0.614689 0.496439 0.931564
C24   C     C_R   0.502135 0.116869 0.118644 0.935208
C25   C     C_R   0.878821 0.997862 0.380940 0.928910
C26   C     C_R   0.116585 0.118563 0.497169 0.933709
C27   C     C_R   0.121248 0.002149 0.619021 0.939742
C28   C     C_R   0.877803 0.881445 0.497547 0.878955
C29   C     C_2   0.252660 0.993825 0.673817 -0.154738
C30   C     C_2   0.193563 0.011253 0.687476 -0.338155
C31   C     C_2   0.324865 0.004013 0.745594 -0.157611
C32   C     C_2   0.311664 0.986207 0.804537 -0.335824
C33   C     C_2   0.747877 0.006959 0.324518 -0.158407
C34   C     C_R   0.497025 0.377970 0.379442 0.932001
C35   C     C_2   0.806923 0.988632 0.311989 -0.335191
C36   C     C_2   0.675548 0.994856 0.251126 -0.158190
C37   C     C_2   0.688334 0.008937 0.190238 -0.332920
C38   C     C_R   0.487427 0.596523 0.764206 -0.174837
C39   C     C_R   0.493647 0.593371 0.838888 -0.136924
C40   C     C_R   0.509509 0.664492 0.909891 -0.139695
C41   C     C_R   0.516063 0.737835 0.905269 -0.174854
C42   C     C_R   0.506710 0.741012 0.828742 0.098747
H1    H     H_    0.499848 0.757096 0.625504 0.160822
H2    H     H_    0.337393 0.287936 0.538589 0.157003
H3    H     H_    0.472483 0.111288 0.247239 0.162804
H4    H     H_    0.538125 0.249333 0.198336 0.157521
H5    H     H_    0.520556 0.248261 0.384688 0.163998
H6    H     H_    0.459721 0.297559 0.245318 0.155818
H7    H     H_    0.755713 0.720725 0.364311 0.147348
H8    H     H_    0.609983 0.636784 0.359730 0.158301
H9    H     H_    0.754603 0.702367 0.543722 0.168848
H10   H     H_    0.249908 0.975224 0.611115 0.164516
H11   H     H_    0.473808 0.539226 0.710241 0.151038
H12   H     H_    0.201967 0.039371 0.752681 0.156857
H13   H     H_    0.387411 0.022684 0.748011 0.163171
H14   H     H_    0.246616 0.958024 0.796374 0.157791
H15   H     H_    0.750526 0.027240 0.387252 0.164745
H16   H     H_    0.798464 0.958840 0.246896 0.157472
H17   H     H_    0.613210 0.977754 0.248941 0.162987
H18   H     H_    0.753221 0.035990 0.197889 0.158118
H19   H     H_    0.486786 0.535784 0.841902 0.137613
H20   H     H_    0.516072 0.662599 0.968508 0.137395
H21   H     H_    0.529615 0.791961 0.962490 0.153573
H22   H     H_    0.505605 0.871662 0.739839 0.156819
H23   H     H_    0.134405 0.272525 0.522510 0.167440
H24   H     H_    0.211882 0.161681 0.459093 0.156886
H25   H     H_    0.222990 0.361047 0.473995 0.166986
O1    O     O_R   0.460610 0.409240 0.550770 -0.636247
O2    O     O_R   0.358520 0.946380 0.906940 -0.619160
O3    O     O_R   0.551120 0.956920 0.905770 -0.624421
O4    O     O_R   0.449000 0.854790 0.905800 -0.624455
O5    O     O_R   0.641600 0.047410 0.086710 -0.621194
O6    O     O_R   0.539480 0.945290 0.086740 -0.629969
O7    O     O_R   0.551130 0.138990 0.087850 -0.622486
O8    O     O_R   0.449000 0.036870 0.087880 -0.619147
O9    O     O_R   0.909540 0.051950 0.461490 -0.620043
O10   O     O_R   0.909530 0.949160 0.358700 -0.626141
O11   O     O_R   0.090460 0.141840 0.551380 -0.615163
O12   O     O_R   0.358470 0.409870 0.449260 -0.614059
O13   O     O_R   0.090460 0.039050 0.448590 -0.626425
O14   O     O_R   0.090470 0.050840 0.641300 -0.622039
O15   O     O_R   0.090460 0.948050 0.538510 -0.613924
O16   O     O_R   0.909540 0.960950 0.551410 -0.631589
O17   O     O_R   0.909540 0.858160 0.448620 -0.623380
O18   O     O_R   0.551070 0.590720 0.641790 -0.624482
O19   O     O_R   0.448930 0.591350 0.540280 -0.621814
O20   O     O_R   0.641530 0.590130 0.550740 -0.621991
O21   O     O_R   0.539390 0.590760 0.449230 -0.616426
O22   O     O_R   0.551070 0.408650 0.459720 -0.617139
O23   O     O_R   0.448930 0.409280 0.358210 -0.626660
O24   O     O_R   0.460650 0.048500 0.906910 -0.617998
Zn1   Zn    Zn3+2 0.568200 0.499580 0.567780 0.949631
Zn2   Zn    Zn3+2 0.431800 0.500420 0.432220 0.951760
Zn3   Zn    Zn3+2 0.568250 0.065080 0.996810 0.952365
Zn4   Zn    Zn3+2 0.431870 0.928710 0.996840 0.948700
Zn5   Zn    Zn3+2 0.000000 0.068630 0.568630 0.945692
Zn6   Zn    Zn3+2 0.000000 0.931370 0.431370 0.950132
N1    N     N_3   0.782353 0.848957 0.560584 -0.442572
H26   H     H_    0.836724 0.873099 0.620475 0.181977
H27   H     H_    0.771518 0.899774 0.562249 0.201325

loop_
_geom_bond_atom_site_label_1
_geom_bond_atom_site_label_2
_ccdc_geom_bond_type
C8    H24   S    
O13   Zn6   S    
C28   O17   A    
C8    C26   S    
C41   C42   A    
O7    Zn3   S    
C36   H17   S    
C33   C36   S    
C9    H25   S    
O8    Zn4   S    
C7    C8    D    
C30   H12   S    
C26   O11   A    
C12   O18   A    
C21   O4    A    
C35   H16   S    
C25   O10   A    
O17   Zn6   S    
C36   C37   D    
O3    Zn3   S    
O12   Zn2   S    
C5    C6    A    
C11   C14   S    
O4    Zn4   S    
C11   C13   D    
C1    O1    A    
C40   H20   S    
C18   C19   D    
C17   N1    S    
C3    C12   S    
C33   C35   D    
O11   Zn5   S    
C16   C17   D    
O10   Zn6   S    
C9    C10   D    
C15   C34   S    
O5    Zn3   S    
C23   O20   A    
O20   Zn1   S    
C27   C30   S    
C15   H6    S    
C22   O5    A    
O18   Zn1   S    
C39   H19   S    
C20   O24   A    
C10   H2    S    
C27   O14   A    
C16   H7    S    
C39   C40   A    
O14   Zn5   S    
C6    C21   S    
C26   O13   A    
C13   C24   S    
C19   C23   S    
C34   O23   A    
C29   C30   D    
O19   Zn2   S    
C7    H23   S    
C2    C38   A    
C31   C32   D    
O22   Zn1   S    
C25   C35   S    
C40   C41   A    
N1    H27   S    
C23   O21   A    
C1    O12   A    
O15   Zn6   S    
C20   O2    A    
C11   H3    S    
C41   H21   S    
C3    C4    A    
C18   H8    S    
O23   Zn2   S    
C20   C32   S    
C7    C9    S    
O21   Zn2   S    
C33   H15   S    
C14   C15   D    
C17   C28   S    
C27   O15   A    
C1    C10   S    
C4    C5    A    
O2    Zn4   S    
C24   O8    A    
C14   H5    S    
C4    H1    S    
C12   O19   A    
C21   O3    A    
C25   O9    A    
C2    C3    A    
C34   O22   A    
C29   C31   S    
O9    Zn5   S    
O24   Zn3   S    
C22   C37   S    
C24   O7    A    
C38   C39   A    
C38   H11   S    
C2    C42   A    
O16   Zn5   S    
O1    Zn1   S    
C37   H18   S    
C19   H9    S    
C5    H22   S    
C16   C18   S    
N1    H26   S    
C6    C42   A    
O6    Zn4   S    
C13   H4    S    
C22   O6    A    
C31   H13   S    
C32   H14   S    
C28   O16   A    
C29   H10   S    
