data_mof_unit_44425.cif
_audit_creation_date              2012-12-10T17:15:55-0500
_audit_creation_method            fapswitch 2.2
_symmetry_space_group_name_H-M    P1
_symmetry_Int_Tables_number       1
_space_group_crystal_system       triclinic
_cell_length_a                    10.092408
_cell_length_b                    10.665837
_cell_length_c                    10.782676
_cell_angle_alpha                 89.970045
_cell_angle_beta                  96.001941
_cell_angle_gamma                 81.443803
_cell_volume                      1141.32787839

loop_
_atom_site_label
_atom_site_type_symbol
_atom_type_description
_atom_site_fract_x
_atom_site_fract_y
_atom_site_fract_z
_atom_type_partial_charge
C1    C     C_R   0.442954 0.512428 0.266743 0.882247
C2    C     C_2   0.489188 0.557096 0.932144 -0.092751
C3    C     C_2   0.080726 0.476673 0.495879 -0.180727
C4    C     C_R   0.502919 0.259154 0.509708 0.864558
C5    C     C_2   0.940888 0.469628 0.530958 0.550773
C6    C     C_R   0.556694 0.496777 0.733016 0.921144
C7    C     C_R   0.496623 0.739625 0.484129 0.897579
C8    C     C_R   0.757660 0.071602 0.531303 -0.130266
C9    C     C_R   0.869557 0.997509 0.489525 -0.212973
C10   C     C_R   0.851782 0.895103 0.412941 -0.157581
C11   C     C_R   0.724427 0.858173 0.389769 0.418994
C12   C     C_R   0.626647 0.040668 0.500010 0.054836
C13   C     C_R   0.614511 0.922317 0.448602 0.003893
C14   C     C_3   0.007173 0.393103 0.729678 0.035053
C15   C     C_3   0.949292 0.370327 0.851422 -0.299247
C16   C     C_3   0.046025 0.275774 0.936482 -0.833071
C17   C     C_R   0.506117 0.124007 0.514417 -0.099905
C18   C     C_R   0.382318 0.079328 0.507674 -0.198742
C19   C     C_R   0.377265 0.953512 0.486816 -0.189810
C20   C     C_R   0.494056 0.873284 0.462954 -0.090285
C21   C     C_2   0.408803 0.535104 0.134088 0.198772
C22   C     C_2   0.509587 0.547679 0.065642 -0.180311
C23   C     C_2   0.588489 0.508895 0.865740 -0.361547
Cl1   Cl    Cl    0.238852 0.544526 0.070068 -0.610618
Cl2   Cl    Cl    0.874318 0.426529 0.294572 -0.529817
Cl3   Cl    Cl    0.701522 0.751612 0.267147 -0.582492
H1    H     H_    0.289201 0.141096 0.519570 0.164120
H2    H     H_    0.688628 0.474764 0.910223 0.163635
H3    H     H_    0.104406 0.429465 0.752413 0.177271
H4    H     H_    0.026419 0.299705 0.682682 0.110189
H5    H     H_    0.929200 0.461604 0.900687 0.265812
H6    H     H_    0.853429 0.331537 0.829832 0.209205
H7    H     H_    0.063190 0.182193 0.890949 0.244537
H8    H     H_    0.002058 0.263623 0.025138 0.291164
H9    H     H_    0.144094 0.310518 0.958206 0.296122
H10   H     H_    0.121238 0.413314 0.425903 0.203828
H11   H     H_    0.117559 0.610202 0.618103 0.194037
H12   H     H_    0.775054 0.151662 0.589063 0.158086
H13   H     H_    0.968981 0.023546 0.511130 0.153321
H14   H     H_    0.936712 0.845271 0.370554 0.185993
H15   H     H_    0.282461 0.918726 0.492482 0.170421
H16   H     H_    0.389058 0.593405 0.887971 0.226987
H17   H     H_    0.613235 0.540393 0.107709 0.235568
N1    N     N_2   0.157290 0.551390 0.551110 -0.212006
N2    N     N_2   0.842740 0.448550 0.448960 0.033635
O1    O     O_R   0.568950 0.489660 0.307530 -0.567920
O2    O     O_R   0.348880 0.522640 0.340350 -0.565815
O3    O     O_R   0.610060 0.300270 0.483590 -0.611502
O4    O     O_R   0.389990 0.333260 0.516410 -0.628358
O5    O     O_R   0.651120 0.477360 0.659650 -0.575155
O6    O     O_R   0.431050 0.510340 0.692470 -0.618916
O7    O     O_R   0.610010 0.666740 0.483590 -0.573536
O8    O     O_R   0.389940 0.699730 0.516410 -0.625335
O9    O     O_3   0.915665 0.483427 0.654628 -0.632809
Zn1   Zn    Zn3+2 0.646940 0.477980 0.478090 1.079782
Zn2   Zn    Zn3+2 0.353060 0.522020 0.521910 0.969935

loop_
_geom_bond_atom_site_label_1
_geom_bond_atom_site_label_2
_ccdc_geom_bond_type
O1    Zn1   S    
C12   C17   A    
O3    Zn1   S    
C1    C21   S    
C6    O6    A    
O4    Zn2   S    
C9    C10   A    
N1    Zn2   S    
C19   C20   A    
C11   Cl3   S    
O7    Zn1   S    
C4    O4    A    
C8    C12   A    
H11   N1    S    
C17   C18   A    
C19   H15   S    
C15   H6    S    
C2    C22   S    
C6    O5    A    
C15   H5    S    
C11   C13   A    
C1    O1    A    
C8    H12   S    
C3    H10   S    
C2    H16   S    
C6    C23   S    
C21   C22   D    
C14   O9    S    
O2    Zn2   S    
C14   H4    S    
C7    O7    A    
C18   C19   A    
C16   H9    S    
C16   H7    S    
C3    N1    D    
C21   Cl1   S    
C10   C11   A    
C7    O8    A    
C14   H3    S    
C15   C16   S    
Cl2   N2    S    
C5    O9    S    
C9    H13   S    
C12   C13   A    
N2    Zn1   S    
C10   H14   S    
O6    Zn2   S    
C4    O3    A    
O8    Zn2   S    
C2    C23   D    
C14   C15   S    
C1    O2    A    
C13   C20   A    
C16   H8    S    
C23   H2    S    
C5    N2    D    
C7    C20   S    
C22   H17   S    
C18   H1    S    
O5    Zn1   S    
C8    C9    A    
C3    C5    S    
C4    C17   S    
