data_mof_unit_61612.cif
_audit_creation_date              2013-03-05T16:14:34-0500
_audit_creation_method            fapswitch 2.2
_symmetry_space_group_name_H-M    P1
_symmetry_Int_Tables_number       1
_space_group_crystal_system       triclinic
_cell_length_a                    44.388442
_cell_length_b                    39.001166
_cell_length_c                    21.744767
_cell_angle_alpha                 90.000633
_cell_angle_beta                  61.368872
_cell_angle_gamma                 89.960013
_cell_volume                      33041.4792083

loop_
_atom_site_label
_atom_site_type_symbol
_atom_site_description
_atom_site_fract_x
_atom_site_fract_y
_atom_site_fract_z
_atom_type_partial_charge
O1    O     O_R   0.049910 0.528880 0.450120 -0.540532
O2    O     O_R   0.950090 0.528880 0.549880 -0.541612
O3    O     O_R   0.549910 0.028880 0.450120 -0.538977
O4    O     O_R   0.450090 0.028880 0.549880 -0.541015
O5    O     O_R   0.049890 0.471110 0.450120 -0.599459
O6    O     O_R   0.950110 0.471110 0.549880 -0.598073
O7    O     O_R   0.549890 0.971110 0.450120 -0.600245
O8    O     O_R   0.450110 0.971110 0.549880 -0.598623
C1    C     C_R   0.066275 0.499969 0.432689 0.863208
C2    C     C_R   0.933712 0.499993 0.567691 0.865083
C3    C     C_R   0.566288 0.999967 0.432867 0.860940
C4    C     C_R   0.433712 0.999997 0.567562 0.863678
O9    O     O_R   0.000000 0.528880 0.590170 -0.569670
O10   O     O_R   0.000000 0.528880 0.409830 -0.567848
O11   O     O_R   0.500000 0.028880 0.590170 -0.568149
O12   O     O_R   0.500000 0.028880 0.409830 -0.566479
O13   O     O_R   0.999990 0.471110 0.590170 -0.591170
O14   O     O_R   0.000010 0.471110 0.409830 -0.590936
O15   O     O_R   0.499990 0.971110 0.590170 -0.592364
O16   O     O_R   0.500010 0.971110 0.409830 -0.591537
C5    C     C_R   0.002463 0.500081 0.616601 0.827767
C6    C     C_R   0.997490 0.500097 0.383443 0.828677
C7    C     C_R   0.502508 0.000094 0.616565 0.827046
C8    C     C_R   0.497449 0.000109 0.383476 0.828464
Cu1   Cu    Cu3+1 1.000000 0.534200 0.500000 1.124683
Cu2   Cu    Cu3+1 0.500000 0.034200 0.500000 1.129399
Cu3   Cu    Cu3+1 0.000000 0.465790 0.500000 1.003324
Cu4   Cu    Cu3+1 0.500000 0.965790 0.500000 1.001742
H1    H     H_    0.973400 0.454997 0.719661 0.162161
H2    H     H_    0.025876 0.454556 0.281033 0.163336
H3    H     H_    0.474321 0.954435 0.718741 0.162807
H4    H     H_    0.525169 0.954144 0.281760 0.164225
C9    C     C_R   0.046995 0.549724 0.647004 0.265154
C10   C     C_R   0.953682 0.550539 0.352207 0.266782
C11   C     C_R   0.546120 0.050595 0.648130 0.264840
C12   C     C_R   0.454362 0.051219 0.351282 0.266553
C13   C     C_R   0.058058 0.578965 0.669227 0.213783
C14   C     C_R   0.942909 0.579839 0.329530 0.211748
C15   C     C_R   0.556662 0.079976 0.671066 0.214288
C16   C     C_R   0.443966 0.080599 0.328018 0.212507
C17   C     C_R   0.047393 0.584063 0.740676 -0.117641
C18   C     C_R   0.953571 0.584669 0.258031 -0.118081
C19   C     C_R   0.545957 0.084744 0.742650 -0.115533
C20   C     C_R   0.454610 0.085128 0.256418 -0.116040
C21   C     C_R   0.027954 0.558644 0.788605 -0.192608
C22   C     C_R   0.972702 0.558945 0.210536 -0.193073
C23   C     C_R   0.526939 0.058947 0.789931 -0.192824
C24   C     C_R   0.473445 0.059122 0.209466 -0.193138
H5    H     H_    0.021195 0.562054 0.843112 0.183369
H6    H     H_    0.979464 0.562184 0.155993 0.183173
H7    H     H_    0.520117 0.062141 0.844515 0.182539
H8    H     H_    0.480250 0.062174 0.154865 0.182582
C25   C     C_R   0.016820 0.529320 0.767358 0.018742
C26   C     C_R   0.983484 0.529511 0.232252 0.018600
C27   C     C_R   0.516315 0.029505 0.767994 0.018547
C28   C     C_R   0.483866 0.029632 0.231739 0.018421
C29   C     C_R   0.022922 0.526633 0.697460 -0.045284
C30   C     C_R   0.977361 0.526973 0.302196 -0.045840
C31   C     C_R   0.522478 0.027003 0.698029 -0.045055
C32   C     C_R   0.477705 0.027260 0.301732 -0.045654
C33   C     C_R   0.005300 0.500348 0.681249 -0.048994
C34   C     C_R   0.994618 0.500412 0.318812 -0.050904
C35   C     C_R   0.505357 0.000398 0.681232 -0.049789
C36   C     C_R   0.494575 0.000459 0.318821 -0.051731
C37   C     C_R   0.986701 0.475197 0.731183 -0.184111
C38   C     C_R   0.012858 0.474961 0.269238 -0.183988
C39   C     C_R   0.487237 0.974875 0.730658 -0.183478
C40   C     C_R   0.512448 0.974725 0.269650 -0.182910
H9    H     H_    0.971006 0.455470 0.833666 0.151076
H10   H     H_    0.028320 0.454985 0.167017 0.150833
H11   H     H_    0.471892 0.954807 0.832751 0.150329
H12   H     H_    0.527650 0.954478 0.167736 0.150742
C41   C     C_R   0.984486 0.475885 0.796825 -0.180455
C42   C     C_R   0.015108 0.475604 0.203573 -0.181350
C43   C     C_R   0.484993 0.975480 0.796321 -0.181099
C44   C     C_R   0.514724 0.975294 0.203966 -0.181288
C45   C     C_R   0.999508 0.502575 0.815003 -0.039725
C46   C     C_R   0.000473 0.502511 0.184993 -0.039200
C47   C     C_R   0.499491 0.002429 0.815057 -0.038383
C48   C     C_R   0.500486 0.002383 0.184946 -0.038281
C49   C     C_R   0.378906 0.471204 0.087550 -0.105273
C50   C     C_R   0.620054 0.465825 0.874272 -0.093962
C51   C     C_R   0.878930 0.969168 0.093682 -0.082675
C52   C     C_R   0.120057 0.966183 0.870767 -0.090696
C53   C     C_R   0.342499 0.469099 0.125700 0.004886
C54   C     C_R   0.656471 0.464110 0.835585 0.006175
C55   C     C_R   0.842461 0.967906 0.130400 0.020941
C56   C     C_R   0.156475 0.964554 0.832068 0.005483
C57   C     C_R   0.324003 0.494625 0.175837 -0.018133
C58   C     C_R   0.675670 0.494869 0.817529 -0.020149
C59   C     C_R   0.824126 0.993769 0.179803 -0.021131
C60   C     C_R   0.175666 0.995234 0.817164 -0.020792
C61   C     C_R   0.341274 0.520845 0.189705 -0.126384
C62   C     C_R   0.658993 0.526456 0.839488 -0.110207
C63   C     C_R   0.841517 0.021089 0.190074 -0.124010
C64   C     C_R   0.159006 0.026598 0.842259 -0.108999
H13   H     H_    0.326577 0.540206 0.228326 0.195044
H14   H     H_    0.674151 0.549735 0.826300 0.196776
H15   H     H_    0.826913 0.041039 0.227203 0.196797
H16   H     H_    0.174173 0.049787 0.831322 0.197082
C65   C     C_R   0.377029 0.522921 0.153872 0.337812
C66   C     C_R   0.623340 0.528529 0.879961 0.330400
C67   C     C_R   0.877165 0.023983 0.151018 0.332849
C68   C     C_R   0.123353 0.028505 0.882935 0.329483
C69   C     C_R   0.396093 0.497984 0.102624 -0.231648
C70   C     C_R   0.603715 0.498107 0.897347 -0.227314
C71   C     C_R   0.896123 0.997913 0.102620 -0.233818
C72   C     C_R   0.103718 0.998185 0.897234 -0.227054
C73   C     C_R   0.268303 0.482805 0.286263 0.347027
C74   C     C_R   0.732222 0.510287 0.711848 0.337372
C75   C     C_R   0.768123 0.984154 0.290967 0.339537
C76   C     C_R   0.232162 0.011645 0.712439 0.337580
C77   C     C_R   0.232308 0.485067 0.322279 -0.184658
C78   C     C_R   0.768177 0.512036 0.680584 -0.136297
C79   C     C_R   0.732120 0.986520 0.326278 -0.182570
C80   C     C_R   0.268123 0.013240 0.681144 -0.135499
H17   H     H_    0.218164 0.476338 0.376045 0.191232
H18   H     H_    0.782749 0.523593 0.629309 0.193311
H19   H     H_    0.717781 0.979101 0.380860 0.191845
H20   H     H_    0.282670 0.025484 0.630582 0.193459
C81   C     C_R   0.214272 0.498402 0.289512 0.071830
C82   C     C_R   0.785651 0.498321 0.714209 0.074101
C83   C     C_R   0.714323 0.998243 0.291742 0.071090
C84   C     C_R   0.285632 0.998543 0.713821 0.073887
C85   C     C_R   0.232244 0.509367 0.219811 -0.085850
C86   C     C_R   0.767136 0.482512 0.779559 -0.130278
C87   C     C_R   0.732537 0.007457 0.220994 -0.087849
C88   C     C_R   0.267126 0.981820 0.778165 -0.131446
H21   H     H_    0.218597 0.519426 0.193676 0.157593
H22   H     H_    0.780334 0.471785 0.806059 0.158522
H23   H     H_    0.719068 0.016274 0.193550 0.158079
H24   H     H_    0.280332 0.970314 0.803938 0.158121
C89   C     C_R   0.267918 0.507489 0.183458 -0.213360
C90   C     C_R   0.731446 0.481134 0.811869 -0.207172
C91   C     C_R   0.768219 0.005359 0.185244 -0.199250
C92   C     C_R   0.231437 0.980493 0.810438 -0.207013
H25   H     H_    0.281447 0.516482 0.129795 0.172408
H26   H     H_    0.717526 0.469642 0.863366 0.175681
H27   H     H_    0.781930 0.012937 0.130672 0.175586
H28   H     H_    0.217526 0.968226 0.861147 0.175003
C93   C     C_R   0.286181 0.494321 0.215906 -0.048768
C94   C     C_R   0.713665 0.494867 0.778775 -0.048050
C95   C     C_R   0.786261 0.993864 0.219480 -0.056269
C96   C     C_R   0.213642 0.995271 0.778350 -0.048696
C97   C     C_R   0.158114 0.469429 0.353060 -0.195942
C98   C     C_R   0.841853 0.468984 0.663435 -0.196859
C99   C     C_R   0.658080 0.969504 0.355862 -0.195970
C100  C     C_R   0.341813 0.969087 0.662628 -0.196695
H29   H     H_    0.171592 0.445361 0.346074 0.166717
H30   H     H_    0.828410 0.444676 0.677286 0.165205
H31   H     H_    0.671505 0.945529 0.350299 0.166199
H32   H     H_    0.328342 0.944791 0.676097 0.164691
C101  C     C_R   0.122382 0.469323 0.386395 -0.137901
C102  C     C_R   0.877609 0.469002 0.627123 -0.159291
C103  C     C_R   0.622349 0.969412 0.388655 -0.136646
C104  C     C_R   0.377569 0.969055 0.626405 -0.159539
H33   H     H_    0.109020 0.445220 0.405484 0.172207
H34   H     H_    0.890999 0.444662 0.614373 0.171705
H35   H     H_    0.608930 0.945420 0.408742 0.171814
H36   H     H_    0.390926 0.944696 0.613376 0.171573
C105  C     C_R   0.104182 0.499948 0.395306 -0.070694
C106  C     C_R   0.895776 0.500003 0.607037 -0.073083
C107  C     C_R   0.604214 0.999922 0.395900 -0.070304
C108  C     C_R   0.395781 0.000037 0.606736 -0.073454
C109  C     C_R   0.122418 0.530727 0.370089 -0.161864
C110  C     C_R   0.877449 0.531045 0.624877 -0.151248
C111  C     C_R   0.622526 0.030571 0.369509 -0.163831
C112  C     C_R   0.377505 0.031106 0.624855 -0.150871
H37   H     H_    0.108586 0.554571 0.377407 0.214030
H38   H     H_    0.891190 0.555154 0.611160 0.219279
H39   H     H_    0.608731 0.054330 0.375587 0.212814
H40   H     H_    0.391285 0.055197 0.611358 0.219074
C113  C     C_R   0.158437 0.531293 0.337019 0.346815
C114  C     C_R   0.841410 0.531440 0.661520 0.335040
C115  C     C_R   0.658559 0.031110 0.336712 0.347790
C116  C     C_R   0.341471 0.031551 0.661585 0.334278
C117  C     C_R   0.176459 0.500085 0.327815 -0.008554
C118  C     C_R   0.823443 0.499892 0.680230 -0.006824
C119  C     C_R   0.676502 0.000015 0.329349 -0.008722
C120  C     C_R   0.323443 0.000030 0.679852 -0.005747
O17   O     O_R   0.971110 0.450080 0.028870 -0.578670
O18   O     O_R   0.028890 0.450080 0.971130 -0.578025
O19   O     O_R   0.471110 0.950080 0.028870 -0.578863
O20   O     O_R   0.528890 0.950080 0.971130 -0.578041
C121  C     C_R   0.000013 0.433748 0.999991 0.797433
C122  C     C_R   0.500014 0.933749 0.000012 0.795906
O21   O     O_R   0.971100 0.499980 0.938700 -0.581406
O22   O     O_R   0.028900 0.499980 0.061300 -0.581131
O23   O     O_R   0.471100 0.999980 0.938700 -0.581867
O24   O     O_R   0.528900 0.999980 0.061300 -0.581382
O25   O     O_R   0.028870 0.499990 0.880960 -0.566548
O26   O     O_R   0.971130 0.499990 0.119040 -0.567139
O27   O     O_R   0.528870 0.999990 0.880960 -0.565898
O28   O     O_R   0.471130 0.999990 0.119040 -0.566604
C123  C     C_R   0.999752 0.500382 0.881419 0.773863
C124  C     C_R   0.000245 0.500314 0.118577 0.773711
C125  C     C_R   0.499749 0.000232 0.881432 0.772451
C126  C     C_R   0.500248 0.000172 0.118565 0.772374
Cu5   Cu    Cu3+1 0.965790 0.499980 0.034190 1.012827
Cu6   Cu    Cu3+1 0.034210 0.499980 0.965810 1.014331
Cu7   Cu    Cu3+1 0.465790 0.999980 0.034190 1.015082
Cu8   Cu    Cu3+1 0.534210 0.999980 0.965810 1.017186
O29   O     O_R   0.971110 0.549890 0.028880 -0.581471
O30   O     O_R   0.028890 0.549890 0.971120 -0.581564
O31   O     O_R   0.471110 0.049890 0.028880 -0.578198
O32   O     O_R   0.528890 0.049890 0.971120 -0.578292
C127  C     C_R   0.999990 0.566206 0.999948 0.756002
C128  C     C_R   0.499989 0.066178 0.999968 0.751174
O33   O     O_R   0.499990 0.450010 0.052090 -0.588535
O34   O     O_R   0.500010 0.450010 0.947910 -0.583766
O35   O     O_R   0.999990 0.950010 0.052090 -0.586693
O36   O     O_R   0.000010 0.950010 0.947910 -0.592028
C129  C     C_R   0.499911 0.433764 0.000073 0.774718
C130  C     C_R   0.999894 0.933776 0.000093 0.779516
O37   O     O_R   0.450090 0.499920 0.102070 -0.539827
O38   O     O_R   0.549910 0.499920 0.897930 -0.563477
O39   O     O_R   0.950090 0.999920 0.102070 -0.540100
O40   O     O_R   0.049910 0.999920 0.897930 -0.567705
O41   O     O_R   0.450080 0.499990 0.997700 -0.587420
O42   O     O_R   0.549920 0.499990 0.002300 -0.560945
O43   O     O_R   0.950080 0.999990 0.997700 -0.595259
O44   O     O_R   0.049920 0.999990 0.002300 -0.553689
C131  C     C_R   0.433912 0.499548 0.065703 0.825870
C132  C     C_R   0.566028 0.500070 0.934332 0.833681
C133  C     C_R   0.933926 0.999374 0.065688 0.832814
C134  C     C_R   0.066030 0.000136 0.934319 0.829419
Cu9   Cu    Cu3+1 0.500000 0.499920 0.061800 1.079375
Cu10  Cu    Cu3+1 0.500000 0.499920 0.938200 1.063150
Cu11  Cu    Cu3+1 1.000000 0.999920 0.061800 1.092580
Cu12  Cu    Cu3+1 1.000000 0.999920 0.938200 1.050315
O45   O     O_R   0.500010 0.549830 0.052290 -0.549481
O46   O     O_R   0.499990 0.549830 0.947710 -0.584978
O47   O     O_R   0.000010 0.049830 0.052290 -0.548206
O48   O     O_R   0.999990 0.049830 0.947710 -0.581400
C135  C     C_R   0.500034 0.566062 0.999960 0.891304
C136  C     C_R   0.000067 0.066060 0.999933 0.892711
C137  C     C_R   0.512682 0.621814 0.038578 -0.183249
C138  C     C_R   0.488355 0.621974 0.960135 -0.105344
C139  C     C_R   0.012357 0.121861 0.039016 -0.063541
C140  C     C_R   0.987810 0.121914 0.960912 -0.104927
H41   H     H_    0.522334 0.607712 0.068485 0.172454
H42   H     H_    0.478367 0.607919 0.930832 0.197896
H43   H     H_    0.022191 0.107722 0.068514 0.214547
H44   H     H_    0.977903 0.107813 0.931516 0.200573
C141  C     C_R   0.514139 0.657687 0.037265 0.014485
C142  C     C_R   0.488111 0.657952 0.959771 -0.028105
C143  C     C_R   0.013082 0.157828 0.038750 -0.000164
C144  C     C_R   0.987149 0.157885 0.961153 0.011459
C145  C     C_R   0.501314 0.676113 0.998254 -0.025178
C146  C     C_R   0.000132 0.176083 0.999944 -0.080282
C147  C     C_R   0.500288 0.603838 0.999678 -0.045919
C148  C     C_R   0.000091 0.103834 0.999930 -0.101038
C149  C     C_R   0.478631 0.731823 0.059644 -0.094239
C150  C     C_R   0.522987 0.732202 0.937907 -0.128155
C151  C     C_R   0.978257 0.232027 0.061062 -0.161925
C152  C     C_R   0.022035 0.231999 0.938869 -0.158210
H45   H     H_    0.461506 0.717993 0.106779 0.146794
H46   H     H_    0.540345 0.718666 0.890501 0.157738
H47   H     H_    0.961228 0.218360 0.108512 0.161996
H48   H     H_    0.039065 0.218310 0.891412 0.162514
C153  C     C_R   0.978461 0.267798 0.061232 -0.167035
C154  C     C_R   0.021812 0.267771 0.938709 -0.167082
C155  C     C_R   0.478561 0.767599 0.060180 -0.158242
C156  C     C_R   0.522490 0.767968 0.938102 -0.173850
H49   H     H_    0.961635 0.281486 0.108849 0.155975
H50   H     H_    0.038626 0.281438 0.891092 0.156722
H51   H     H_    0.461425 0.781134 0.107771 0.152135
H52   H     H_    0.539435 0.781788 0.890805 0.157122
C157  C     C_R   0.000129 0.285823 0.999970 0.027882
C158  C     C_R   0.500403 0.785824 0.999337 0.020957
C159  C     C_R   0.500986 0.713982 0.998617 0.109234
C160  C     C_R   0.000147 0.213975 0.999961 0.028356
C161  C     C_R   0.029093 0.341948 0.993717 0.012147
C162  C     C_R   0.971082 0.341940 0.006213 0.013909
C163  C     C_R   0.529061 0.841989 0.994270 0.008714
C164  C     C_R   0.471296 0.841911 0.005501 0.013809
C165  C     C_R   0.028806 0.377921 0.992779 -0.142303
C166  C     C_R   0.971312 0.377914 0.007163 -0.143028
C167  C     C_R   0.528727 0.877960 0.993414 -0.142264
C168  C     C_R   0.471459 0.877888 0.006603 -0.142570
H53   H     H_    0.050815 0.392050 0.988117 0.196219
H54   H     H_    0.949280 0.392036 0.011831 0.195957
H55   H     H_    0.550621 0.892117 0.989273 0.196105
H56   H     H_    0.449499 0.891992 0.010847 0.195576
C169  C     C_R   0.000044 0.395971 0.999976 -0.127598
C170  C     C_R   0.500060 0.895975 0.000023 -0.126690
C171  C     C_R   0.000102 0.323717 0.999965 -0.079767
C172  C     C_R   0.500234 0.823720 0.999765 -0.076508
C173  C     C_R   0.486999 0.378052 0.961989 -0.203514
C174  C     C_R   0.512860 0.377924 0.037770 -0.208883
C175  C     C_R   0.011316 0.878068 0.937076 -0.190004
C176  C     C_R   0.988660 0.877993 0.062765 -0.192001
H57   H     H_    0.477041 0.392070 0.932580 0.205204
H58   H     H_    0.522820 0.391844 0.067267 0.200149
H59   H     H_    0.020739 0.892019 0.888229 0.211560
H60   H     H_    0.979245 0.891885 0.111693 0.207004
C177  C     C_R   0.486900 0.342133 0.961064 0.319602
C178  C     C_R   0.513002 0.342000 0.038356 0.322465
C179  C     C_R   0.012252 0.842188 0.935836 0.318341
C180  C     C_R   0.987821 0.842110 0.063755 0.316292
C181  C     C_R   0.499958 0.323877 0.999631 -0.172236
C182  C     C_R   0.000046 0.823910 0.999737 -0.165924
C183  C     C_R   0.499908 0.396036 0.999984 -0.145195
C184  C     C_R   0.999943 0.896073 0.999991 -0.156067
C185  C     C_R   0.530505 0.268157 0.959228 -0.045891
C186  C     C_R   0.469394 0.268201 0.039762 -0.050032
C187  C     C_R   0.019580 0.768025 0.023900 -0.049899
C188  C     C_R   0.980540 0.768099 0.975307 -0.046852
H61   H     H_    0.554224 0.281862 0.927682 0.156450
H62   H     H_    0.445677 0.281942 0.071342 0.152903
H63   H     H_    0.034765 0.781653 0.042855 0.154204
H64   H     H_    0.965358 0.781786 0.956390 0.157404
C189  C     C_R   0.019432 0.732281 0.024241 -0.139282
C190  C     C_R   0.980655 0.732351 0.974927 -0.140394
C191  C     C_R   0.530487 0.232386 0.958817 -0.138455
C192  C     C_R   0.469413 0.232431 0.040156 -0.135944
H65   H     H_    0.034178 0.718932 0.044581 0.145885
H66   H     H_    0.965893 0.719055 0.954591 0.146600
H67   H     H_    0.554296 0.219092 0.925977 0.149195
H68   H     H_    0.445607 0.219174 0.073011 0.149175
C193  C     C_R   0.000035 0.714055 0.999578 0.080267
C194  C     C_R   0.499953 0.214090 0.999501 0.076385
C195  C     C_R   0.499951 0.286147 0.999517 0.178713
C196  C     C_R   0.000063 0.786095 0.999626 0.170765
C197  C     C_R   0.030300 0.657823 0.982567 -0.101036
C198  C     C_R   0.969727 0.657875 0.016645 -0.100639
C199  C     C_R   0.471934 0.157736 0.002968 -0.100229
C200  C     C_R   0.527999 0.157755 0.996337 -0.099724
H69   H     H_    0.054174 0.671126 0.968055 0.140438
H70   H     H_    0.945865 0.671225 0.031079 0.141147
H71   H     H_    0.450224 0.171005 0.004202 0.139234
H72   H     H_    0.549704 0.171041 0.995018 0.138722
C201  C     C_R   0.030249 0.622079 0.982952 -0.082641
C202  C     C_R   0.969746 0.622125 0.016488 -0.084186
C203  C     C_R   0.471842 0.121968 0.003616 -0.089140
C204  C     C_R   0.528100 0.121988 0.995953 -0.088123
H73   H     H_    0.053954 0.608675 0.969770 0.159540
H74   H     H_    0.946035 0.608752 0.029753 0.159423
H75   H     H_    0.449984 0.108471 0.006029 0.149827
H76   H     H_    0.549964 0.108510 0.993634 0.149594
C205  C     C_R   0.999988 0.603926 0.999809 -0.013681
C206  C     C_R   0.499972 0.103847 0.999860 0.010845
C207  C     C_R   0.000019 0.676107 0.999579 0.100045
C208  C     C_R   0.499964 0.176061 0.999588 0.106997
N1    N     N_R   0.393418 0.551256 0.168420 0.134245
O49   O     O_R   0.380035 0.564028 0.231343 -0.302283
O50   O     O_R   0.418698 0.567437 0.117528 -0.374460
N2    N     N_R   0.607564 0.561761 0.901773 0.118998
O51   O     O_R   0.621841 0.588600 0.863131 -0.303524
O52   O     O_R   0.581376 0.566138 0.963652 -0.378219
N3    N     N_R   0.893615 0.053788 0.160541 0.134863
O53   O     O_R   0.880569 0.068907 0.221277 -0.299261
O54   O     O_R   0.918807 0.068573 0.106959 -0.374252
N4    N     N_R   0.107594 0.061529 0.907699 0.119030
O55   O     O_R   0.121847 0.088997 0.871367 -0.304806
O56   O     O_R   0.081459 0.064942 0.969974 -0.364614
N5    N     N_R   0.285943 0.468913 0.321727 0.136174
O57   O     O_R   0.315143 0.453053 0.287161 -0.314813
O58   O     O_R   0.271363 0.469386 0.389835 -0.298323
N6    N     N_R   0.715234 0.523767 0.674807 0.131537
O59   O     O_R   0.687249 0.509696 0.681484 -0.315819
O60   O     O_R   0.729615 0.547929 0.628514 -0.282197
N7    N     N_R   0.785510 0.971869 0.328201 0.136140
O61   O     O_R   0.814664 0.955731 0.295620 -0.315103
O62   O     O_R   0.770729 0.974064 0.396193 -0.295630
N8    N     N_R   0.215132 0.026283 0.676457 0.132085
O63   O     O_R   0.186997 0.012827 0.682632 -0.315140
O64   O     O_R   0.229577 0.050998 0.631579 -0.281737
N9    N     N_R   0.176024 0.563652 0.315262 0.131548
O65   O     O_R   0.203560 0.569467 0.320546 -0.289985
O66   O     O_R   0.162313 0.588871 0.298109 -0.310259
N10   N     N_R   0.823722 0.563865 0.680375 0.127160
O67   O     O_R   0.837638 0.590891 0.642086 -0.261694
O68   O     O_R   0.795660 0.567502 0.739628 -0.315333
N11   N     N_R   0.676231 0.063344 0.313231 0.132243
O69   O     O_R   0.703936 0.069516 0.317659 -0.290410
O70   O     O_R   0.662515 0.088155 0.295031 -0.308292
N12   N     N_R   0.323850 0.063993 0.681111 0.126506
O71   O     O_R   0.337693 0.091105 0.643066 -0.261958
O72   O     O_R   0.296006 0.067542 0.740792 -0.313875
N13   N     N_R   0.064398 0.540951 0.574090 0.130577
O73   O     O_R   0.078658 0.510902 0.555221 -0.382196
O74   O     O_R   0.071638 0.564522 0.526711 -0.282304
N14   N     N_R   0.936497 0.542430 0.425387 0.131126
O75   O     O_R   0.921331 0.512886 0.445771 -0.384117
O76   O     O_R   0.930525 0.566294 0.471653 -0.284725
N15   N     N_R   0.563687 0.042242 0.575001 0.131973
O77   O     O_R   0.578586 0.012510 0.555386 -0.382680
O78   O     O_R   0.570226 0.065938 0.528154 -0.279033
N16   N     N_R   0.437063 0.043449 0.424630 0.132208
O79   O     O_R   0.421434 0.014156 0.445613 -0.384314
O80   O     O_R   0.431627 0.067397 0.470461 -0.282385
C209  C     C_2   0.530034 0.674297 0.076341 0.412127
H77   H     H_    0.533968 0.659469 0.114163 0.084778
O81   O     O_2   0.539986 0.703956 0.065606 -0.511127
C210  C     C_2   0.473117 0.676102 0.920496 0.392958
H78   H     H_    0.469782 0.703694 0.924061 0.077363
O82   O     O_2   0.464013 0.660345 0.883689 -0.501564
C211  C     C_2   0.028296 0.175870 0.077676 0.416256
H79   H     H_    0.031976 0.203414 0.073549 0.087185
O83   O     O_2   0.037204 0.160081 0.114777 -0.493687
C212  C     C_2   0.971966 0.175998 0.922217 0.400746
H80   H     H_    0.968288 0.203547 0.926408 0.089367
O84   O     O_2   0.963089 0.160262 0.885023 -0.505590
C213  C     C_2   0.059460 0.323872 0.990059 0.382694
H81   H     H_    0.059245 0.296328 0.996904 0.096720
O85   O     O_2   0.085234 0.339632 0.979730 -0.512855
C214  C     C_2   0.940745 0.323854 0.009860 0.379316
H82   H     H_    0.941006 0.296308 0.002995 0.095753
O86   O     O_2   0.914945 0.339609 0.020202 -0.515761
C215  C     C_2   0.559299 0.823951 0.991306 0.391257
H83   H     H_    0.559062 0.796412 0.998243 0.122344
O87   O     O_2   0.584980 0.839739 0.981474 -0.511321
C216  C     C_2   0.441136 0.823794 0.008396 0.376917
H84   H     H_    0.441484 0.796255 0.001365 0.090011
O88   O     O_2   0.415388 0.839515 0.018290 -0.516040
N17   N     N_R   0.473653 0.324809 0.920500 0.138740
O89   O     O_R   0.487758 0.296667 0.886795 -0.317370
O90   O     O_R   0.449817 0.339170 0.910694 -0.290405
N18   N     N_R   0.526264 0.324533 0.078763 0.137983
O91   O     O_R   0.512154 0.296378 0.112297 -0.320282
O92   O     O_R   0.550116 0.338776 0.088626 -0.305875
N19   N     N_R   0.026496 0.824879 0.869259 0.136886
O93   O     O_R   0.046384 0.798346 0.856866 -0.310449
O94   O     O_R   0.023394 0.838255 0.817742 -0.298600
N20   N     N_R   0.973661 0.824716 0.130208 0.133873
O95   O     O_R   0.953776 0.798218 0.142522 -0.309861
O96   O     O_R   0.976842 0.837981 0.181717 -0.304713
N21   N     N_R   0.081913 0.602391 0.618602 0.141655
O97   O     O_R   0.114073 0.593936 0.581652 -0.256280
O98   O     O_R   0.071605 0.632416 0.610281 -0.302444
N22   N     N_R   0.919400 0.603664 0.379812 0.142207
O99   O     O_R   0.887332 0.595330 0.418464 -0.251871
O100  O     O_R   0.929995 0.633798 0.386640 -0.300666
N23   N     N_R   0.580090 0.103871 0.620984 0.141179
O101  O     O_R   0.612337 0.095883 0.583377 -0.256571
O102  O     O_R   0.569291 0.133828 0.613692 -0.303267
N24   N     N_R   0.420781 0.104783 0.377850 0.141753
O103  O     O_R   0.388651 0.096812 0.416985 -0.252407
O104  O     O_R   0.431748 0.134858 0.383886 -0.301719
C217  C     C_2   0.058421 0.614844 0.764933 0.462147
H85   H     H_    0.075574 0.633516 0.727724 0.139342
O105  O     O_2   0.048369 0.619885 0.827143 -0.559823
C218  C     C_2   0.942846 0.615501 0.233282 0.462468
H86   H     H_    0.925658 0.634274 0.270211 0.140101
O106  O     O_2   0.953196 0.620476 0.170956 -0.559929
C219  C     C_2   0.556556 0.115548 0.767754 0.460873
H87   H     H_    0.573064 0.134767 0.731103 0.136361
O107  O     O_2   0.546926 0.119956 0.830023 -0.558836
C220  C     C_2   0.444122 0.115904 0.230973 0.460932
H88   H     H_    0.427633 0.135229 0.267408 0.136927
O108  O     O_2   0.453813 0.120164 0.168649 -0.559101
C221  C     C_2   0.399391 0.445788 0.031942 0.533469
H89   H     H_    0.423725 0.436590 0.025966 0.029782
O109  O     O_2   0.389985 0.436013 0.990536 -0.472908
C222  C     C_2   0.598434 0.434545 0.889039 0.512712
H90   H     H_    0.574935 0.432107 0.938388 0.020902
O110  O     O_2   0.605785 0.412025 0.845128 -0.473541
C223  C     C_2   0.899407 0.939517 0.050687 0.464856
H91   H     H_    0.923196 0.943534 0.002689 0.076450
O111  O     O_2   0.890559 0.910104 0.070184 -0.473608
C224  C     C_2   0.098446 0.935168 0.882118 0.505684
H92   H     H_    0.074889 0.931887 0.931054 0.019090
O112  O     O_2   0.105866 0.913882 0.835884 -0.467202
C225  C     C_2   0.323342 0.439574 0.117777 0.502605
H93   H     H_    0.297669 0.443179 0.124727 0.053387
O113  O     O_2   0.335256 0.410616 0.106991 -0.466937
C226  C     C_2   0.675034 0.430785 0.814223 0.468993
H94   H     H_    0.698838 0.428831 0.765253 0.078539
O114  O     O_2   0.664923 0.405730 0.852457 -0.484361
C227  C     C_2   0.822938 0.940383 0.117403 0.483789
H95   H     H_    0.798157 0.932228 0.159078 0.073447
O115  O     O_2   0.833520 0.927652 0.059383 -0.486060
C228  C     C_2   0.175053 0.931378 0.807509 0.472579
H96   H     H_    0.198947 0.930229 0.758567 0.079620
O116  O     O_2   0.164843 0.905466 0.843115 -0.487319

loop_
_geom_bond_atom_site_label_1
_geom_bond_atom_site_label_2
_geom_bond_distance
_ccdc_geom_bond_type
C190  H66   1.082601 S    
O1    Cu1   1.955536 S    
C223  H91   1.083037 S    
C89   H25   1.083549 S    
N5    O57   1.301083 A    
C27   C31   1.414239 A    
C215  O87   1.221387 D    
C68   C72   1.412932 A    
C200  H72   1.082467 S    
C155  H51   1.083140 S    
C186  H62   1.083246 S    
C13   C17   1.404448 A    
N18   O91   1.301183 A    
C210  O82   1.221395 D    
C102  H34   1.082846 S    
C152  C154  1.395186 A    
C63   H15   1.084056 S    
C100  H32   1.083577 S    
C11   N15   1.433220 S    
C140  H44   1.083593 S    
N10   O67   1.301491 A    
C18   C218  1.485606 S    
C98   H30   1.083592 S    
C155  C158  1.402603 A    
C164  C168  1.403409 A    
O44   Cu11  1.958714 S    
C181  C195  1.471524 S    
C15   N23   1.432468 S    
C197  H69   1.082638 S    
C167  H55   1.083638 S    
O4    C4    1.295591 A    
C99   C103  1.392892 A    
C212  O84   1.221385 D    
C197  C207  1.405049 A    
C92   H28   1.083493 S    
N21   O98   1.300772 A    
C192  C194  1.407487 A    
Cu5   Cu6   2.665882 S    
C2    C106  1.478801 S    
C216  O88   1.221390 D    
O48   C136  1.301512 A    
C175  C184  1.398970 A    
C9    N13   1.432997 S    
C200  C208  1.406327 A    
C56   C228  1.488585 S    
C35   C39   1.401999 A    
C109  H37   1.082887 S    
C110  C114  1.404516 A    
C79   C83   1.401834 A    
C55   C59   1.412384 A    
O19   Cu7   1.957004 S    
C167  C170  1.398933 A    
C108  C112  1.404976 A    
C54   C58   1.414313 A    
C61   C65   1.395576 A    
N16   O80   1.301148 A    
O16   Cu4   1.971466 S    
O28   Cu7   1.969642 S    
C73   N5    1.442017 S    
O33   C129  1.297932 A    
O7    Cu4   1.955101 S    
C8    C36   1.471374 S    
O42   Cu9   1.958714 S    
C101  C105  1.401940 A    
O18   C121  1.293401 A    
O15   C7    1.296674 A    
O38   C132  1.296627 A    
Cu11  Cu12  2.687653 S    
Cu9   Cu10  2.687653 S    
C98   C102  1.393362 A    
C104  H36   1.082851 S    
C137  C141  1.400295 A    
N22   O99   1.300912 A    
C214  O86   1.221391 D    
C138  H42   1.083591 S    
C64   C68   1.396702 A    
C49   C221  1.488803 S    
N13   O73   1.300996 A    
C161  C171  1.419083 A    
N15   O77   1.300953 A    
C143  C146  1.419022 A    
O23   C125  1.284673 A    
C211  O83   1.221391 D    
C185  C195  1.399714 A    
O34   Cu10  1.957995 S    
O3    Cu2   1.955536 S    
C52   C56   1.421807 A    
N14   O76   1.301043 A    
C15   C19   1.405112 A    
N11   O69   1.301335 A    
C29   C33   1.432610 A    
C90   H26   1.083475 S    
C209  H77   1.085762 S    
C31   C35   1.433442 A    
C111  H39   1.082934 S    
C32   C36   1.434214 A    
C173  C177  1.401056 A    
C45   C123  1.451942 S    
C19   C219  1.486492 S    
C213  H81   1.083946 S    
C154  C157  1.402479 A    
C199  H71   1.082470 S    
C228  H96   1.085240 S    
N2    O51   1.301528 A    
Cu12  O48   1.957473 S    
C16   N24   1.432780 S    
C87   H23   1.083262 S    
O3    C3    1.295496 A    
C99   C119  1.402345 A    
C24   H8    1.082322 S    
C86   C90   1.392719 A    
C51   C223  1.490539 S    
C10   C30   1.426686 A    
C41   C45   1.392110 A    
C139  H43   1.083542 S    
C174  C183  1.398843 A    
C67   N3    1.439912 S    
N12   O71   1.301479 A    
C19   C23   1.396908 A    
O40   C134  1.296464 A    
C105  C109  1.404609 A    
C20   C24   1.396723 A    
N23   O102  1.300773 A    
Cu9   O45   1.957478 S    
C166  C169  1.398999 A    
O43   C133  1.297869 A    
C198  C202  1.394318 A    
N3    O53   1.301475 A    
C62   H14   1.084041 S    
N21   O97   1.300868 A    
O5    C1    1.294778 A    
C223  O111  1.221078 D    
O38   Cu10  1.953393 S    
C36   C40   1.402113 A    
C11   C31   1.426667 A    
C227  O115  1.220904 D    
C92   C96   1.403772 A    
O22   Cu6   1.974336 S    
C211  H79   1.083937 S    
C38   C42   1.383036 A    
C150  C159  1.402448 A    
C60   C64   1.397481 A    
C98   C118  1.402453 A    
C204  C206  1.402248 A    
C52   C72   1.419066 A    
N8    O63   1.301301 A    
C151  C153  1.395171 A    
C100  C104  1.393341 A    
C222  H90   1.084459 S    
O43   Cu12  1.958716 S    
C113  C117  1.416552 A    
O41   Cu10  1.958716 S    
C74   C78   1.405092 A    
C153  C157  1.402475 A    
C188  C196  1.401204 A    
Cu6   O30   1.957389 S    
C149  C155  1.395351 A    
C91   C95   1.402659 A    
C21   C25   1.408972 A    
C164  C216  1.488675 S    
C136  C148  1.473235 S    
O35   Cu11  1.957991 S    
N6    O59   1.301311 A    
N17   O90   1.301566 A    
C63   C67   1.396501 A    
C193  C207  1.479993 S    
C59   C95   1.476363 S    
C151  C160  1.402458 A    
C49   C69   1.421649 A    
C65   C69   1.413866 A    
C34   C38   1.401892 A    
C103  H35   1.082882 S    
O13   Cu3   1.971457 S    
C176  H60   1.083375 S    
O25   Cu6   1.969642 S    
C83   C119  1.475178 S    
O19   C122  1.293373 A    
C55   C227  1.489645 S    
O24   Cu8   1.974336 S    
C81   C117  1.474891 S    
C103  C107  1.402091 A    
C165  C169  1.399014 A    
C141  C209  1.488152 S    
C80   H20   1.083467 S    
C218  H86   1.083982 S    
C99   H31   1.083613 S    
C81   C85   1.399357 A    
C85   H21   1.083259 S    
C83   C87   1.399254 A    
O8    C4    1.295221 A    
C3    C107  1.477608 S    
C46   C124  1.451584 S    
C1    C105  1.476907 S    
O15   Cu4   1.971457 S    
C62   C66   1.396699 A    
C77   H17   1.083420 S    
C162  C166  1.403265 A    
C110  H38   1.082420 S    
C79   H19   1.083421 S    
H1    C37   1.083702 S    
C39   C43   1.383078 A    
O17   Cu5   1.957004 S    
C61   H13   1.084124 S    
C76   C80   1.405042 A    
C111  C115  1.405084 A    
C212  H80   1.083945 S    
C112  C116  1.404356 A    
C141  C145  1.422087 A    
C156  C158  1.402539 A    
C139  C148  1.398956 A    
O14   C6    1.296594 A    
C102  C106  1.402432 A    
C161  C213  1.488718 S    
C44   C48   1.391506 A    
C226  O114  1.220862 D    
N15   O78   1.301219 A    
C67   C71   1.414069 A    
C189  H65   1.082601 S    
C40   C44   1.382895 A    
O34   C129  1.297432 A    
C143  C211  1.488683 S    
C115  C119  1.416744 A    
C28   C48   1.410148 A    
C137  H41   1.084290 S    
O10   C6    1.289667 A    
N18   O92   1.301540 A    
O28   C126  1.287622 A    
C74   N6    1.440599 S    
C185  H61   1.083255 S    
C64   H16   1.084059 S    
N22   O100  1.300807 A    
C225  O113  1.220833 D    
N10   O68   1.301336 A    
O37   Cu9   1.953401 S    
C187  C196  1.401129 A    
C50   C70   1.418779 A    
C33   C37   1.401737 A    
Cu11  O47   1.957478 S    
O47   C136  1.301578 A    
O25   C123  1.287811 A    
C59   C63   1.395524 A    
C199  C208  1.406359 A    
C149  H45   1.083149 S    
C116  C120  1.416430 A    
O35   C130  1.297646 A    
C77   C81   1.401851 A    
C226  H94   1.085246 S    
N5    O58   1.301534 A    
N4    O55   1.301533 A    
C177  C181  1.418282 A    
C73   C93   1.417422 A    
C49   C53   1.421963 A    
C188  H64   1.083282 S    
O39   C133  1.298107 A    
N9    O66   1.301436 A    
C142  C145  1.419826 A    
C30   C34   1.433383 A    
C51   C55   1.421937 A    
C50   C222  1.489539 S    
C163  C215  1.488761 S    
C220  O108  1.220940 D    
C174  C178  1.401150 A    
C114  N10   1.440077 S    
C199  C203  1.395054 A    
C17   C217  1.485663 S    
N19   O94   1.301435 A    
O27   C125  1.287782 A    
C142  C210  1.489129 S    
O26   C124  1.287638 A    
C87   C91   1.392652 A    
C88   C92   1.392658 A    
C191  C194  1.407520 A    
C194  C208  1.483169 S    
O32   C128  1.292456 A    
C217  O105  1.220296 D    
N20   O95   1.301377 A    
C86   H22   1.083267 S    
C65   N1    1.439514 S    
C139  C143  1.403079 A    
C18   C22   1.397347 A    
C221  O109  1.220959 D    
N24   O103  1.300914 A    
O40   Cu12  1.953393 S    
C106  C110  1.405043 A    
C197  C201  1.394053 A    
C57   C93   1.475137 S    
C144  C146  1.419065 A    
C53   C225  1.490128 S    
C198  H70   1.082629 S    
N7    O61   1.301142 A    
H9    C41   1.083974 S    
C187  C189  1.394089 A    
C135  C147  1.473353 S    
N1    O50   1.301177 A    
C114  C118  1.416296 A    
C5    C33   1.470312 S    
C22   C26   1.409153 A    
H12   C44   1.084000 S    
C84   C88   1.398973 A    
C7    C35   1.470999 S    
C100  C120  1.402699 A    
C174  H58   1.083364 S    
Cu5   O29   1.957719 S    
C162  C214  1.488722 S    
C163  C172  1.419140 A    
C129  C183  1.471437 S    
C180  C182  1.418336 A    
C58   C62   1.397737 A    
C130  C184  1.470465 S    
O12   Cu2   1.971671 S    
N13   O74   1.301115 A    
C13   N21   1.432499 S    
C219  H87   1.083994 S    
C52   C224  1.489658 S    
O1    C1    1.295257 A    
C210  H78   1.083853 S    
C158  C172  1.478032 S    
C25   C29   1.414183 A    
C224  H92   1.084428 S    
C23   H7    1.082363 S    
C50   C54   1.421942 A    
C9    C13   1.415434 A    
O27   Cu8   1.969642 S    
C28   C32   1.414535 A    
O21   Cu5   1.974335 S    
C178  C181  1.418346 A    
C11   C15   1.416066 A    
C227  H95   1.085144 S    
C153  H49   1.083152 S    
C4    C108  1.478510 S    
N24   O104  1.300796 A    
C27   C47   1.410233 A    
C202  H74   1.082953 S    
C228  O116  1.220858 D    
O30   C127  1.292932 A    
C21   H5    1.082431 S    
C48   C126  1.451080 S    
C138  C142  1.403266 A    
N2    O52   1.300641 A    
O18   Cu6   1.957335 S    
C144  C212  1.488697 S    
C58   C94   1.480702 S    
C188  C190  1.394202 A    
O36   C130  1.297266 A    
C140  C148  1.398909 A    
C179  N19   1.439985 S    
C122  C170  1.473219 S    
C216  H84   1.083931 S    
C173  C183  1.398964 A    
C176  C180  1.399891 A    
N12   O72   1.301347 A    
Cu10  O46   1.957473 S    
O24   C126  1.284680 A    
C164  C172  1.419167 A    
C82   C118  1.475187 S    
C165  H53   1.083624 S    
C53   C57   1.412370 A    
C80   C84   1.402156 A    
O6    C2    1.295174 A    
O4    Cu2   1.955874 S    
N3    O54   1.301071 A    
N16   O79   1.300932 A    
C91   H27   1.083528 S    
C224  O112  1.220920 D    
C191  H67   1.082439 S    
C185  C191  1.395127 A    
C192  H68   1.082436 S    
C219  O107  1.221003 D    
C200  C204  1.394979 A    
C17   C21   1.397491 A    
C149  C159  1.402478 A    
C69   C131  1.474761 S    
O20   C122  1.293347 A    
O2    Cu1   1.955874 S    
C187  H63   1.083280 S    
O10   Cu1   1.971671 S    
C101  H33   1.082875 S    
C173  H57   1.083429 S    
H3    C39   1.083672 S    
O41   C131  1.298056 A    
C66   N2    1.440698 S    
C112  H40   1.082531 S    
C214  H82   1.083945 S    
C222  O110  1.220888 D    
C42   C46   1.391819 A    
C215  H83   1.083973 S    
C140  C144  1.403185 A    
C150  H46   1.083151 S    
C175  H59   1.083405 S    
C162  C171  1.419101 A    
O33   Cu9   1.957991 S    
C97   H29   1.083603 S    
C26   C46   1.410599 A    
O13   C5    1.296037 A    
C75   N7    1.441914 S    
C68   N4    1.440812 S    
C47   C125  1.451361 S    
C177  N17   1.441462 S    
C138  C147  1.398645 A    
Cu7   Cu8   2.665882 S    
C145  C159  1.476969 S    
C14   N22   1.432837 S    
C146  C160  1.477841 S    
C204  H76   1.083117 S    
N14   O75   1.300953 A    
N6    O60   1.301481 A    
N17   O89   1.301185 A    
C182  C196  1.474803 S    
C152  C160  1.402464 A    
C72   C134  1.470265 S    
C14   C18   1.404159 A    
C213  O85   1.221389 D    
C178  N18   1.441452 S    
C203  H75   1.083119 S    
C90   C94   1.404071 A    
O44   C134  1.297508 A    
C109  C113  1.404293 A    
C71   C133  1.473977 S    
C37   C41   1.383210 A    
C218  O106  1.220199 D    
O26   Cu5   1.969642 S    
C74   C94   1.417742 A    
C121  C169  1.473327 S    
H10   C42   1.083988 S    
O39   Cu11  1.953401 S    
C70   C132  1.470234 S    
O16   C8    1.297197 A    
C12   N16   1.432455 S    
C176  C184  1.398805 A    
C163  C167  1.403192 A    
C201  H73   1.082960 S    
C175  C179  1.399826 A    
C186  C195  1.399724 A    
C73   C77   1.405208 A    
H4    C40   1.083662 S    
C97   C101  1.392598 A    
O11   C7    1.289712 A    
C220  H88   1.083941 S    
C201  C205  1.403360 A    
O12   C8    1.289463 A    
O5    Cu3   1.955101 S    
C57   C61   1.395355 A    
N7    O62   1.301530 A    
O9    Cu1   1.971676 S    
C198  C207  1.405175 A    
C88   H24   1.083261 S    
C179  C182  1.418300 A    
C168  C170  1.398967 A    
N11   O70   1.301447 A    
C116  N12   1.439907 S    
C151  H47   1.083156 S    
O20   Cu8   1.957335 S    
O9    C5    1.289906 A    
C56   C60   1.413961 A    
C12   C16   1.415927 A    
C113  N9    1.439949 S    
C10   N14   1.432170 S    
N19   O93   1.301377 A    
O17   C121  1.293369 A    
O11   Cu2   1.971676 S    
C128  C206  1.469114 S    
C180  N20   1.439964 S    
O23   Cu7   1.974335 S    
C89   C93   1.402273 A    
O29   C127  1.293203 A    
O46   C135  1.301466 A    
C209  O81   1.220471 D    
C82   C86   1.398710 A    
C107  C111  1.404710 A    
C6    C34   1.470774 S    
O36   Cu12  1.957995 S    
C190  C193  1.406252 A    
O7    C3    1.294871 A    
O6    Cu3   1.954770 S    
C16   C20   1.404834 A    
C156  H52   1.083153 S    
C115  N11   1.440139 S    
C225  H93   1.084480 S    
C104  C108  1.402310 A    
C78   H18   1.083486 S    
C161  C165  1.403268 A    
Cu7   O31   1.957719 S    
H2    C38   1.083682 S    
C202  C205  1.403366 A    
C54   C226  1.488501 S    
N4    O56   1.300594 A    
C166  H54   1.083624 S    
C25   C45   1.410729 A    
C43   C47   1.391770 A    
C152  H48   1.083153 S    
O2    C2    1.295803 A    
O42   C132  1.297244 A    
C23   C27   1.408821 A    
N9    O65   1.301354 A    
C26   C30   1.414458 A    
O31   C128  1.292623 A    
C85   C89   1.392098 A    
C24   C28   1.409016 A    
C9    C29   1.426348 A    
O21   C123  1.284962 A    
C10   C14   1.415226 A    
C20   C220  1.486535 S    
C157  C171  1.477902 S    
O14   Cu3   1.971466 S    
C168  H56   1.083634 S    
C189  C193  1.406292 A    
C12   C32   1.427033 A    
O37   C131  1.298243 A    
C154  H50   1.083152 S    
O45   C135  1.301707 A    
C75   C95   1.417407 A    
Cu1   Cu3   2.668074 S    
C22   H6    1.082406 S    
Cu2   Cu4   2.668074 S    
C186  C192  1.395116 A    
C76   C96   1.417533 A    
H11   C43   1.083984 S    
C217  H85   1.084028 S    
N20   O96   1.301434 A    
O8    Cu4   1.954770 S    
C51   C71   1.421422 A    
C66   C70   1.412578 A    
C76   N8    1.440711 S    
C221  H89   1.085022 S    
C60   C96   1.479993 S    
N8    O64   1.301486 A    
C84   C120  1.475790 S    
C150  C156  1.395069 A    
N23   O101  1.300869 A    
C78   C82   1.401890 A    
C127  C205  1.471127 S    
O22   C124  1.284934 A    
Cu8   O32   1.957389 S    
C97   C117  1.402504 A    
C137  C147  1.398606 A    
C75   C79   1.405649 A    
N1    O49   1.301436 A    
C203  C206  1.402249 A    
