data_mof_unit_36098.cif
_audit_creation_date              2012-12-10T17:35:39-0500
_audit_creation_method            fapswitch 2.2
_symmetry_space_group_name_H-M    P1
_symmetry_Int_Tables_number       1
_space_group_crystal_system       triclinic
_cell_length_a                    10.72358
_cell_length_b                    12.339217
_cell_length_c                    13.239144
_cell_angle_alpha                 116.627617
_cell_angle_beta                  76.939459
_cell_angle_gamma                 101.560763
_cell_volume                      1515.58590446

loop_
_atom_site_label
_atom_site_type_symbol
_atom_type_description
_atom_site_fract_x
_atom_site_fract_y
_atom_site_fract_z
_atom_type_partial_charge
C1    C     C_R   0.513309 0.854498 0.286485 0.778818
C2    C     C_3   0.122103 0.000881 0.499893 0.169955
C3    C     C_3   0.042705 0.018632 0.618613 -0.396424
C4    C     C_3   0.069903 0.878239 0.407727 -0.373287
C5    C     C_R   0.376927 0.268555 0.031188 -0.199467
C6    C     C_R   0.468097 0.227283 0.835080 -0.055550
C7    C     C_R   0.620764 0.812237 0.089713 -0.226833
C8    C     C_R   0.680501 0.730161 0.986926 -0.182146
C9    C     C_R   0.654112 0.603938 0.954563 0.102041
C10   C     C_R   0.545394 0.559647 0.017805 0.049713
C11   C     C_R   0.488049 0.644623 0.125319 0.058360
C12   C     C_R   0.740049 0.999765 0.499447 0.750418
C13   C     C_R   0.494265 0.434645 0.982325 0.059493
C14   C     C_R   0.413796 0.393564 0.062100 0.167346
C15   C     C_R   0.361014 0.478065 0.167269 -0.235394
C16   C     C_R   0.388512 0.601373 0.193384 -0.191939
C17   C     C_R   0.507849 0.351768 0.867617 -0.253151
C18   C     C_R   0.408058 0.185046 0.918359 -0.206504
C19   C     C_R   0.533807 0.770533 0.164073 -0.109551
C20   C     C_R   0.707249 0.346330 0.327193 -0.308636
C21   C     C_R   0.323169 0.753671 0.646270 0.406387
C22   C     C_R   0.287960 0.653534 0.673108 -0.254439
C23   C     C_R   0.482452 0.145051 0.713334 0.794105
C24   C     C_R   0.354469 0.553257 0.616935 -0.251069
C25   C     C_R   0.459679 0.549512 0.531289 -0.000641
C26   C     C_R   0.494533 0.652877 0.503602 0.246281
C27   C     C_R   0.530992 0.446084 0.472581 -0.020573
C28   C     C_R   0.635690 0.446307 0.385898 0.177344
C29   C     C_R   0.668463 0.546298 0.358755 -0.288498
C30   C     C_R   0.599964 0.647258 0.416488 -0.178308
C31   C     C_R   0.503058 0.341612 0.496557 0.009422
C32   C     C_R   0.675010 0.246805 0.354899 0.066224
C33   C     C_R   0.260031 0.000412 0.500272 0.740854
C34   C     C_3   0.960732 0.105696 0.472140 -0.370129
C35   C     C_3   0.103415 0.106320 0.472871 -0.369327
C36   C     C_3   0.898811 0.018085 0.618243 -0.369890
C37   C     C_3   0.925846 0.877728 0.407661 -0.395815
C38   C     C_3   0.878275 0.000292 0.499346 0.164483
Cu1   Cu    Cu3+1 0.529690 0.098270 0.475420 0.919845
Cu2   Cu    Cu3+1 0.470310 0.901730 0.524580 0.916901
H1    H     H_    0.928810 0.195216 0.536496 0.168975
H2    H     H_    0.081914 0.800698 0.424785 0.171628
H3    H     H_    0.841492 0.943272 0.639693 0.175494
H4    H     H_    0.053376 0.944075 0.640217 0.170769
H5    H     H_    0.376636 0.089076 0.895108 0.156133
H6    H     H_    0.290843 0.448679 0.225716 0.141026
H7    H     H_    0.319581 0.236104 0.092954 0.131527
H8    H     H_    0.538314 0.385190 0.802637 0.159194
H9    H     H_    0.654073 0.908491 0.116362 0.157507
H10   H     H_    0.757234 0.766601 0.937813 0.131729
H11   H     H_    0.948382 0.094796 0.386661 0.162049
H12   H     H_    0.330993 0.661954 0.268341 0.167727
H13   H     H_    0.729998 0.169470 0.309768 0.115869
H14   H     H_    0.748723 0.546952 0.292305 0.144631
H15   H     H_    0.787703 0.345247 0.260462 0.133506
H16   H     H_    0.425546 0.333085 0.561022 0.121416
H17   H     H_    0.320231 0.480198 0.643143 0.140131
H18   H     H_    0.207074 0.653131 0.739226 0.148298
H19   H     H_    0.633671 0.719023 0.389825 0.202951
H20   H     H_    0.159364 0.096323 0.387926 0.169867
H21   H     H_    0.139470 0.195885 0.538120 0.165655
H22   H     H_    0.864772 0.105361 0.685497 0.153403
H23   H     H_    0.078732 0.106370 0.685979 0.151138
H24   H     H_    0.869347 0.800353 0.425360 0.170318
H25   H     H_    0.911416 0.862906 0.321532 0.146865
H26   H     H_    0.125486 0.864297 0.321763 0.145998
N1    N     N_R   0.574690 0.246280 0.438200 -0.179246
N2    N     N_R   0.426100 0.754320 0.561190 -0.205049
O1    O     O_R   0.537340 0.972510 0.318130 -0.578269
O2    O     O_R   0.487200 0.806530 0.359650 -0.599270
O3    O     O_R   0.707380 0.082980 0.479220 -0.588606
O4    O     O_R   0.657240 0.917000 0.520740 -0.600505
O5    O     O_R   0.512800 0.193470 0.640350 -0.588193
O6    O     O_R   0.462660 0.027490 0.681870 -0.585744
O7    O     O_R   0.342760 0.083000 0.479260 -0.589029
O8    O     O_R   0.292620 0.917020 0.520780 -0.594210
C39   C     C_3   0.758160 0.526997 0.867121 -0.415276
C40   C     C_3   0.817774 0.461255 0.916360 -0.323760
C41   C     C_3   0.929615 0.394774 0.831596 -0.878377
H27   H     H_    0.896349 0.328117 0.749965 0.250735
H28   H     H_    0.008242 0.460939 0.814328 0.250783
H29   H     H_    0.968201 0.344894 0.867676 0.241045
H30   H     H_    0.853847 0.528862 0.996606 0.214864
H31   H     H_    0.744898 0.393447 0.936805 0.229489
H32   H     H_    0.725348 0.462818 0.785322 0.191635
H33   H     H_    0.838220 0.586928 0.841429 0.190596
C42   C     C_3   0.239355 0.855286 0.717599 -0.838004
H34   H     H_    0.137789 0.819704 0.704543 0.188750
H35   H     H_    0.244210 0.885665 0.809436 0.190032
H36   H     H_    0.261336 0.936892 0.702228 0.271387

loop_
_geom_bond_atom_site_label_1
_geom_bond_atom_site_label_2
_ccdc_geom_bond_type
C2    C35   S    
C42   H34   S    
C21   C42   S    
C17   H8    S    
C7    C8    A    
C39   C40   S    
C31   N1    A    
C5    H7    S    
C11   C19   A    
C34   H11   S    
C29   C30   A    
Cu2   O2    S    
C28   C29   A    
C29   H14   S    
C15   C16   A    
C34   C35   S    
C40   H30   S    
C33   O7    A    
C8    C9    A    
C37   H25   S    
Cu1   O7    S    
C31   H16   S    
C9    C10   A    
C12   O4    A    
C39   H32   S    
C21   C22   A    
C34   H1    S    
C23   O5    A    
C20   H15   S    
C36   H22   S    
C6    C18   A    
C3    H4    S    
C1    C19   S    
C27   C31   A    
C24   C25   A    
C7    H9    S    
Cu1   Cu2   S    
C41   H28   S    
C40   C41   S    
C24   H17   S    
C5    C18   A    
C20   C28   A    
C25   C26   A    
C1    O1    A    
Cu2   O8    S    
C35   H20   S    
C2    C4    S    
C37   C38   S    
C11   C16   A    
C33   O8    A    
C30   H19   S    
Cu1   O1    S    
C35   H21   S    
C9    C39   S    
C5    C14   A    
C32   N1    A    
C2    C33   S    
C12   O3    A    
C39   H33   S    
C26   C30   A    
C7    C19   A    
C42   H35   S    
C21   N2    A    
C22   C24   A    
C23   O6    A    
C18   H5    S    
C8    H10   S    
C32   H13   S    
C37   H24   S    
C20   C32   A    
C6    C17   A    
Cu2   O4    S    
C34   C38   S    
Cu1   N1    S    
C16   H12   S    
C10   C13   A    
C22   H18   S    
C41   H29   S    
C3    H23   S    
C25   C27   A    
C1    O2    A    
C13   C17   A    
C26   N2    A    
C36   C38   S    
C2    C3    S    
C4    H26   S    
C4    H2    S    
C3    C36   S    
C6    C23   S    
Cu2   O6    S    
Cu1   O5    S    
C12   C38   S    
C10   C11   A    
C41   H27   S    
C40   H31   S    
C4    C37   S    
Cu2   N2    S    
C42   H36   S    
C27   C28   A    
Cu1   O3    S    
C14   C15   A    
C36   H3    S    
C15   H6    S    
C13   C14   A    
