data_mof_unit_11640.cif
_audit_creation_date              2012-12-11T14:15:47-0500
_audit_creation_method            fapswitch 2.2
_symmetry_space_group_name_H-M    P1
_symmetry_Int_Tables_number       1
_space_group_crystal_system       triclinic
_cell_length_a                    11.140992
_cell_length_b                    12.727043
_cell_length_c                    23.544214
_cell_angle_alpha                 90.881999
_cell_angle_beta                  96.9203
_cell_angle_gamma                 68.455781
_cell_volume                      3081.01368781

loop_
_atom_site_label
_atom_site_type_symbol
_atom_type_description
_atom_site_fract_x
_atom_site_fract_y
_atom_site_fract_z
_atom_type_partial_charge
C1    C     C_R   0.149410 0.616078 0.428759 0.555728
C2    C     C_2   0.180477 0.233860 0.226549 -0.119418
C3    C     C_2   0.154505 0.166302 0.262432 -0.117530
C4    C     C_R   0.758338 0.599370 0.402042 0.547715
C5    C     C_1   0.131848 0.199615 0.320273 -0.031383
C6    C     C_1   0.210043 0.198285 0.169676 -0.037248
C7    C     C_1   0.115809 0.232419 0.368167 0.011416
C8    C     C_1   0.165987 0.753023 0.123634 0.045926
C9    C     C_2   0.140393 0.706320 0.229958 -0.140363
C10   C     C_2   0.241934 0.646959 0.268822 0.046853
C11   C     C_1   0.217017 0.638469 0.327295 -0.022614
C12   C     C_R   0.741789 0.525524 0.305515 -0.073058
C13   C     C_1   0.152573 0.729405 0.171356 0.015742
C14   C     C_1   0.191604 0.629722 0.375001 0.026871
C15   C     C_1   0.629439 0.753814 0.865367 0.005276
C16   C     C_R   0.101149 0.282241 0.423291 0.543979
C17   C     C_2   0.703059 0.697347 0.762864 -0.124140
C18   C     C_2   0.612817 0.705445 0.718265 -0.105583
C19   C     C_1   0.651322 0.670655 0.662529 -0.009252
C20   C     C_1   0.665975 0.729822 0.819025 -0.044470
C21   C     C_1   0.690348 0.640333 0.617154 0.041723
C22   C     C_R   0.185706 0.195599 0.858211 0.005837
C23   C     C_R   0.726733 0.720031 0.315575 -0.099747
C24   C     C_R   0.107558 0.233225 0.643496 -0.011070
C25   C     C_R   0.977267 0.218252 0.716548 0.026176
C26   C     C_R   0.995401 0.222355 0.659299 -0.159730
C27   C     C_R   0.207552 0.234579 0.686131 0.056295
C28   C     C_R   0.148760 0.616121 0.591207 0.585739
C29   C     C_R   0.185346 0.240419 0.743612 -0.033947
C30   C     C_R   0.078380 0.217818 0.759830 0.020598
C31   C     C_R   0.083693 0.186943 0.817966 0.046651
C32   C     C_R   0.258950 0.258036 0.842847 -0.012308
C33   C     C_R   0.266179 0.271232 0.785355 -0.163307
C34   C     C_R   0.728536 0.730261 0.256405 0.056259
C35   C     C_R   0.127223 0.742054 0.854212 0.011451
C36   C     C_R   0.181594 0.634073 0.651173 0.024685
C37   C     C_R   0.317487 0.586928 0.741706 -0.159847
C38   C     C_R   0.305914 0.581001 0.682164 0.017335
C39   C     C_R   0.075099 0.697128 0.679546 -0.113773
C40   C     C_R   0.749888 0.602396 0.566043 0.555150
C41   C     C_R   0.089028 0.713500 0.737528 0.044471
C42   C     C_R   0.210486 0.652306 0.769145 0.007799
C43   C     C_R   0.226623 0.663393 0.827604 -0.121640
C44   C     C_R   0.004613 0.797854 0.823979 -0.114483
C45   C     C_R   0.732622 0.636338 0.222334 0.023423
C46   C     C_R   0.984746 0.787743 0.765080 0.017331
C47   C     C_R   0.265683 0.110279 0.069427 0.562029
C48   C     C_R   0.601414 0.774888 0.080802 0.547933
C49   C     C_R   0.188788 0.787845 0.069459 0.543780
C50   C     C_R   0.238536 0.118123 0.908724 0.587333
C51   C     C_R   0.573796 0.776079 0.918215 0.544673
C52   C     C_R   0.100287 0.279387 0.585825 0.547837
C53   C     C_R   0.163350 0.785305 0.908030 0.554659
C54   C     C_R   0.677920 0.754308 0.137242 0.001148
C55   C     C_R   0.732348 0.618356 0.340066 0.009307
C56   C     C_R   0.714469 0.647777 0.163229 -0.118480
C57   C     C_R   0.743089 0.534177 0.247254 -0.130704
C58   C     C_2   0.998157 0.129466 0.834440 0.640681
C59   C     C_2   0.335301 0.304042 0.885241 0.254521
C60   C     C_2   0.843691 0.233322 0.727551 0.267202
C61   C     C_2   0.338850 0.219232 0.671203 0.603041
C62   C     C_2   0.859637 0.866776 0.734870 0.232209
C63   C     C_2   0.425472 0.521953 0.655021 0.275981
C64   C     C_2   0.732911 0.930317 0.260482 0.203488
C65   C     C_2   0.376659 0.586010 0.254655 0.594837
C66   C     C_R   0.688292 0.844617 0.169670 -0.159991
C67   C     C_R   0.718509 0.832605 0.229300 0.000773
C68   C     C_1   0.235543 0.163151 0.122957 0.010601
Cr1   Cr    Cr6+3 0.189770 0.415650 0.511620 1.111517
Cr2   Cr    Cr6+3 0.930400 0.667320 0.496770 1.069472
Cr3   Cr    Cr6+3 0.879870 0.417010 0.491650 1.056322
Cr4   Cr    Cr6+3 0.149500 0.973980 0.985330 1.066962
Cr5   Cr    Cr6+3 0.457000 0.976510 0.994660 1.059429
Cr6   Cr    Cr6+3 0.411170 0.724270 0.995270 1.058863
H1    H     H_    0.711651 0.576619 0.137842 0.134560
H2    H     H_    0.411460 0.544552 0.766607 0.113394
H3    H     H_    0.978498 0.729417 0.656368 0.188436
H4    H     H_    0.748516 0.461660 0.221431 0.111294
H5    H     H_    0.751800 0.444574 0.323630 0.167228
H6    H     H_    0.718935 0.790334 0.343093 0.183574
H7    H     H_    0.153299 0.084612 0.248977 0.145196
H8    H     H_    0.182560 0.315198 0.240187 0.145561
H9    H     H_    0.866462 0.126065 0.885372 0.333044
H10   H     H_    0.410209 0.330410 0.871939 0.104935
H11   H     H_    0.786984 0.195409 0.699602 0.137097
H12   H     H_    0.044164 0.745352 0.243417 0.141116
H13   H     H_    0.500091 0.116358 0.639492 0.351365
H14   H     H_    0.773461 0.895059 0.756817 0.119290
H15   H     H_    0.512386 0.465982 0.680827 0.139518
H16   H     H_    0.684828 0.014923 0.241549 0.117961
H17   H     H_    0.500178 0.537593 0.194714 0.335678
H18   H     H_    0.510067 0.737714 0.723447 0.148795
H19   H     H_    0.805761 0.663430 0.757671 0.131248
H20   H     H_    0.334391 0.307017 0.773744 0.153756
H21   H     H_    0.915986 0.226796 0.626659 0.138315
H22   H     H_    0.321734 0.619358 0.851202 0.142643
H23   H     H_    0.665970 0.926229 0.148945 0.125842
H24   H     H_    0.928611 0.858728 0.845283 0.136582
O1    O     O_R   0.196340 0.303200 0.448500 -0.497025
O2    O     O_R   0.555390 0.700940 0.062700 -0.505503
O3    O     O_R   0.295020 0.731920 0.049950 -0.473589
O4    O     O_R   0.199310 0.519670 0.454880 -0.484740
O5    O     O_R   0.094290 0.884230 0.921550 -0.497703
O6    O     O_R   0.168980 0.069410 0.926940 -0.474795
O7    O     O_R   0.358400 0.089990 0.927950 -0.479551
O8    O     O_R   0.544850 0.873850 0.939920 -0.499384
O9    O     O_R   0.536020 0.701900 0.936430 -0.503652
O10   O     O_R   0.277070 0.732810 0.932890 -0.507840
O11   O     O_3   0.339220 0.891590 0.991750 -0.265927
O12   O     O_R   0.811960 0.658090 0.547150 -0.498515
O13   O     O_R   0.045660 0.691380 0.441680 -0.489372
O14   O     O_R   0.811930 0.659460 0.430950 -0.500433
O15   O     O_R   0.757900 0.507620 0.421760 -0.499625
O16   O     O_R   0.988630 0.322990 0.439840 -0.500150
O17   O     O_R   0.196380 0.301720 0.573850 -0.472390
O18   O     O_R   0.199350 0.518300 0.571080 -0.443428
O19   O     O_R   0.045700 0.689900 0.567030 -0.520495
O20   O     O_2   0.996035 0.044751 0.809839 -0.525105
O21   O     O_R   0.920189 0.172616 0.878009 -0.643105
O22   O     O_2   0.311739 0.317535 0.934748 -0.480836
O23   O     O_R   0.757930 0.506140 0.547110 -0.485110
O24   O     O_2   0.792683 0.294369 0.765262 -0.488987
O25   O     O_2   0.379301 0.296517 0.676371 -0.539390
O26   O     O_R   0.413297 0.116975 0.648766 -0.671618
O27   O     O_2   0.852818 0.907716 0.687495 -0.500786
O28   O     O_2   0.430768 0.538398 0.604607 -0.488658
O29   O     O_2   0.804203 0.917415 0.305540 -0.509777
O30   O     O_2   0.462190 0.533812 0.292588 -0.520047
O31   O     O_R   0.406305 0.585325 0.198567 -0.691437
O32   O     O_R   0.988670 0.321620 0.556040 -0.509722
O33   O     O_3   0.000020 0.499990 0.500010 -0.284413
O34   O     O_R   0.113660 0.883270 0.047820 -0.521108
O35   O     O_R   0.186930 0.068530 0.043990 -0.493508
O36   O     O_R   0.377770 0.089040 0.054220 -0.492602
O37   O     O_R   0.562800 0.872960 0.056970 -0.507044

loop_
_geom_bond_atom_site_label_1
_geom_bond_atom_site_label_2
_ccdc_geom_bond_type
C24   C52   S    
Cr1   O18   S    
C50   O6    A    
C8    C13   T    
C35   C53   S    
C41   C42   A    
C48   O37   A    
C24   C27   A    
C64   H16   S    
C33   H20   S    
Cr6   O11   S    
Cr5   O8    S    
C39   C41   A    
Cr1   O4    S    
C48   C54   S    
C40   O23   A    
C45   C57   A    
C59   O22   D    
C22   C32   A    
C46   C62   S    
C61   O26   S    
C39   H3    S    
C66   H23   S    
C19   C21   T    
C24   C26   A    
C28   O19   A    
C49   O3    A    
C30   C31   A    
C11   C14   T    
C52   O17   A    
C27   C29   A    
Cr2   O19   S    
C12   H5    S    
C29   C33   A    
C58   O20   D    
C17   C20   S    
Cr3   O15   S    
C17   C18   D    
C18   C19   S    
H9    O21   S    
C37   C42   A    
C9    C13   S    
Cr2   O33   S    
Cr2   O12   S    
Cr6   O9    S    
C44   H24   S    
Cr5   O37   S    
C45   C56   A    
C3    H7    S    
C50   O7    A    
C41   C46   A    
C25   C60   S    
C15   C51   S    
C23   H6    S    
C29   C30   A    
C35   C43   A    
C9    C10   D    
C22   C50   S    
C23   C34   A    
C6    C68   T    
C66   C67   A    
C4    O14   A    
C56   H1    S    
C47   O35   A    
C2    C6    S    
C44   C46   A    
Cr4   O34   S    
C15   C20   T    
C48   O2    A    
C49   O34   A    
C54   C56   A    
C28   O18   A    
C22   C31   A    
C63   O28   D    
C64   C67   S    
C4    O15   A    
C59   H10   S    
C10   C11   S    
C5    C7    T    
C25   C30   A    
Cr6   O2    S    
Cr4   O6    S    
C25   C26   A    
C62   H14   S    
Cr3   O16   S    
C27   C61   S    
C65   O30   D    
C37   C38   A    
C65   O31   S    
C9    H12   S    
Cr5   O7    S    
Cr1   O33   S    
C64   O29   D    
C63   H15   S    
C43   H22   S    
C34   C45   A    
C60   O24   D    
C35   C44   A    
Cr2   O14   S    
Cr6   O3    S    
H17   O31   S    
C12   C57   A    
Cr1   O1    S    
C7    C16   S    
C37   H2    S    
C4    C55   S    
C2    H8    S    
C17   H19   S    
C42   C43   A    
C47   C68   S    
C31   C58   S    
C38   C63   S    
C10   C65   S    
C26   H21   S    
Cr4   O11   S    
Cr1   O17   S    
C57   H4    S    
Cr3   O23   S    
C36   C39   A    
C3    C5    S    
C16   O16   A    
C34   C67   A    
C62   O27   D    
C40   O12   A    
C60   H11   S    
C16   O1    A    
C23   C55   A    
C54   C66   A    
Cr4   O5    S    
C61   O25   D    
C52   O32   A    
C32   C33   A    
C36   C38   A    
C2    C3    D    
C18   H18   S    
C47   O36   A    
C1    O13   A    
Cr3   O32   S    
C53   O10   A    
Cr4   O35   S    
H13   O26   S    
C21   C40   S    
C53   O5    A    
C51   O8    A    
C8    C49   S    
C58   O21   S    
Cr5   O11   S    
C12   C55   A    
Cr2   O13   S    
Cr6   O10   S    
Cr5   O36   S    
C28   C36   S    
Cr3   O33   S    
C51   O9    A    
C1    C14   S    
C32   C59   S    
C1    O4    A    
