data_mof_unit_35360.cif
_audit_creation_date              2013-03-05T16:01:06-0500
_audit_creation_method            fapswitch 2.2
_symmetry_space_group_name_H-M    P1
_symmetry_Int_Tables_number       1
_space_group_crystal_system       triclinic
_cell_length_a                    14.689189
_cell_length_b                    14.735459
_cell_length_c                    15.883685
_cell_angle_alpha                 76.422223
_cell_angle_beta                  103.257832
_cell_angle_gamma                 116.166372
_cell_volume                      2968.12458111

loop_
_atom_site_label
_atom_site_type_symbol
_atom_site_description
_atom_site_fract_x
_atom_site_fract_y
_atom_site_fract_z
_atom_type_partial_charge
O1    O     O_R   0.977900 0.338120 0.529810 -0.585356
O2    O     O_R   0.022100 0.661880 0.470190 -0.585819
O3    O     O_R   0.839850 0.379180 0.491620 -0.580349
O4    O     O_R   0.160150 0.620820 0.508380 -0.584848
C1    C     C_R   0.879166 0.311482 0.515615 0.795087
C2    C     C_R   0.120891 0.688368 0.486770 0.789064
O5    O     O_R   0.069010 0.479460 0.640020 -0.568702
O6    O     O_R   0.930990 0.520540 0.359980 -0.566351
O7    O     O_R   0.930960 0.520530 0.601820 -0.584509
O8    O     O_R   0.069040 0.479470 0.398180 -0.582984
C3    C     C_R   0.999936 0.499914 0.660002 0.820430
C4    C     C_R   0.000097 0.500139 0.339971 0.823885
Cu1   Cu    Cu3+1 0.081740 0.475690 0.522610 0.944380
Cu2   Cu    Cu3+1 0.918260 0.524310 0.477390 0.948840
C5    C     C_3   0.048360 0.442509 0.051374 -0.266176
C6    C     C_3   0.952189 0.558307 0.948399 -0.269764
C7    C     C_3   0.951180 0.403324 0.981990 -0.272354
C8    C     C_3   0.049364 0.597493 0.017794 -0.271525
H1    H     H_    0.909401 0.324046 0.966735 0.173018
H2    H     H_    0.091125 0.676784 0.033014 0.173973
H3    H     H_    0.089312 0.396572 0.093736 0.175371
H4    H     H_    0.911234 0.604232 0.906015 0.172632
C9    C     C_1   0.000029 0.500048 0.749568 -0.150733
C10   C     C_1   0.000167 0.500272 0.250332 -0.147805
C11   C     C_3   0.095387 0.538735 0.984962 0.425550
C12   C     C_3   0.905156 0.462086 0.014791 0.421847
C13   C     C_3   0.000593 0.500505 0.916616 0.034580
C14   C     C_3   0.999931 0.500297 0.083178 0.033568
C15   C     C_1   0.000254 0.500252 0.825024 0.047826
C16   C     C_1   0.000107 0.500324 0.174829 0.050293
C17   C     C_R   0.810283 0.202180 0.534126 -0.059151
C18   C     C_R   0.190452 0.796721 0.490284 -0.053346
C19   C     C_R   0.783988 0.024911 0.582941 -0.188529
C20   C     C_R   0.218286 0.970527 0.493484 -0.175799
C21   C     C_R   0.849139 0.127119 0.560767 -0.195421
C22   C     C_R   0.152196 0.870668 0.480497 -0.183399
C23   C     C_R   0.705446 0.173231 0.530887 -0.204640
C24   C     C_R   0.295789 0.824224 0.513402 -0.237227
C25   C     C_R   0.640363 0.072565 0.561970 0.056217
C26   C     C_R   0.362350 0.921077 0.536576 0.059995
C27   C     C_R   0.678278 0.995185 0.582895 0.094209
C28   C     C_R   0.325024 0.998925 0.519373 0.094855
C29   C     C_R   0.536147 0.046691 0.565193 -0.008335
C30   C     C_R   0.467217 0.943639 0.569267 -0.049583
C31   C     C_R   0.506115 0.867837 0.608158 0.099546
C32   C     C_R   0.498251 0.119336 0.568169 0.141950
C33   C     C_R   0.610602 0.891366 0.606047 0.130028
C34   C     C_R   0.394623 0.100545 0.532729 0.081018
H5    H     H_    0.325730 0.768479 0.515193 0.156956
H6    H     H_    0.674282 0.229327 0.501680 0.155304
H7    H     H_    0.070629 0.851072 0.464238 0.154013
H8    H     H_    0.930097 0.147140 0.564072 0.155034
H9    H     H_    0.818714 0.970717 0.601588 0.148563
H10   H     H_    0.182015 0.021662 0.487471 0.126833
N1    N     N_R   0.795440 0.560790 0.443380 -0.177191
N2    N     N_R   0.204560 0.439210 0.556620 -0.180642
C35   C     C_R   0.705566 0.649076 0.339228 -0.297739
C36   C     C_R   0.301261 0.362488 0.665721 -0.312402
C37   C     C_R   0.790499 0.625579 0.367793 0.096306
C38   C     C_R   0.211508 0.376742 0.633273 0.089642
C39   C     C_R   0.719986 0.519680 0.494759 -0.002279
C40   C     C_R   0.282754 0.486878 0.507962 0.001308
C41   C     C_R   0.632422 0.542654 0.470395 -0.036160
C42   C     C_R   0.375756 0.474058 0.536522 -0.018699
C43   C     C_R   0.625520 0.606544 0.389484 0.160060
C44   C     C_R   0.384146 0.412127 0.618363 0.153688
C45   C     C_R   0.550999 0.502718 0.521805 0.077325
C46   C     C_R   0.460164 0.520504 0.487748 0.073641
C47   C     C_R   0.456561 0.583128 0.405846 -0.248868
C48   C     C_R   0.557694 0.446198 0.606235 -0.243474
C49   C     C_R   0.538434 0.626552 0.358665 -0.181422
C50   C     C_R   0.475508 0.401279 0.653082 -0.206598
H11   H     H_    0.532697 0.674987 0.296498 0.160876
H12   H     H_    0.483344 0.356705 0.717010 0.161364
H13   H     H_    0.271242 0.536409 0.448921 0.128141
H14   H     H_    0.728781 0.467275 0.552613 0.121011
H15   H     H_    0.148294 0.340646 0.670796 0.132562
H16   H     H_    0.852173 0.657899 0.328799 0.132708
H17   H     H_    0.701965 0.699225 0.277741 0.148632
H18   H     H_    0.306414 0.314261 0.728089 0.151108
H19   H     H_    0.391534 0.600841 0.376183 0.145384
H20   H     H_    0.626033 0.435404 0.638278 0.145016
N3    N     N_R   0.798807 0.419261 0.029589 0.127992
O9    O     O_R   0.725313 0.389582 0.965171 -0.360678
O10   O     O_R   0.776561 0.410497 0.106575 -0.350463
N4    N     N_R   0.201695 0.581609 0.969988 0.126716
O11   O     O_R   0.275302 0.611113 0.034361 -0.357369
O12   O     O_R   0.223801 0.590897 0.892826 -0.367815
C51   C     C_3   0.647683 0.805804 0.623336 -0.419803
C52   C     C_3   0.661587 0.785415 0.538152 -0.812136
H21   H     H_    0.587047 0.760564 0.494431 0.262409
H22   H     H_    0.717860 0.854420 0.503256 0.250269
H23   H     H_    0.689362 0.723700 0.552841 0.249971
H24   H     H_    0.719734 0.824122 0.670350 0.193855
H25   H     H_    0.593508 0.732077 0.654181 0.226182
C53   C     C_3   0.364153 0.191389 0.502288 -0.426352
C54   C     C_3   0.431048 0.272616 0.436323 -0.775620
H26   H     H_    0.512050 0.308063 0.466606 0.244348
H27   H     H_    0.427238 0.237878 0.379949 0.257752
H28   H     H_    0.402806 0.333954 0.411489 0.249954
H29   H     H_    0.285137 0.170845 0.468213 0.203220
H30   H     H_    0.367633 0.225646 0.558587 0.207017
C55   C     C_3   0.442795 0.771834 0.666459 -0.420417
C56   C     C_3   0.490231 0.772764 0.762920 -0.754975
H31   H     H_    0.567933 0.773749 0.774453 0.237535
H32   H     H_    0.495410 0.841201 0.785165 0.254866
H33   H     H_    0.440931 0.703259 0.803210 0.276877
H34   H     H_    0.365154 0.766960 0.665428 0.231440
H35   H     H_    0.431850 0.701349 0.643992 0.204418
C57   C     C_3   0.559277 0.202640 0.626512 -0.409964
C58   C     C_3   0.602120 0.161468 0.717012 -0.805407
H36   H     H_    0.540399 0.093213 0.747364 0.257604
H37   H     H_    0.664855 0.140860 0.712891 0.256150
H38   H     H_    0.633962 0.221334 0.759935 0.250240
H39   H     H_    0.621852 0.268631 0.595989 0.188602
H40   H     H_    0.509311 0.234243 0.639487 0.218124

loop_
_geom_bond_atom_site_label_1
_geom_bond_atom_site_label_2
_geom_bond_distance
_ccdc_geom_bond_type
C2    C18   1.474195 S    
C41   C43   1.415834 A    
C12   N3    1.457123 S    
C53   H30   1.106942 S    
C13   C15   1.454566 S    
C35   H17   1.083795 S    
C58   H36   1.111097 S    
C20   C28   1.417357 A    
O7    Cu2   1.931956 S    
C56   H32   1.111273 S    
C54   H26   1.107812 S    
C52   H21   1.110069 S    
C25   C27   1.420561 A    
C24   H5    1.082094 S    
O5    C3    1.297471 A    
O1    C1    1.303011 A    
C7    C12   1.538791 S    
C18   C22   1.395613 A    
C57   H40   1.101792 S    
N1    C37   1.356882 A    
N4    O12   1.300344 A    
C5    C11   1.539005 S    
C36   C38   1.389113 A    
O4    Cu1   1.916030 S    
C39   C41   1.418797 A    
C51   H24   1.109429 S    
C47   C49   1.388141 A    
C57   C58   1.530627 S    
C40   C42   1.418049 A    
C31   C55   1.530815 S    
C7    H1    1.110153 S    
C36   C44   1.399829 A    
C44   C50   1.392509 A    
C46   C47   1.412291 A    
O6    Cu2   1.932269 S    
C55   H34   1.107180 S    
C18   C24   1.396236 A    
C20   C22   1.393201 A    
C36   H18   1.083798 S    
Cu1   N2    2.026727 S    
C6    C13   1.544823 S    
C26   C28   1.424778 A    
Cu2   N1    2.026727 S    
C53   H29   1.100301 S    
C6    C12   1.538809 S    
C33   C51   1.528463 S    
O2    C2    1.304222 A    
C8    C11   1.539015 S    
O2    Cu2   1.921753 S    
C37   H16   1.081435 S    
C56   H31   1.107815 S    
C54   H27   1.110827 S    
C32   C34   1.420954 A    
C31   C33   1.423320 A    
C39   H14   1.076014 S    
C19   H9    1.079141 S    
C41   C45   1.430094 A    
C38   H15   1.081571 S    
C45   C46   1.432642 A    
C7    C13   1.544825 S    
C8    C14   1.545117 S    
O4    C2    1.302354 A    
C49   H11   1.084209 S    
N4    O11   1.300222 A    
C25   C29   1.415453 A    
C43   C49   1.393062 A    
C17   C23   1.396684 A    
C42   C44   1.416526 A    
C51   H25   1.104544 S    
C29   C30   1.401126 A    
C52   H22   1.108442 S    
N3    O9    1.300273 A    
C26   C30   1.419702 A    
O6    C4    1.297623 A    
C53   C54   1.530382 S    
C27   C33   1.423398 A    
C58   H37   1.108839 S    
C28   C34   1.425470 A    
O7    C3    1.297333 A    
C22   H7    1.083318 S    
O8    C4    1.297523 A    
C47   H19   1.076210 S    
C50   H12   1.084262 S    
N3    O10   1.300253 A    
C20   H10   1.075962 S    
C32   C57   1.533544 S    
N2    C40   1.360419 A    
C40   H13   1.074928 S    
O1    Cu1   1.921754 S    
C42   C46   1.431474 A    
C55   C56   1.531322 S    
C54   H28   1.110344 S    
C30   C31   1.425745 A    
C52   H23   1.109877 S    
C5    C7    1.560757 S    
C6    H4    1.110164 S    
C34   C53   1.533392 S    
C35   C43   1.399351 A    
O3    C1    1.304814 A    
O8    Cu1   1.931955 S    
C9    C15   1.198467 T    
O3    Cu2   1.916029 S    
C11   C13   1.528644 S    
C4    C10   1.423566 S    
C12   C14   1.528823 S    
C55   H35   1.110147 S    
C45   C48   1.410341 A    
C19   C27   1.415194 A    
C14   C16   1.455249 S    
C23   C25   1.407120 A    
C24   C26   1.406828 A    
C23   H6    1.079031 S    
C5    C14   1.545142 S    
C5    H3    1.110142 S    
N1    C39   1.360888 A    
C17   C21   1.398015 A    
C3    C9    1.422789 S    
C11   N4    1.457365 S    
C19   C21   1.393752 A    
C58   H38   1.110858 S    
C8    H2    1.110117 S    
C48   H20   1.077262 S    
C29   C32   1.421042 A    
C10   C16   1.198895 T    
C35   C37   1.389178 A    
N2    C38   1.356374 A    
O5    Cu1   1.932271 S    
C6    C8    1.560812 S    
C21   H8    1.083153 S    
C48   C50   1.387542 A    
C51   C52   1.527875 S    
Cu1   Cu2   2.698235 S    
C57   H39   1.104638 S    
C56   H33   1.110683 S    
C1    C17   1.476868 S    
