data_mof_unit_9559.cif
_audit_creation_date              2012-10-26T19:13:23-0400
_audit_creation_method            fapswitch 2.2
_symmetry_space_group_name_H-M    P1
_symmetry_Int_Tables_number       1
_space_group_crystal_system       triclinic
_cell_length_a                    13.455698
_cell_length_b                    13.884144
_cell_length_c                    15.119716
_cell_angle_alpha                 89.419136
_cell_angle_beta                  90.367627
_cell_angle_gamma                 72.622704
_cell_volume                      2695.48580276

loop_
_atom_site_label
_atom_site_type_symbol
_atom_type_description
_atom_site_fract_x
_atom_site_fract_y
_atom_site_fract_z
_atom_type_partial_charge
C1    C     C_R   0.500017 0.499668 0.670164 0.551441
C2    C     C_R   0.814549 0.414007 0.488978 -0.000386
C3    C     C_R   0.535661 0.406719 0.906131 0.303959
C4    C     C_R   0.699964 0.446333 0.494571 0.541179
C5    C     C_R   0.531791 0.407581 0.813978 -0.120622
C6    C     C_R   0.500415 0.499181 0.766801 -0.040077
C7    C     C_R   0.470522 0.590529 0.812515 -0.165018
C8    C     C_R   0.470180 0.590172 0.904370 -0.192733
C9    C     C_R   0.501429 0.498646 0.951710 0.048794
C10   C     C_R   0.550836 0.558729 0.093732 -0.179994
C11   C     C_R   0.549605 0.562355 0.186061 0.239550
C12   C     C_R   0.978897 0.455900 0.485634 0.029582
C13   C     C_R   0.500252 0.501873 0.233426 -0.023022
C14   C     C_R   0.448059 0.443527 0.188167 -0.171258
C15   C     C_R   0.444117 0.444919 0.096066 0.291619
C16   C     C_R   0.500758 0.500335 0.329954 0.561979
C17   C     C_R   0.498628 0.500423 0.048590 -0.005331
C18   C     C_R   0.420788 0.914117 0.452183 -0.167394
C19   C     C_R   0.423819 0.811804 0.454265 -0.016895
C20   C     C_R   0.574736 0.769745 0.545427 0.419821
C21   C     C_R   0.577424 0.870654 0.540111 -0.139005
C22   C     C_R   0.498415 0.945721 0.495602 -0.015031
C23   C     C_R   0.870742 0.482419 0.466128 0.030704
C24   C     C_R   0.545399 0.092006 0.565852 -0.128944
C25   C     C_R   0.550315 0.192457 0.565307 0.431399
C26   C     C_R   0.450614 0.225775 0.432691 -0.002777
C27   C     C_R   0.449730 0.124666 0.428925 -0.163520
C28   C     C_R   0.300038 0.553926 0.498680 0.533960
C29   C     C_R   0.497621 0.055235 0.496292 -0.014772
C30   C     C_R   0.028149 0.700850 0.428759 -0.137609
C31   C     C_R   0.186901 0.584836 0.487343 -0.001099
C32   C     C_R   0.869178 0.314683 0.514064 -0.138639
C33   C     C_R   0.976548 0.285268 0.523972 -0.146912
C34   C     C_R   0.030997 0.530690 0.476109 0.025150
C35   C     C_R   0.030955 0.355095 0.512165 -0.121931
C36   C     C_3   0.554804 0.720072 0.221038 0.002240
C37   C     C_3   0.613313 0.778497 0.274349 -0.368619
C38   C     C_3   0.286754 0.449207 0.038936 -0.011159
C39   C     C_3   0.228930 0.390794 0.984948 -0.358772
C40   C     C_3   0.660268 0.720773 0.679675 -0.012732
C41   C     C_3   0.770037 0.724468 0.699901 -0.392141
C42   C     C_3   0.700580 0.166834 0.651162 -0.029723
C43   C     C_3   0.709837 0.117019 0.742472 -0.402579
C44   C     C_3   0.677119 0.294446 0.969257 -0.014840
C45   C     C_R   0.977356 0.626732 0.439150 0.047630
C46   C     C_3   0.716385 0.192489 0.016025 -0.364073
C47   C     C_R   0.874574 0.646842 0.410676 -0.132211
C48   C     C_R   0.822593 0.575300 0.422526 -0.087734
C49   C     C_R   0.134929 0.513125 0.502616 -0.135518
C50   C     C_R   0.132792 0.679743 0.452122 -0.141665
Cu1   Cu    Cu3+1 0.500000 0.403570 0.500010 0.985033
Cu2   Cu    Cu3+1 0.500000 0.596430 0.499990 0.983936
H1    H     H_    0.172136 0.736089 0.439711 0.115997
H2    H     H_    0.828747 0.259615 0.527385 0.118561
H3    H     H_    0.017752 0.208271 0.543221 0.111259
H4    H     H_    0.745433 0.592889 0.394062 0.174389
H5    H     H_    0.444488 0.661356 0.938677 0.107075
H6    H     H_    0.473765 0.738882 0.246526 0.131502
H7    H     H_    0.552572 0.745262 0.150730 0.112988
H8    H     H_    0.693574 0.763754 0.248735 0.142943
H9    H     H_    0.572333 0.860649 0.269112 0.096585
H10   H     H_    0.617536 0.755135 0.344987 0.169882
H11   H     H_    0.283678 0.519680 0.001504 0.124489
H12   H     H_    0.555509 0.336622 0.779613 0.177017
H13   H     H_    0.246271 0.469209 0.103253 0.116399
H14   H     H_    0.229098 0.320569 0.020873 0.157523
H15   H     H_    0.147098 0.437758 0.973665 0.087772
H16   H     H_    0.267150 0.370791 0.919946 0.170694
H17   H     H_    0.357277 0.967731 0.417281 0.099177
H18   H     H_    0.645973 0.659399 0.720526 0.159005
H19   H     H_    0.602728 0.792523 0.701156 0.092375
H20   H     H_    0.786912 0.785730 0.660767 0.140890
H21   H     H_    0.777609 0.738906 0.771355 0.094555
H22   H     H_    0.827695 0.651361 0.683060 0.169817
H23   H     H_    0.445806 0.662199 0.777307 0.133665
H24   H     H_    0.834166 0.718173 0.378739 0.099287
H25   H     H_    0.577621 0.043615 0.621676 0.090649
H26   H     H_    0.750902 0.217154 0.651690 0.146996
H27   H     H_    0.732810 0.108676 0.600020 0.097619
H28   H     H_    0.791789 0.071199 0.755068 0.095986
H29   H     H_    0.686757 0.175379 0.794127 0.162804
H30   H     H_    0.659409 0.067071 0.747487 0.143433
H31   H     H_    0.411622 0.277976 0.380940 0.129310
H32   H     H_    0.987656 0.774147 0.400286 0.100696
H33   H     H_    0.114069 0.326617 0.521543 0.103857
H34   H     H_    0.594182 0.600116 0.057147 0.117257
H35   H     H_    0.691938 0.352497 0.013442 0.134776
H36   H     H_    0.722075 0.291314 0.907136 0.105754
H37   H     H_    0.703968 0.132527 0.973154 0.151084
H38   H     H_    0.800885 0.175101 0.030863 0.088762
H39   H     H_    0.673968 0.193807 0.079007 0.171813
H40   H     H_    0.408195 0.398429 0.224246 0.129485
H41   H     H_    0.364480 0.788894 0.419193 0.117501
H42   H     H_    0.642270 0.889069 0.570423 0.090746
H43   H     H_    0.412160 0.101531 0.373051 0.100823
H44   H     H_    0.178086 0.443606 0.534877 0.120865
N1    N     N_R   0.500000 0.741310 0.499980 -0.218677
N2    N     N_R   0.500060 0.258650 0.499980 -0.211985
O1    O     O_R   0.499990 0.418570 0.628550 -0.446951
O2    O     O_3   0.390401 0.388424 0.052809 -0.509033
O3    O     O_3   0.652960 0.696901 0.589479 -0.520446
O4    O     O_3   0.596860 0.227739 0.634836 -0.535962
O5    O     O_3   0.569713 0.315376 0.950944 -0.517671
O6    O     O_R   0.499990 0.581440 0.628540 -0.489098
O7    O     O_R   0.650980 0.378820 0.499990 -0.491991
O8    O     O_R   0.650980 0.541690 0.499970 -0.453564
O9    O     O_R   0.500010 0.418560 0.371460 -0.527846
O10   O     O_R   0.500010 0.581430 0.371450 -0.481493
O11   O     O_R   0.349020 0.458310 0.500030 -0.513472
O12   O     O_R   0.349020 0.621180 0.500010 -0.520719
O13   O     O_3   0.606395 0.615652 0.230170 -0.548398

loop_
_geom_bond_atom_site_label_1
_geom_bond_atom_site_label_2
_ccdc_geom_bond_type
C33   H3    S    
C26   H31   S    
C22   C29   S    
C27   C29   A    
C35   H33   S    
C39   H16   S    
C30   C45   A    
C27   H43   S    
C15   O2    S    
C36   H7    S    
C1    O1    A    
C37   H10   S    
C19   N1    A    
C7    C8    A    
C46   H37   S    
C12   C23   A    
C26   C27   A    
C40   H18   S    
C36   C37   S    
C40   H19   S    
C47   H24   S    
C36   H6    S    
C38   C39   S    
C25   O4    S    
C21   H42   S    
C10   C17   A    
Cu2   N1    S    
C2    C32   A    
C18   C19   A    
C24   C29   A    
C16   O9    A    
C41   H22   S    
Cu2   O6    S    
C20   N1    A    
C8    C9    A    
C13   C14   A    
C44   H35   S    
C19   H41   S    
C18   H17   S    
C30   C50   A    
Cu2   O8    S    
C42   H27   S    
Cu1   O11   S    
C21   C22   A    
C31   C49   A    
C42   O4    S    
C32   H2    S    
C44   O5    S    
C44   C46   S    
C45   C47   A    
Cu1   O1    S    
C50   H1    S    
C11   O13   S    
Cu1   Cu2   S    
C24   C25   A    
C38   O2    S    
C7    H23   S    
C20   O3    S    
C28   O12   A    
C43   H28   S    
C4    O8    A    
C1    C6    S    
C5    H12   S    
C2    C4    S    
C3    C9    A    
C8    H5    S    
C25   N2    A    
C47   C48   A    
C38   H13   S    
Cu2   O12   S    
Cu1   O7    S    
C36   O13   S    
C34   C45   A    
C12   C35   A    
C1    O6    A    
C14   H40   S    
C26   N2    A    
C41   H20   S    
C46   H38   S    
C9    C17   S    
C40   C41   S    
C42   H26   S    
C43   H29   S    
C39   H14   S    
C42   C43   S    
C31   C50   A    
C12   C34   A    
C38   H11   S    
C3    O5    S    
C48   H4    S    
C10   H34   S    
C34   C49   A    
C23   C48   A    
C18   C22   A    
C39   H15   S    
C28   C31   S    
C40   O3    S    
C3    C5    A    
C37   H9    S    
C15   C17   A    
C6    C7    A    
C46   H39   S    
C28   O11   A    
C4    O7    A    
C32   C33   A    
C11   C13   A    
C5    C6    A    
Cu1   N2    S    
C33   C35   A    
C49   H44   S    
C30   H32   S    
C37   H8    S    
C10   C11   A    
C16   O10   A    
C41   H21   S    
C24   H25   S    
C20   C21   A    
Cu2   O10   S    
Cu1   O9    S    
C13   C16   S    
C2    C23   A    
C43   H30   S    
C14   C15   A    
C44   H36   S    
