data_mof_unit_6549.cif
_audit_creation_date              2012-12-11T14:11:01-0500
_audit_creation_method            fapswitch 2.2
_symmetry_space_group_name_H-M    P1
_symmetry_Int_Tables_number       1
_space_group_crystal_system       triclinic
_cell_length_a                    19.56856
_cell_length_b                    17.25716
_cell_length_c                    15.542246
_cell_angle_alpha                 90.007768
_cell_angle_beta                  52.683732
_cell_angle_gamma                 90.014677
_cell_volume                      4174.20428789

loop_
_atom_site_label
_atom_site_type_symbol
_atom_type_description
_atom_site_fract_x
_atom_site_fract_y
_atom_site_fract_z
_atom_type_partial_charge
C1    C     C_R   0.379623 0.198313 0.988152 -0.049455
C2    C     C_3   0.679872 0.741272 0.448648 -0.268412
C3    C     C_3   0.773952 0.203613 0.422461 -0.327035
C4    C     C_3   0.318768 0.743167 0.551708 -0.233537
C5    C     C_3   0.730181 0.708018 0.573907 -0.280756
C6    C     C_3   0.180576 0.242020 0.448196 -0.265218
C7    C     C_3   0.270005 0.706897 0.425515 -0.282450
C8    C     C_3   0.816396 0.245678 0.553566 -0.231426
C9    C     C_2   0.180192 0.747886 0.106865 -0.111948
C10   C     C_2   0.707915 0.314518 0.052070 -0.136553
C11   C     C_2   0.819715 0.747833 0.893279 -0.111163
C12   C     C_R   0.662866 0.826384 0.948282 -0.071362
C13   C     C_2   0.291945 0.314406 0.948199 -0.138410
C14   C     C_2   0.680303 0.247845 0.106737 -0.111631
C15   C     C_2   0.207927 0.814488 0.052012 -0.136062
C16   C     C_2   0.319688 0.247822 0.893313 -0.112873
C17   C     C_2   0.791951 0.814405 0.948194 -0.135911
C18   C     C_R   0.394208 0.802109 0.211658 0.420547
C19   C     C_R   0.648274 0.175543 0.777658 0.481183
C20   C     C_R   0.605679 0.802168 0.788076 0.419105
C21   C     C_R   0.351418 0.175198 0.222474 0.489092
C22   C     C_R   0.894482 0.302001 0.211315 0.421517
C23   C     C_R   0.620581 0.198286 0.011625 -0.049839
C24   C     C_R   0.148402 0.675401 0.777630 0.488167
C25   C     C_R   0.105831 0.302206 0.788023 0.418834
C26   C     C_R   0.851272 0.675054 0.222550 0.489662
C27   C     C_R   0.328135 0.911394 0.953330 0.050165
C28   C     C_R   0.624931 0.114327 0.113627 0.022158
C29   C     C_R   0.671822 0.911351 0.046760 0.052204
C30   C     C_R   0.375096 0.114310 0.886338 0.021590
C31   C     C_R   0.828116 0.411415 0.953376 0.050371
C32   C     C_R   0.124886 0.614324 0.113691 0.021518
C33   C     C_R   0.171822 0.411351 0.046758 0.051917
C34   C     C_R   0.337074 0.826434 0.051794 -0.073916
C35   C     C_R   0.875107 0.614311 0.886325 0.021453
C36   C     C_R   0.357092 0.079999 0.316236 -0.153401
C37   C     C_R   0.599557 0.894443 0.692376 -0.197160
C38   C     C_R   0.642983 0.080088 0.683859 -0.138275
C39   C     C_R   0.400401 0.894206 0.307571 -0.220694
C40   C     C_R   0.857083 0.579905 0.316234 -0.154665
C41   C     C_R   0.099693 0.394484 0.692311 -0.198940
C42   C     C_R   0.142834 0.580222 0.683732 -0.145803
C43   C     C_R   0.900626 0.393979 0.307427 -0.221095
C44   C     C_R   0.355626 0.189103 0.922525 0.127727
C45   C     C_R   0.879687 0.698327 0.988074 -0.048127
C46   C     C_R   0.715635 0.852363 0.973056 0.091210
C47   C     C_R   0.644489 0.189102 0.077355 0.127630
C48   C     C_R   0.284286 0.852436 0.027082 0.091408
C49   C     C_R   0.855671 0.689115 0.922470 0.127612
C50   C     C_R   0.215633 0.352363 0.973057 0.091257
C51   C     C_R   0.144325 0.689131 0.077563 0.127809
C52   C     C_R   0.784269 0.352465 0.027146 0.091031
C53   C     C_R   0.378406 0.818796 0.308529 0.062960
C54   C     C_R   0.691636 0.141177 0.676586 0.016981
C55   C     C_R   0.621456 0.819006 0.691123 0.067288
C56   C     C_R   0.162862 0.326381 0.948290 -0.073064
C57   C     C_R   0.308415 0.140897 0.323485 0.005863
C58   C     C_R   0.878878 0.318499 0.308098 0.064700
C59   C     C_R   0.191397 0.641266 0.676578 0.005081
C60   C     C_R   0.121729 0.319097 0.691023 0.066490
C61   C     C_R   0.808307 0.640717 0.323556 0.005609
C62   C     C_3   0.189979 0.151277 0.539349 -0.072989
C63   C     C_3   0.720256 0.798038 0.482709 -0.056355
C64   C     C_3   0.814185 0.151036 0.460939 -0.053448
C65   C     C_3   0.278251 0.798430 0.516359 -0.071729
C66   C     C_3   0.690214 0.651064 0.539581 -0.070794
C67   C     C_R   0.120338 0.698330 0.011932 -0.049109
C68   C     C_3   0.221061 0.298265 0.482675 -0.062526
C69   C     C_3   0.310100 0.651293 0.461107 -0.076147
C70   C     C_3   0.775761 0.297802 0.515371 -0.070588
C71   C     C_3   0.620779 0.710046 0.566703 0.530704
C72   C     C_3   0.288799 0.239462 0.457775 0.534567
C73   C     C_3   0.378712 0.711261 0.434154 0.528414
C74   C     C_3   0.711486 0.235698 0.538367 0.516526
C75   C     C_3   0.121016 0.210725 0.566172 0.532439
C76   C     C_3   0.788461 0.739709 0.457535 0.535286
C77   C     C_3   0.879555 0.213926 0.436429 0.541867
C78   C     C_R   0.837067 0.326452 0.051839 -0.073323
C79   C     C_3   0.210819 0.739121 0.541633 0.519789
C80   C     C_3   0.661391 0.767845 0.598911 -0.030731
C81   C     C_3   0.249049 0.182055 0.423659 -0.022386
C82   C     C_3   0.338031 0.767633 0.400611 -0.027860
C83   C     C_3   0.751510 0.182128 0.576138 -0.021991
C84   C     C_3   0.161733 0.267998 0.598804 -0.031160
C85   C     C_3   0.748828 0.681793 0.423817 -0.023268
C86   C     C_3   0.838693 0.267171 0.399993 -0.026187
C87   C     C_3   0.250652 0.682566 0.576502 -0.024338
C88   C     C_3   0.230047 0.207712 0.574094 -0.279971
Cl1   Cl    Cl    0.415708 0.708716 0.155402 -0.611281
Cl2   Cl    Cl    0.400368 0.260057 0.386783 -0.615774
Cl3   Cl    Cl    0.490909 0.693406 0.359005 -0.594273
Cl4   Cl    Cl    0.599708 0.252429 0.605626 -0.626920
Cl5   Cl    Cl    0.008861 0.192358 0.641907 -0.586229
Cl6   Cl    Cl    0.899946 0.760933 0.386123 -0.612355
Cl7   Cl    Cl    0.992041 0.200149 0.364978 -0.588518
Cl8   Cl    Cl    0.099246 0.759491 0.612497 -0.622178
Cl9   Cl    Cl    0.659533 0.272732 0.800653 -0.707027
Cl10  Cl    Cl    0.584482 0.708682 0.843972 -0.611213
Cl11  Cl    Cl    0.338525 0.272010 0.199873 -0.707021
Cl12  Cl    Cl    0.916887 0.208847 0.154154 -0.616107
Cl13  Cl    Cl    0.160992 0.772171 0.800620 -0.705802
Cl14  Cl    Cl    0.084562 0.208701 0.843885 -0.611353
Cl15  Cl    Cl    0.837896 0.771735 0.200053 -0.708260
Cl16  Cl    Cl    0.508703 0.691072 0.642922 -0.593238
H1    H     H_    0.395363 0.253244 0.004568 0.179643
H2    H     H_    0.592331 0.922493 0.636212 0.129005
H3    H     H_    0.654032 0.045457 0.618711 0.127695
H4    H     H_    0.406717 0.922175 0.364677 0.146670
H5    H     H_    0.845805 0.545209 0.381556 0.140927
H6    H     H_    0.092529 0.422516 0.636080 0.130726
H7    H     H_    0.154156 0.545656 0.618277 0.140913
H8    H     H_    0.906558 0.421909 0.364902 0.147072
H9    H     H_    0.250414 0.193378 0.625117 0.197371
H10   H     H_    0.659378 0.754489 0.397478 0.224669
H11   H     H_    0.756106 0.186055 0.369749 0.203357
H12   H     H_    0.674689 0.778692 0.896540 0.153060
H13   H     H_    0.338629 0.757683 0.603224 0.221236
H14   H     H_    0.750868 0.694105 0.624699 0.197222
H15   H     H_    0.160370 0.255651 0.396821 0.226381
H16   H     H_    0.250060 0.691813 0.374243 0.197271
H17   H     H_    0.834349 0.262643 0.606362 0.221653
H18   H     H_    0.200468 0.729283 0.154867 0.137813
H19   H     H_    0.685832 0.333935 0.006420 0.167051
H20   H     H_    0.799437 0.729226 0.845271 0.138271
H21   H     H_    0.313942 0.333761 0.993979 0.167498
H22   H     H_    0.700620 0.229199 0.154679 0.138018
H23   H     H_    0.605123 0.253207 0.994887 0.179670
H24   H     H_    0.185917 0.833840 0.006254 0.167222
H25   H     H_    0.299411 0.229211 0.845306 0.138793
H26   H     H_    0.813939 0.833750 0.993989 0.167096
H27   H     H_    0.361185 0.944087 0.807862 0.117337
H28   H     H_    0.277792 0.995208 0.917862 0.125712
H29   H     H_    0.552915 0.048599 0.250074 0.115027
H30   H     H_    0.648111 0.080642 0.218745 0.105921
H31   H     H_    0.722157 0.995251 0.082172 0.125741
H32   H     H_    0.638811 0.944093 0.192197 0.116588
H33   H     H_    0.447137 0.048590 0.749890 0.114610
H34   H     H_    0.325197 0.778755 0.103561 0.152819
H35   H     H_    0.351923 0.080550 0.781225 0.108124
H36   H     H_    0.861143 0.444078 0.807908 0.117752
H37   H     H_    0.777770 0.495222 0.917901 0.126160
H38   H     H_    0.052901 0.548519 0.250067 0.115085
H39   H     H_    0.148071 0.580600 0.218793 0.106863
H40   H     H_    0.222134 0.495264 0.082185 0.125697
H41   H     H_    0.138832 0.444054 0.192198 0.117871
H42   H     H_    0.947113 0.548555 0.749910 0.114155
H43   H     H_    0.851910 0.580542 0.781238 0.108303
H44   H     H_    0.128821 0.066076 0.651958 0.197094
H45   H     H_    0.895505 0.753257 0.004399 0.179539
H46   H     H_    0.145170 0.046391 0.534945 0.156918
H47   H     H_    0.794864 0.881735 0.371275 0.214000
H48   H     H_    0.689591 0.900187 0.448545 0.115335
H49   H     H_    0.887044 0.067290 0.350041 0.200337
H50   H     H_    0.783937 0.043111 0.441651 0.110970
H51   H     H_    0.215588 0.882782 0.630911 0.212877
H52   H     H_    0.228516 0.901824 0.516183 0.140668
H53   H     H_    0.629818 0.565898 0.652367 0.196656
H54   H     H_    0.645877 0.545776 0.535635 0.154034
H55   H     H_    0.296391 0.381887 0.371538 0.215616
H56   H     H_    0.174680 0.278679 0.896567 0.153330
H57   H     H_    0.191258 0.400905 0.448455 0.121167
H58   H     H_    0.371802 0.565622 0.349363 0.196196
H59   H     H_    0.355211 0.546974 0.466753 0.163255
H60   H     H_    0.707601 0.381776 0.629022 0.211723
H61   H     H_    0.723926 0.398707 0.511700 0.141439
H62   H     H_    0.104512 0.753258 0.995664 0.179534
H63   H     H_    0.825202 0.278784 0.103635 0.152746
H64   H     H_    0.345769 0.045350 0.381619 0.140344
N1    N     N_R   0.408680 0.130810 0.995780 -0.068459
N2    N     N_R   0.578590 0.132790 0.846380 -0.084616
N3    N     N_R   0.578590 0.867210 0.846380 -0.088407
N4    N     N_R   0.421410 0.132790 0.153620 -0.084419
N5    N     N_R   0.921410 0.367210 0.153620 -0.088051
N6    N     N_R   0.078590 0.632790 0.846380 -0.084611
N7    N     N_R   0.078590 0.367210 0.846380 -0.088453
N8    N     N_R   0.921410 0.632790 0.153620 -0.084463
N9    N     N_R   0.403840 0.921910 0.935760 -0.070387
N10   N     N_R   0.596160 0.078090 0.064240 -0.072314
N11   N     N_R   0.596160 0.921910 0.064240 -0.069373
N12   N     N_R   0.591320 0.869190 0.004220 -0.042973
N13   N     N_R   0.403840 0.078090 0.935760 -0.072874
N14   N     N_R   0.903840 0.421910 0.935760 -0.070108
N15   N     N_R   0.096160 0.578090 0.064240 -0.072484
N16   N     N_R   0.096160 0.421910 0.064240 -0.069297
N17   N     N_R   0.903840 0.578090 0.935760 -0.072655
N18   N     N_R   0.426250 0.076100 0.213650 -0.067026
N19   N     N_R   0.573750 0.923900 0.786350 -0.073819
N20   N     N_R   0.573750 0.076100 0.786350 -0.068003
N21   N     N_R   0.426250 0.923900 0.213650 -0.072809
N22   N     N_R   0.926250 0.576100 0.213650 -0.066936
N23   N     N_R   0.591320 0.130810 0.004220 -0.067951
N24   N     N_R   0.073750 0.423900 0.786350 -0.074339
N25   N     N_R   0.073750 0.576100 0.786350 -0.068180
N26   N     N_R   0.926250 0.423900 0.213650 -0.072803
N27   N     N_3   0.305843 0.940971 0.887801 -0.195855
N28   N     N_3   0.595383 0.095392 0.220876 -0.182056
N29   N     N_3   0.694137 0.940997 0.112246 -0.196801
N30   N     N_3   0.404646 0.095348 0.779095 -0.180327
N31   N     N_3   0.805811 0.440980 0.887856 -0.195814
N32   N     N_3   0.095339 0.595332 0.220922 -0.182712
N33   N     N_3   0.194146 0.440997 0.112234 -0.196312
N34   N     N_R   0.408680 0.869190 0.995780 -0.043268
N35   N     N_3   0.904643 0.595328 0.779093 -0.181917
N36   N     N_3   0.174073 0.069475 0.567898 -0.202810
N37   N     N_3   0.738630 0.879333 0.450752 -0.194057
N38   N     N_3   0.835923 0.069646 0.432567 -0.162403
N39   N     N_3   0.259707 0.879958 0.546747 -0.200518
N40   N     N_3   0.674858 0.569269 0.568273 -0.202827
N41   N     N_3   0.240015 0.379583 0.450915 -0.189814
N42   N     N_3   0.326383 0.569370 0.433367 -0.196653
N43   N     N_3   0.753733 0.379099 0.545132 -0.199964
N44   N     N_R   0.908680 0.630810 0.995780 -0.068560
N45   N     N_R   0.091320 0.369190 0.004220 -0.042762
N46   N     N_R   0.091320 0.630810 0.004220 -0.068474
N47   N     N_R   0.908680 0.369190 0.995780 -0.042952
N48   N     N_R   0.421410 0.867210 0.153620 -0.088077
Ni1   Ni    Ni4+2 0.500000 0.131570 0.000000 0.275426
Ni2   Ni    Ni4+2 0.500000 0.868430 0.000000 0.322949
Ni3   Ni    Ni4+2 1.000000 0.631570 0.000000 0.274917
Ni4   Ni    Ni4+2 0.000000 0.368430 0.000000 0.322510
Ni5   Ni    Ni4+2 0.488900 0.000000 0.862310 0.198257
Ni6   Ni    Ni4+2 0.511100 0.000000 0.137690 0.198711
Ni7   Ni    Ni4+2 0.988900 0.500000 0.862310 0.197554
Ni8   Ni    Ni4+2 0.011100 0.500000 0.137690 0.198475

loop_
_geom_bond_atom_site_label_1
_geom_bond_atom_site_label_2
_ccdc_geom_bond_type
C27   C48   A    
N1    Ni1   S    
C71   Cl16  S    
C28   C47   A    
C65   C79   S    
N14   N47   A    
C8    C83   S    
C2    H10   S    
C64   C77   S    
C73   C82   S    
C32   N15   A    
N12   Ni2   S    
C11   H20   S    
C9    C51   S    
C19   N2    A    
H46   N36   S    
C74   C83   S    
C10   C52   S    
N23   Ni1   S    
C66   C85   S    
C23   N23   A    
C19   Cl9   S    
H35   N30   S    
C6    C75   S    
C32   C51   A    
C4    C87   S    
C39   C53   A    
C3    C64   S    
H39   N32   S    
H44   N36   S    
C78   H63   S    
C43   N26   A    
N26   Ni8   S    
H36   N31   S    
N48   Ni2   S    
H51   N39   S    
N46   Ni3   S    
C24   C59   A    
C4    C65   S    
C21   Cl11  S    
C25   Cl14  S    
C63   C76   S    
H60   N43   S    
C36   H64   S    
C72   Cl2   S    
C2    C85   S    
C24   Cl13  S    
N7    Ni4   S    
C74   Cl4   S    
C88   H9    S    
H52   N39   S    
N5    Ni4   S    
C70   C74   S    
C71   C80   S    
C18   C53   A    
C76   Cl6   S    
H31   N29   S    
C65   C82   S    
H59   N42   S    
C38   H3    S    
N4    N18   A    
N15   Ni8   S    
C34   C48   A    
N8    Ni3   S    
C35   C49   A    
H28   N27   S    
C69   C73   S    
C31   N31   S    
C25   C60   A    
C45   C49   A    
C16   C44   S    
C36   N18   A    
C72   C81   S    
C43   C58   A    
C35   N17   A    
N2    Ni1   S    
C13   H21   S    
N20   Ni5   S    
N15   N46   A    
H30   N28   S    
N18   Ni6   S    
C24   N6    A    
C40   H5    S    
C6    C81   S    
C3    C86   S    
N10   N23   A    
C70   N43   S    
C30   C44   A    
C8    H17   S    
H53   N40   S    
C15   C48   S    
C20   C55   A    
C52   C78   A    
C68   N41   S    
C58   C86   S    
C79   C87   S    
C54   C83   S    
C72   C88   S    
N45   Ni4   S    
C63   C80   S    
C39   H4    S    
C18   N48   A    
H41   N33   S    
C45   N44   A    
C23   C47   A    
N11   Ni6   S    
N13   Ni5   S    
C68   C84   S    
C27   N9    A    
H48   N37   S    
C22   Cl12  S    
C17   C46   S    
C73   Cl3   S    
C12   C46   A    
C10   H19   S    
C10   C14   D    
N7    N24   A    
N21   Ni6   S    
H61   N43   S    
H58   N42   S    
C33   C50   A    
C62   C88   S    
C34   H34   S    
C50   C56   A    
C40   C61   A    
N11   N12   A    
C53   C82   S    
C3    C74   S    
C78   N47   A    
C42   N25   A    
C42   H7    S    
C64   C83   S    
C21   C57   A    
H42   N35   S    
C11   C49   S    
N21   N48   A    
N22   Ni8   S    
C26   Cl15  S    
C66   N40   S    
C25   N7    A    
C1    C44   A    
N8    N22   A    
C66   C71   S    
C38   C54   A    
C26   N8    A    
C68   C72   S    
N1    N13   A    
C6    C68   S    
N24   Ni7   S    
C33   N16   A    
C9    H18   S    
N14   Ni7   S    
N17   N44   A    
C20   Cl10  S    
C51   C67   A    
H47   N37   S    
C5    C80   S    
C16   H25   S    
C62   N36   S    
C4    C73   S    
H50   N38   S    
C61   C85   S    
C19   C54   A    
C30   N30   S    
C62   C81   S    
C77   C86   S    
C36   C57   A    
C29   N29   S    
C41   H6    S    
H32   N29   S    
C31   N14   A    
C63   N37   S    
C8    C77   S    
C30   N13   A    
C57   C81   S    
C4    H13   S    
C27   N27   S    
C43   H8    S    
C2    C71   S    
C70   C86   S    
C6    H15   S    
C1    N1    A    
C22   N5    A    
C2    C63   S    
C75   Cl5   S    
C7    C79   S    
C22   C58   A    
N16   Ni8   S    
C11   C17   D    
C41   N24   A    
C12   N12   A    
C17   H26   S    
C18   Cl1   S    
H38   N32   S    
C7    H16   S    
C26   C61   A    
H27   N27   S    
C84   C88   S    
C41   C60   A    
C5    C66   S    
C20   N3    A    
C69   C87   S    
C42   C59   A    
C7    C69   S    
C14   C47   S    
C65   N39   S    
N44   Ni3   S    
C21   N4    A    
N19   Ni5   S    
C29   C46   A    
C23   H23   S    
C8    C70   S    
C14   H22   S    
C31   C52   A    
N3    N19   A    
C5    H14   S    
C15   H24   S    
H54   N40   S    
N34   Ni2   S    
C5    C76   S    
H43   N35   S    
C9    C15   D    
N25   Ni7   S    
C37   H2    S    
C32   N32   S    
C3    H11   S    
N47   Ni4   S    
C29   N11   A    
H55   N41   S    
C55   C80   S    
C60   C84   S    
C35   N35   S    
N16   N45   A    
C37   N19   A    
H57   N41   S    
C34   N34   A    
H29   N28   S    
C38   N20   A    
C33   N33   S    
C13   C50   S    
C28   N28   S    
C77   Cl7   S    
C45   H45   S    
C75   C84   S    
C59   C87   S    
N3    Ni2   S    
C56   N45   A    
N4    Ni1   S    
H49   N38   S    
C37   C55   A    
C79   Cl8   S    
C7    C82   S    
C40   N22   A    
H33   N30   S    
N6    Ni3   S    
N6    N25   A    
C56   H56   S    
N17   Ni7   S    
C13   C16   D    
N2    N20   A    
N5    N26   A    
C39   N21   A    
C64   N38   S    
N9    N34   A    
N10   Ni6   S    
C67   N46   A    
C69   N42   S    
H37   N31   S    
N9    Ni5   S    
C28   N10   A    
C76   C85   S    
C67   H62   S    
C62   C75   S    
C1    H1    S    
H40   N33   S    
C12   H12   S    
