data_mof_unit_16358.cif
_audit_creation_date              2012-12-10T16:44:39-0500
_audit_creation_method            fapswitch 2.2
_symmetry_space_group_name_H-M    P1
_symmetry_Int_Tables_number       1
_space_group_crystal_system       triclinic
_cell_length_a                    14.995677
_cell_length_b                    8.728362
_cell_length_c                    7.467361
_cell_angle_alpha                 102.147852
_cell_angle_beta                  94.019769
_cell_angle_gamma                 93.622122
_cell_volume                      950.10127633

loop_
_atom_site_label
_atom_site_type_symbol
_atom_type_description
_atom_site_fract_x
_atom_site_fract_y
_atom_site_fract_z
_atom_type_partial_charge
C1    C     C_R   0.497103 0.200101 0.453991 0.877390
C2    C     C_R   0.499568 0.799438 0.546150 0.876512
C3    C     C_R   0.022956 0.286198 0.220523 0.366260
C4    C     C_R   0.982027 0.790489 0.665844 0.387583
C5    C     C_2   0.496242 0.032772 0.427993 -0.393255
C6    C     C_2   0.497418 0.966394 0.572080 -0.382803
C7    C     C_R   0.328984 0.486603 0.500252 0.790847
C8    C     C_R   0.671283 0.511568 0.498850 0.782317
C9    C     C_R   0.824569 0.657623 0.596416 0.072431
C10   C     C_R   0.175589 0.362710 0.377810 0.088382
C11   C     C_R   0.768723 0.527250 0.491978 -0.094960
C12   C     C_R   0.232012 0.480657 0.500908 -0.103901
C13   C     C_R   0.804218 0.410928 0.367659 -0.215679
C14   C     C_R   0.197094 0.606913 0.611579 -0.231798
C15   C     C_R   0.896157 0.407287 0.358708 -0.035556
C16   C     C_R   0.106385 0.629591 0.592387 -0.048283
C17   C     C_R   0.954440 0.526491 0.473573 -0.093727
C18   C     C_R   0.047753 0.513167 0.475418 -0.096555
C19   C     C_R   0.919652 0.659886 0.582640 -0.074915
C20   C     C_R   0.082414 0.384219 0.359055 -0.085226
C21   C     C_R   0.930311 0.288894 0.230137 0.392816
C22   C     C_R   0.074432 0.772785 0.676700 0.415326
Cu1   Cu    Cu3+1 0.510010 0.517380 0.684380 0.935670
Cu2   Cu    Cu3+1 0.489990 0.482620 0.315620 0.933024
H1    H     H_    0.758674 0.319681 0.280574 0.187136
H2    H     H_    0.242380 0.690607 0.709281 0.179426
H3    H     H_    0.495231 0.963633 0.288389 0.180914
H4    H     H_    0.498579 0.035556 0.711707 0.179491
H5    H     H_    0.429967 0.377115 0.949511 0.215415
H6    H     H_    0.570058 0.622861 0.050456 0.220640
N1    N     N_2   0.474890 0.456420 0.038520 -0.221375
N2    N     N_2   0.525110 0.543580 0.961480 -0.213863
O1    O     O_R   0.506510 0.286130 0.619770 -0.581459
O2    O     O_R   0.493490 0.713870 0.380230 -0.584529
O3    O     O_R   0.489600 0.256770 0.308360 -0.591921
O4    O     O_R   0.510400 0.743230 0.691640 -0.588710
O5    O     O_R   0.378710 0.514640 0.655720 -0.593649
O6    O     O_R   0.621290 0.485360 0.344280 -0.586253
O7    O     O_R   0.361800 0.485290 0.344300 -0.585705
O8    O     O_R   0.638200 0.514710 0.655700 -0.580547
C23   C     C_3   0.780815 0.790709 0.715566 -0.365623
C24   C     C_3   0.737939 0.895496 0.597528 -0.343870
C25   C     C_3   0.716909 0.053033 0.712774 -0.776552
H7    H     H_    0.671602 0.034724 0.819129 0.248457
H8    H     H_    0.779664 0.121201 0.779831 0.301095
H9    H     H_    0.683752 0.122581 0.622586 0.236051
H10   H     H_    0.782587 0.917366 0.492602 0.211605
H11   H     H_    0.675510 0.833780 0.521349 0.200819
H12   H     H_    0.729409 0.745164 0.794517 0.184561
H13   H     H_    0.828391 0.858607 0.826040 0.252342
C26   C     C_3   0.208878 0.198697 0.320834 -0.387115
C27   C     C_3   0.256340 0.165373 0.142233 -0.281579
C28   C     C_3   0.283063 0.996217 0.101738 -0.788874
H14   H     H_    0.327177 0.974987 0.218151 0.236834
H15   H     H_    0.222708 0.911916 0.080434 0.287336
H16   H     H_    0.320137 0.974535 0.976476 0.233846
H17   H     H_    0.213176 0.183927 0.024073 0.265841
H18   H     H_    0.318119 0.242894 0.152704 0.228717
H19   H     H_    0.256150 0.179097 0.433794 0.147849
H20   H     H_    0.151824 0.108640 0.309418 0.209995
O9    O     O_3   0.873352 0.189585 0.095432 -0.549858
C29   C     C_3   0.844777 0.057047 0.162670 -0.352520
H21   H     H_    0.829036 0.086984 0.308536 0.123251
H22   H     H_    0.895808 0.969483 0.143086 0.195549
H23   H     H_    0.781049 0.003091 0.084497 0.179259
O10   O     O_3   0.132366 0.900467 0.766864 -0.538801
C30   C     C_3   0.184253 0.959243 0.640587 -0.349453
H24   H     H_    0.254955 0.931480 0.658594 0.165482
H25   H     H_    0.185551 0.088915 0.672331 0.163992
H26   H     H_    0.158922 0.915999 0.493342 0.143206
O11   O     O_3   0.054051 0.204849 0.061189 -0.515601
C31   C     C_3   0.058267 0.308293 0.938684 -0.202829
H27   H     H_    0.101690 0.417949 0.999162 0.124028
H28   H     H_    0.990145 0.337552 0.894393 0.172650
H29   H     H_    0.088642 0.250713 0.814301 0.171095
O12   O     O_3   0.955370 0.940402 0.722942 -0.516038
C32   C     C_3   0.958001 0.017889 0.575129 -0.254087
H30   H     H_    0.931946 0.940003 0.441686 0.109290
H31   H     H_    0.026833 0.064649 0.561983 0.156225
H32   H     H_    0.916537 0.119657 0.602674 0.176512

loop_
_geom_bond_atom_site_label_1
_geom_bond_atom_site_label_2
_ccdc_geom_bond_type
C23   C24   S    
C1    O1    A    
C32   H30   S    
C1    C5    S    
C5    C6    D    
C32   H32   S    
Cu1   O8    S    
Cu2   O7    S    
C22   O10   S    
C29   H22   S    
C5    H3    S    
C4    C19   A    
C9    C19   A    
C6    H4    S    
C10   C20   A    
Cu1   O1    S    
Cu2   O6    S    
Cu1   Cu2   S    
C21   O9    S    
C9    C11   A    
C2    O2    A    
C28   H15   S    
O10   C30   S    
C13   H1    S    
C2    C6    S    
C8    O6    A    
C31   H29   S    
C10   C26   S    
C23   H12   S    
C32   H31   S    
C7    C12   S    
C27   H18   S    
Cu2   O3    S    
C30   H24   S    
O12   C32   S    
C31   H28   S    
Cu1   O5    S    
Cu2   O2    S    
C26   C27   S    
C30   H25   S    
C3    O11   S    
C25   H7    S    
C29   H21   S    
C4    C22   A    
N1    N2    D    
C17   C18   A    
C7    O5    A    
C3    C20   A    
C24   H11   S    
C14   H2    S    
C25   H8    S    
C10   C12   A    
C12   C14   A    
C13   C15   A    
C14   C16   A    
C3    C21   A    
C26   H19   S    
C24   C25   S    
C23   H13   S    
C27   C28   S    
C1    O3    A    
C28   H16   S    
C2    O4    A    
C15   C17   A    
C16   C22   A    
C29   H23   S    
C31   H27   S    
C28   H14   S    
C9    C23   S    
C30   H26   S    
Cu1   N2    S    
Cu2   N1    S    
O11   C31   S    
H5    N1    S    
H6    N2    S    
C11   C13   A    
C8    C11   S    
C17   C19   A    
C18   C20   A    
C24   H10   S    
O9    C29   S    
C25   H9    S    
C4    O12   S    
C27   H17   S    
C15   C21   A    
C16   C18   A    
Cu1   O4    S    
C7    O7    A    
C26   H20   S    
C8    O8    A    
