data_mof_unit_51500.cif
_audit_creation_date              2012-12-10T17:12:14-0500
_audit_creation_method            fapswitch 2.2
_symmetry_space_group_name_H-M    P1
_symmetry_Int_Tables_number       1
_space_group_crystal_system       triclinic
_cell_length_a                    25.915647
_cell_length_b                    25.85506
_cell_length_c                    22.20002
_cell_angle_alpha                 90.093085
_cell_angle_beta                  54.306894
_cell_angle_gamma                 90.095907
_cell_volume                      12080.8772143

loop_
_atom_site_label
_atom_site_type_symbol
_atom_type_description
_atom_site_fract_x
_atom_site_fract_y
_atom_site_fract_z
_atom_type_partial_charge
C1    C     C_R   0.849474 0.750001 0.301027 0.821589
C2    C     C_R   0.508223 0.263487 0.428837 0.068382
C3    C     C_R   0.251181 0.946169 0.500904 -0.206901
C4    C     C_R   0.805300 0.026781 0.450926 0.003443
C5    C     C_R   0.804858 0.972582 0.451108 0.002832
C6    C     C_R   0.305362 0.526855 0.451351 0.003425
C7    C     C_R   0.304964 0.472656 0.451357 0.002675
C8    C     C_R   0.747701 0.946099 0.502777 -0.219832
C9    C     C_R   0.748037 0.053804 0.500777 -0.213668
C10   C     C_R   0.247752 0.446114 0.502705 -0.219842
C11   C     C_R   0.247983 0.553820 0.500860 -0.213226
C12   C     C_R   0.690470 0.972820 0.555001 0.306058
C13   C     C_R   0.009277 0.240576 0.426918 0.067871
C14   C     C_R   0.689733 0.027540 0.550410 0.243499
C15   C     C_R   0.190402 0.472788 0.554674 0.306756
C16   C     C_R   0.189636 0.527509 0.550128 0.242672
C17   C     C_R   0.746333 0.472910 0.449239 0.004876
C18   C     C_R   0.747426 0.527099 0.448616 -0.017551
C19   C     C_R   0.245735 0.973191 0.449544 0.002832
C20   C     C_R   0.245748 0.027387 0.449986 0.004834
C21   C     C_R   0.752198 0.527219 0.556877 0.295018
C22   C     C_R   0.757338 0.472464 0.552716 0.232285
C23   C     C_R   0.252911 0.027178 0.556455 0.293350
C24   C     C_R   0.008868 0.760434 0.427375 0.072720
C25   C     C_R   0.257942 0.972411 0.552141 0.232985
C26   C     C_R   0.745055 0.553640 0.394557 -0.253326
C27   C     C_R   0.741397 0.446383 0.396983 -0.284789
C28   C     C_R   0.240928 0.054239 0.397943 -0.280341
C29   C     C_R   0.240923 0.946951 0.397006 -0.282181
C30   C     C_R   0.741105 0.527307 0.342157 0.383721
C31   C     C_R   0.739218 0.472668 0.343414 0.314082
C32   C     C_R   0.236641 0.028259 0.345652 0.333669
C33   C     C_R   0.236070 0.973618 0.345587 0.321805
C34   C     C_R   0.748200 0.889996 0.501661 0.929408
C35   C     C_R   0.564078 0.741230 0.426615 0.097253
C36   C     C_R   0.749305 0.109943 0.500466 0.927448
C37   C     C_R   0.248305 0.390004 0.501567 0.929529
C38   C     C_R   0.249199 0.609951 0.500560 0.927269
C39   C     C_R   0.890659 0.750770 0.498970 0.806305
C40   C     C_R   0.890770 0.249219 0.498758 0.813800
C41   C     C_R   0.390571 0.250643 0.499159 0.805032
C42   C     C_R   0.390792 0.749177 0.498704 0.815210
C43   C     C_R   0.610513 0.749178 0.498773 0.812907
C44   C     C_R   0.610345 0.250567 0.499082 0.818621
C45   C     C_R   0.110448 0.249249 0.498914 0.809068
C46   C     C_R   0.562963 0.263387 0.428779 0.075369
C47   C     C_R   0.110480 0.750709 0.498797 0.813504
C48   C     C_R   0.624447 0.733700 0.358835 -0.136397
C49   C     C_R   0.622602 0.275651 0.362527 -0.134893
C50   C     C_R   0.124092 0.231054 0.359788 -0.127421
C51   C     C_R   0.123877 0.768270 0.359553 -0.179636
C52   C     C_R   0.630614 0.727669 0.292510 -0.120906
C53   C     C_R   0.627891 0.287395 0.297839 -0.069452
C54   C     C_R   0.130202 0.223793 0.293675 -0.077615
C55   C     C_R   0.129611 0.776824 0.293893 -0.085568
C56   C     C_R   0.577075 0.728214 0.292341 -0.026792
C57   C     C_R   0.063876 0.240057 0.427133 0.083397
C58   C     C_R   0.574175 0.287508 0.297897 -0.032072
C59   C     C_R   0.076757 0.224824 0.293297 -0.045026
C60   C     C_R   0.075800 0.777776 0.294236 -0.033610
C61   C     C_R   0.063677 0.759929 0.427169 0.081136
C62   C     C_R   0.556420 0.746522 0.494973 -0.071093
C63   C     C_R   0.556006 0.252882 0.495770 -0.067015
C64   C     C_R   0.056296 0.246600 0.495257 -0.067867
C65   C     C_R   0.849483 0.249997 0.300975 0.814870
C66   C     C_R   0.056285 0.753047 0.495160 -0.072251
C67   C     C_R   0.495850 0.749083 0.561696 -0.164586
C68   C     C_R   0.495869 0.245153 0.561719 -0.155071
C69   C     C_R   0.995780 0.250402 0.561845 -0.162716
C70   C     C_R   0.995824 0.748960 0.561794 -0.156755
C71   C     C_R   0.442518 0.749114 0.561651 -0.152106
C72   C     C_R   0.442441 0.245235 0.561772 -0.158619
C73   C     C_R   0.942457 0.250414 0.561758 -0.152928
C74   C     C_R   0.942405 0.749021 0.561890 -0.161253
C75   C     C_R   0.448704 0.746717 0.494872 -0.078168
C76   C     C_R   0.349484 0.249987 0.301019 0.810161
C77   C     C_R   0.448199 0.253053 0.495875 -0.062983
C78   C     C_R   0.948632 0.246869 0.495055 -0.075154
C79   C     C_R   0.948422 0.753384 0.495376 -0.066719
C80   C     C_3   0.551368 0.695646 0.957713 0.256235
C81   C     C_3   0.548663 0.305932 0.957988 0.203419
C82   C     C_3   0.049268 0.194504 0.957675 0.255617
C83   C     C_3   0.051944 0.804174 0.957996 0.203246
C84   C     C_3   0.470408 0.748887 0.957426 -0.462698
C85   C     C_3   0.470810 0.248056 0.957488 -0.415876
C86   C     C_3   0.970531 0.251077 0.957476 -0.462063
C87   C     C_R   0.349484 0.749981 0.300980 0.830728
C88   C     C_3   0.970577 0.751478 0.957432 -0.415689
C89   C     C_3   0.428216 0.743518 0.042831 -0.434193
C90   C     C_3   0.428322 0.253248 0.042907 -0.443294
C91   C     C_3   0.928176 0.245659 0.042868 -0.437210
C92   C     C_3   0.928329 0.756587 0.042873 -0.447637
C93   C     C_R   0.650486 0.750035 0.699068 0.887268
C94   C     C_R   0.650498 0.250000 0.699044 0.876132
C95   C     C_R   0.150483 0.250039 0.699065 0.887139
C96   C     C_R   0.150495 0.749997 0.699048 0.877968
C97   C     C_1   0.390065 0.749246 0.221778 -0.004220
C98   C     C_R   0.516969 0.734727 0.358510 -0.155597
C99   C     C_1   0.390175 0.250687 0.221824 -0.032634
C100  C     C_1   0.890136 0.249247 0.221768 -0.019336
C101  C     C_1   0.890047 0.750687 0.221842 -0.028486
C102  C     C_3   0.541573 0.746467 0.926650 0.062010
C103  C     C_3   0.541751 0.253778 0.926686 0.049750
C104  C     C_3   0.041556 0.246332 0.926631 0.062348
C105  C     C_3   0.041752 0.753561 0.926715 0.050520
C106  C     C_3   0.515015 0.700385 0.044932 0.129506
C107  C     C_3   0.512395 0.301623 0.045234 0.127784
C108  C     C_3   0.013156 0.198939 0.044891 0.126166
C109  C     C_R   0.514773 0.275868 0.362650 -0.121941
C110  C     C_3   0.015264 0.799450 0.045265 0.131518
C111  C     C_3   0.468754 0.748363 0.073545 -0.019544
C112  C     C_3   0.469041 0.251777 0.073603 -0.019593
C113  C     C_3   0.968901 0.248206 0.073530 -0.017707
C114  C     C_3   0.968787 0.751567 0.073630 -0.017256
C115  C     C_3   0.510133 0.798710 0.041925 0.282139
C116  C     C_3   0.513416 0.203127 0.041748 0.341911
C117  C     C_3   0.012381 0.297432 0.041853 0.292064
C118  C     C_3   0.009898 0.701147 0.041885 0.332633
C119  C     C_3   0.556510 0.794772 0.955821 -0.438756
C120  C     C_R   0.016776 0.232831 0.359106 -0.162578
C121  C     C_3   0.559387 0.207233 0.955625 -0.436197
C122  C     C_3   0.058494 0.293385 0.955741 -0.441201
C123  C     C_3   0.056267 0.705058 0.955772 -0.433625
C124  C     C_1   0.425231 0.748829 0.155107 0.083836
C125  C     C_1   0.425459 0.251131 0.155162 0.080750
C126  C     C_1   0.925376 0.248787 0.155098 0.085571
C127  C     C_1   0.925214 0.751090 0.155179 0.074375
C128  C     C_1   0.580079 0.747820 0.845042 0.063683
C129  C     C_1   0.580193 0.252395 0.845059 0.017177
C130  C     C_1   0.080065 0.247770 0.845032 0.063437
C131  C     C_R   0.015889 0.769917 0.360184 -0.117527
C132  C     C_1   0.080187 0.752282 0.845079 0.016835
C133  C     C_1   0.611908 0.749054 0.778348 -0.056524
C134  C     C_1   0.611953 0.251089 0.778352 -0.073950
C135  C     C_1   0.111905 0.249048 0.778341 -0.057070
C136  C     C_1   0.111933 0.751049 0.778365 -0.074029
C137  C     C_R   0.862017 0.945697 0.400049 -0.292997
C138  C     C_R   0.863079 0.052999 0.400056 -0.294178
C139  C     C_R   0.362208 0.445843 0.400419 -0.292671
C140  C     C_R   0.363225 0.553142 0.401007 -0.294391
C141  C     C_R   0.750225 0.609996 0.501517 0.918736
C142  C     C_R   0.509419 0.741545 0.426511 0.064647
C143  C     C_R   0.750248 0.389989 0.500753 0.923828
C144  C     C_R   0.250229 0.110034 0.501820 0.921313
C145  C     C_R   0.250231 0.890023 0.500432 0.922830
C146  C     C_R   0.918977 0.971653 0.349197 0.315418
C147  C     C_R   0.919714 0.026290 0.349848 0.313919
C148  C     C_R   0.419225 0.471878 0.349961 0.315813
C149  C     C_R   0.419969 0.526507 0.351039 0.316779
C150  C     C_R   0.749894 0.553830 0.502523 -0.210845
C151  C     C_R   0.751009 0.446094 0.501255 -0.202224
C152  C     C_R   0.249615 0.053904 0.502932 -0.213019
H1    H     H_    0.489889 0.752312 0.614117 0.172993
H2    H     H_    0.401976 0.290521 0.058686 0.174692
H3    H     H_    0.902652 0.207956 0.058352 0.177515
H4    H     H_    0.904308 0.794931 0.058704 0.174629
H5    H     H_    0.389752 0.772896 0.067981 0.273534
H6    H     H_    0.391733 0.222247 0.067844 0.267636
H7    H     H_    0.890890 0.276037 0.068085 0.271539
H8    H     H_    0.889911 0.727102 0.067702 0.263052
H9    H     H_    0.554110 0.830195 0.929182 0.202417
H10   H     H_    0.558668 0.170968 0.929046 0.239457
H11   H     H_    0.057463 0.329426 0.929164 0.203181
H12   H     H_    0.490437 0.237957 0.613233 0.172065
H13   H     H_    0.053382 0.669745 0.929133 0.239238
H14   H     H_    0.862919 0.903907 0.399557 0.167181
H15   H     H_    0.864489 0.094783 0.398654 0.166000
H16   H     H_    0.363121 0.404051 0.399691 0.167163
H17   H     H_    0.364642 0.594930 0.399854 0.166345
H18   H     H_    0.677107 0.721897 0.241109 0.150856
H19   H     H_    0.673804 0.296978 0.247623 0.189616
H20   H     H_    0.176565 0.216759 0.242633 0.177325
H21   H     H_    0.175984 0.783482 0.242684 0.186315
H22   H     H_    0.081669 0.218606 0.241942 0.209396
H23   H     H_    0.989887 0.254545 0.614133 0.171880
H24   H     H_    0.080426 0.785210 0.243309 0.210908
H25   H     H_    0.582041 0.722801 0.240826 0.206249
H26   H     H_    0.578445 0.297188 0.247732 0.215060
H27   H     H_    0.484807 0.665184 0.069819 0.109073
H28   H     H_    0.480122 0.335663 0.070136 0.101170
H29   H     H_    0.981524 0.164498 0.069807 0.108775
H30   H     H_    0.985184 0.834693 0.070076 0.101771
H31   H     H_    0.525793 0.664599 0.950052 0.086174
H32   H     H_    0.521489 0.335240 0.950298 0.095569
H33   H     H_    0.022417 0.164699 0.950052 0.085641
H34   H     H_    0.990056 0.744464 0.613953 0.173341
H35   H     H_    0.026795 0.835429 0.950190 0.096580
H36   H     H_    0.459973 0.786036 0.941386 0.241572
H37   H     H_    0.462546 0.209908 0.941226 0.262319
H38   H     H_    0.961624 0.288982 0.941502 0.240679
H39   H     H_    0.959917 0.714510 0.941058 0.261377
H40   H     H_    0.606091 0.792674 0.938892 0.247278
H41   H     H_    0.608853 0.211611 0.938509 0.215796
H42   H     H_    0.107991 0.289622 0.938692 0.247073
H43   H     H_    0.105874 0.706831 0.938814 0.215929
H44   H     H_    0.539010 0.801693 0.063950 0.174847
H45   H     H_    0.458524 0.717394 0.933151 0.197314
H46   H     H_    0.542475 0.202608 0.063662 0.166951
H47   H     H_    0.041421 0.298707 0.063772 0.174576
H48   H     H_    0.038706 0.697986 0.063967 0.167116
H49   H     H_    0.727301 0.701755 0.848290 0.391146
H50   H     H_    0.696219 0.272674 0.837363 0.351739
H51   H     H_    0.225342 0.195542 0.848333 0.391750
H52   H     H_    0.197138 0.765134 0.838038 0.351706
H53   H     H_    0.654698 0.730777 0.046359 0.390366
H54   H     H_    0.653059 0.279656 0.047684 0.398129
H55   H     H_    0.153853 0.223861 0.046424 0.392190
H56   H     H_    0.457122 0.278147 0.933431 0.189119
H57   H     H_    0.153785 0.768264 0.048491 0.396593
H58   H     H_    0.455762 0.882224 0.983616 0.371525
H59   H     H_    0.412167 0.097854 0.050574 0.423726
H60   H     H_    0.960433 0.383752 0.984395 0.372613
H61   H     H_    0.905100 0.601208 0.046608 0.425882
H62   H     H_    0.535764 0.950748 0.734645 0.397755
H63   H     H_    0.564790 0.029156 0.567640 0.366828
H64   H     H_    0.034968 0.450878 0.733405 0.397926
H65   H     H_    0.065141 0.529058 0.566355 0.366911
H66   H     H_    0.667300 0.731217 0.356280 0.159660
H67   H     H_    0.957337 0.220626 0.933209 0.197003
H68   H     H_    0.665393 0.277302 0.360272 0.160758
H69   H     H_    0.166801 0.228351 0.357539 0.163793
H70   H     H_    0.166922 0.769535 0.356717 0.165179
H71   H     H_    0.946698 0.872332 0.261125 0.360885
H72   H     H_    0.974636 0.124644 0.363311 0.341151
H73   H     H_    0.446442 0.373804 0.260757 0.363842
H74   H     H_    0.475009 0.624229 0.366498 0.341767
H75   H     H_    0.720830 0.549630 0.739959 0.419509
H76   H     H_    0.861365 0.470292 0.576451 0.367211
H77   H     H_    0.223050 0.049650 0.738770 0.418857
H78   H     H_    0.958938 0.783216 0.933377 0.188600
H79   H     H_    0.362690 0.969692 0.574624 0.367046
H80   H     H_    0.746349 0.595403 0.392613 0.187613
H81   H     H_    0.739328 0.404633 0.397358 0.165994
H82   H     H_    0.240035 0.096017 0.397857 0.166892
H83   H     H_    0.241343 0.905173 0.395246 0.166351
H84   H     H_    0.739254 0.646308 0.255008 0.380277
H85   H     H_    0.791403 0.369351 0.264758 0.374712
H86   H     H_    0.294232 0.129106 0.263496 0.374001
H87   H     H_    0.171125 0.874317 0.354615 0.341549
H88   H     H_    0.476817 0.733032 0.355611 0.174860
H89   H     H_    0.404212 0.705134 0.058338 0.177114
H90   H     H_    0.474193 0.277703 0.360498 0.170557
H91   H     H_    0.976620 0.231555 0.356176 0.175735
H92   H     H_    0.975401 0.772519 0.357967 0.171085
H93   H     H_    0.396068 0.752312 0.614052 0.177628
H94   H     H_    0.396362 0.238072 0.613315 0.171395
H95   H     H_    0.896048 0.254480 0.614007 0.176380
H96   H     H_    0.896063 0.744482 0.614095 0.172746
O1    O     O_3   0.750020 0.750020 0.500000 -0.517930
O2    O     O_R   0.741140 0.134170 0.457010 -0.608497
O3    O     O_3   0.055349 0.531077 0.616613 -0.424629
O4    O     O_2   0.023217 0.954341 0.209903 -0.161538
O5    O     O_2   0.030131 0.934631 0.312722 -0.179849
O6    O     O_3   0.967111 0.871757 0.287429 -0.563960
O7    O     O_2   0.044792 0.042123 0.285268 -0.158991
O8    O     O_2   0.003986 0.061644 0.212436 -0.155200
O9    O     O_3   0.978014 0.125350 0.316506 -0.561773
O10   O     O_2   0.524197 0.455353 0.210883 -0.159132
O11   O     O_2   0.529745 0.433936 0.314266 -0.175618
O12   O     O_3   0.467190 0.372381 0.286647 -0.566786
O13   O     O_R   0.241140 0.365830 0.457010 -0.633803
O14   O     O_2   0.544915 0.541937 0.287654 -0.165151
O15   O     O_2   0.504920 0.562803 0.214340 -0.157194
O16   O     O_3   0.478377 0.625426 0.319714 -0.565514
O17   O     O_2   0.817626 0.573576 0.601193 -0.281815
O18   O     O_2   0.716430 0.613741 0.645026 -0.297680
O19   O     O_3   0.712815 0.529784 0.707969 -0.408871
O20   O     O_2   0.709488 0.426188 0.683703 -0.157409
O21   O     O_2   0.803011 0.384987 0.577221 -0.334379
O22   O     O_3   0.819824 0.468558 0.625630 -0.418439
O23   O     O_2   0.319486 0.073153 0.599501 -0.282764
O24   O     O_R   0.241140 0.634170 0.457010 -0.608734
O25   O     O_2   0.218321 0.113780 0.644168 -0.298804
O26   O     O_3   0.214723 0.029784 0.707068 -0.408183
O27   O     O_2   0.210549 0.926289 0.683122 -0.159720
O28   O     O_2   0.303434 0.884653 0.576434 -0.332465
O29   O     O_3   0.321308 0.968130 0.623995 -0.418321
O30   O     O_2   0.801879 0.558121 0.201341 -0.203455
O31   O     O_2   0.686359 0.547549 0.272302 -0.168304
O32   O     O_3   0.729886 0.627772 0.299378 -0.607870
O33   O     O_2   0.667393 0.440968 0.299925 -0.164334
O34   O     O_2   0.780669 0.452700 0.202302 -0.153537
O35   O     O_R   0.862350 0.719680 0.336040 -0.611554
O36   O     O_3   0.745458 0.372072 0.286945 -0.593990
O37   O     O_2   0.275737 0.046686 0.205126 -0.182292
O38   O     O_2   0.164142 0.063387 0.305018 -0.175961
O39   O     O_3   0.248107 0.128599 0.286093 -0.590313
O40   O     O_2   0.179288 0.956942 0.276727 -0.165386
O41   O     O_2   0.293148 0.939136 0.206858 -0.126908
O42   O     O_3   0.215038 0.874240 0.308636 -0.576133
O43   O     O_R   0.862350 0.280320 0.336040 -0.624703
O44   O     O_R   0.362350 0.219680 0.336040 -0.616586
O45   O     O_R   0.362350 0.780320 0.336040 -0.620953
O46   O     O_R   0.698410 0.780360 0.663970 -0.611559
O47   O     O_R   0.698410 0.219640 0.663970 -0.625475
O48   O     O_R   0.198410 0.280360 0.663970 -0.611821
O49   O     O_3   0.750020 0.249980 0.500000 -0.515761
O50   O     O_R   0.198410 0.719640 0.663970 -0.625200
O51   O     O_R   0.801620 0.780400 0.336030 -0.661409
O52   O     O_R   0.801620 0.219600 0.336030 -0.651293
O53   O     O_R   0.301620 0.280400 0.336030 -0.656300
O54   O     O_R   0.301620 0.719600 0.336030 -0.655515
O55   O     O_R   0.637690 0.719640 0.663960 -0.611735
O56   O     O_R   0.637690 0.280360 0.663960 -0.614604
O57   O     O_R   0.137690 0.219640 0.663960 -0.611312
O58   O     O_R   0.137690 0.780360 0.663960 -0.615065
O59   O     O_R   0.801880 0.634210 0.457010 -0.625164
O60   O     O_3   0.250020 0.250020 0.500000 -0.517359
O61   O     O_R   0.801880 0.365790 0.457010 -0.609938
O62   O     O_R   0.301880 0.134210 0.457010 -0.627818
O63   O     O_R   0.301880 0.865790 0.457010 -0.604096
O64   O     O_R   0.758880 0.865820 0.542990 -0.604330
O65   O     O_R   0.758880 0.134180 0.542990 -0.629730
O66   O     O_R   0.258880 0.365820 0.542990 -0.603945
O67   O     O_R   0.258880 0.634180 0.542990 -0.630245
O68   O     O_R   0.887320 0.719660 0.457020 -0.631925
O69   O     O_R   0.887320 0.280340 0.457020 -0.619631
O70   O     O_R   0.387320 0.219660 0.457020 -0.629234
O71   O     O_3   0.250020 0.749980 0.500000 -0.515814
O72   O     O_R   0.387320 0.780340 0.457020 -0.621126
O73   O     O_R   0.655700 0.780390 0.457010 -0.633319
O74   O     O_R   0.655700 0.219610 0.457010 -0.623682
O75   O     O_R   0.155700 0.280390 0.457010 -0.632528
O76   O     O_R   0.155700 0.719610 0.457010 -0.620828
O77   O     O_R   0.844330 0.780370 0.542990 -0.636220
O78   O     O_R   0.844330 0.219630 0.542990 -0.641664
O79   O     O_R   0.344330 0.280370 0.542990 -0.634632
O80   O     O_R   0.344330 0.719630 0.542990 -0.641836
O81   O     O_R   0.612730 0.719660 0.542980 -0.637889
O82   O     O_R   0.698180 0.634210 0.542990 -0.603205
O83   O     O_R   0.612730 0.280340 0.542980 -0.636911
O84   O     O_R   0.112730 0.219660 0.542980 -0.638393
O85   O     O_R   0.112730 0.780340 0.542980 -0.642935
O86   O     O_2   0.640065 0.627297 0.940305 -0.169911
O87   O     O_2   0.646592 0.650834 0.830360 -0.288496
O88   O     O_3   0.685121 0.718147 0.882092 -0.514775
O89   O     O_2   0.642021 0.352349 0.830588 -0.265669
O90   O     O_2   0.632724 0.379398 0.940825 -0.125590
O91   O     O_3   0.684009 0.289947 0.883806 -0.472027
O92   O     O_2   0.135041 0.122780 0.940071 -0.170486
O93   O     O_R   0.698180 0.365790 0.542990 -0.624650
O94   O     O_2   0.142662 0.148572 0.830179 -0.287863
O95   O     O_3   0.183861 0.212957 0.882187 -0.513826
O96   O     O_2   0.148485 0.848304 0.830468 -0.266479
O97   O     O_2   0.140476 0.872743 0.940780 -0.124887
O98   O     O_3   0.185982 0.781876 0.884370 -0.473398
O99   O     O_2   0.527926 0.721182 0.157011 -0.327841
O100  O     O_2   0.582583 0.645444 0.081624 -0.147044
O101  O     O_3   0.629842 0.736183 0.025945 -0.512581
O102  O     O_2   0.576446 0.361748 0.082248 -0.158843
O103  O     O_2   0.525922 0.285242 0.157698 -0.334161
O104  O     O_R   0.198180 0.134210 0.542990 -0.605275
O105  O     O_3   0.628806 0.272198 0.026950 -0.501633
O106  O     O_2   0.026856 0.216680 0.156995 -0.321416
O107  O     O_2   0.078748 0.140549 0.081143 -0.142679
O108  O     O_3   0.129269 0.230596 0.025959 -0.513305
O109  O     O_2   0.083066 0.854267 0.082072 -0.157485
O110  O     O_2   0.027209 0.779096 0.158126 -0.338181
O111  O     O_3   0.129244 0.763057 0.027611 -0.502400
O112  O     O_2   0.419129 0.860964 0.153051 -0.215223
O113  O     O_2   0.511320 0.902960 0.045537 -0.246081
O114  O     O_3   0.425645 0.865273 0.032132 -0.503606
O115  O     O_R   0.198180 0.865790 0.542990 -0.629150
O116  O     O_2   0.521170 0.099465 0.044787 -0.229585
O117  O     O_2   0.425904 0.138900 0.152516 -0.298540
O118  O     O_3   0.434360 0.131345 0.030216 -0.549286
O119  O     O_2   0.924947 0.361372 0.153175 -0.259242
O120  O     O_2   0.018187 0.401488 0.044601 -0.242411
O121  O     O_3   0.929875 0.367528 0.033367 -0.507343
O122  O     O_2   0.010488 0.597121 0.046367 -0.228446
O123  O     O_2   0.916873 0.639609 0.152338 -0.257538
O124  O     O_3   0.927782 0.634702 0.028398 -0.555287
O125  O     O_2   0.582293 0.925918 0.594782 -0.282291
O126  O     O_R   0.741140 0.865830 0.457010 -0.634596
O127  O     O_2   0.636715 0.886654 0.643016 -0.329008
O128  O     O_3   0.575923 0.970552 0.704033 -0.426537
O129  O     O_2   0.603599 0.074052 0.680194 -0.198278
O130  O     O_2   0.620246 0.114870 0.571554 -0.336816
O131  O     O_3   0.555292 0.031195 0.617756 -0.424181
O132  O     O_2   0.082508 0.425792 0.593615 -0.283176
O133  O     O_2   0.136430 0.386573 0.642503 -0.328802
O134  O     O_3   0.075388 0.470409 0.703349 -0.426810
O135  O     O_2   0.103003 0.573889 0.679821 -0.198522
O136  O     O_2   0.120203 0.614810 0.570954 -0.334728
S1    S     S_3+6 0.632383 0.671225 0.902055 0.094585
S2    S     S_3+6 0.472622 0.141459 0.069608 0.045510
S3    S     S_3+6 0.970464 0.358578 0.070155 0.061590
S4    S     S_3+6 0.965014 0.641405 0.069604 0.054591
S5    S     S_3+6 0.620617 0.937140 0.624324 0.075230
S6    S     S_3+6 0.616881 0.063726 0.605727 0.097492
S7    S     S_3+6 0.120450 0.437046 0.623646 0.075125
S8    S     S_3+6 0.116708 0.563634 0.605129 0.097839
S9    S     S_3+6 0.987414 0.933597 0.287603 0.114083
S10   S     S_3+6 0.989182 0.063318 0.288688 0.127283
S11   S     S_3+6 0.487676 0.433899 0.288244 0.112999
S12   S     S_3+6 0.628215 0.333485 0.902695 0.128500
S13   S     S_3+6 0.489603 0.563636 0.290860 0.123193
S14   S     S_3+6 0.750359 0.562946 0.627884 0.093241
S15   S     S_3+6 0.771975 0.436260 0.610593 0.114445
S16   S     S_3+6 0.251977 0.062830 0.626909 0.092814
S17   S     S_3+6 0.272864 0.936073 0.609686 0.115267
S18   S     S_3+6 0.739773 0.564743 0.276148 0.107937
S19   S     S_3+6 0.733065 0.435117 0.280796 0.124550
S20   S     S_3+6 0.230934 0.066240 0.283183 0.110982
S21   S     S_3+6 0.230739 0.936529 0.282072 0.131359
S22   S     S_3+6 0.129230 0.167898 0.901958 0.094156
S23   S     S_3+6 0.133180 0.828277 0.902790 0.127773
S24   S     S_3+6 0.564102 0.700080 0.079435 0.076994
S25   S     S_3+6 0.561104 0.306014 0.080080 0.067316
S26   S     S_3+6 0.062242 0.195915 0.079298 0.080972
S27   S     S_3+6 0.063959 0.799704 0.080306 0.066424
S28   S     S_3+6 0.465587 0.858597 0.070103 0.073070
Zn1   Zn    Zn3+2 0.675940 0.706630 0.561420 1.068038
Zn2   Zn    Zn3+2 0.762690 0.206610 0.561420 1.048923
Zn3   Zn    Zn3+2 0.262690 0.293390 0.561420 1.066853
Zn4   Zn    Zn3+2 0.262690 0.706610 0.561420 1.049273
Zn5   Zn    Zn3+2 0.737340 0.793410 0.438580 1.010700
Zn6   Zn    Zn3+2 0.737340 0.206590 0.438580 1.029533
Zn7   Zn    Zn3+2 0.237340 0.293410 0.438580 1.011074
Zn8   Zn    Zn3+2 0.237340 0.706590 0.438580 1.030061
Zn9   Zn    Zn3+2 0.675940 0.293370 0.561420 1.060916
Zn10  Zn    Zn3+2 0.175940 0.206630 0.561420 1.064488
Zn11  Zn    Zn3+2 0.175940 0.793370 0.561420 1.053366
Zn12  Zn    Zn3+2 0.824100 0.706640 0.438580 1.045265
Zn13  Zn    Zn3+2 0.824100 0.293360 0.438580 1.045672
Zn14  Zn    Zn3+2 0.324100 0.206640 0.438580 1.037632
Zn15  Zn    Zn3+2 0.324100 0.793360 0.438580 1.053664
Zn16  Zn    Zn3+2 0.762690 0.793390 0.561420 1.065634

loop_
_geom_bond_atom_site_label_1
_geom_bond_atom_site_label_2
_ccdc_geom_bond_type
C88   H78   S    
C24   C61   A    
O7    S10   D    
O89   S12   D    
C107  C112  S    
C19   C20   A    
C43   O73   A    
C119  H9    S    
O106  S26   D    
C39   O77   A    
O1    Zn1   S    
C42   C75   S    
C87   O45   A    
O10   S11   D    
H49   O88   S    
C97   C124  T    
O136  S8    D    
C85   H37   S    
C29   C33   A    
C47   O76   A    
C105  C123  S    
O18   S14   D    
C80   H31   S    
C72   H94   S    
C55   H21   S    
C80   S1    S    
O5    S9    D    
O40   S21   D    
O49   Zn9   S    
C70   C74   A    
C36   O2    A    
C3    C19   A    
C110  S27   S    
C117  H47   S    
O61   Zn13  S    
O35   Zn12  S    
C54   C59   A    
C143  C151  S    
H86   O39   S    
O54   Zn8   S    
C21   C22   A    
C17   C151  A    
O52   Zn6   S    
O71   Zn4   S    
C122  H42   S    
C137  H14   S    
C68   H12   S    
C85   C90   S    
H77   O26   S    
C116  C121  S    
C82   H33   S    
C27   C31   A    
C137  C146  A    
C28   C32   A    
C108  S26   S    
H73   O12   S    
C52   H18   S    
C6    C11   A    
C20   C28   A    
C83   C105  S    
O78   Zn2   S    
C108  C113  S    
C115  S28   S    
C44   O74   A    
C68   C72   A    
C82   S22   S    
O112  S28   D    
C89   H5    S    
C112  C125  S    
O111  S27   S    
O134  S7    S    
C74   C79   A    
C60   H24   S    
O104  Zn10  S    
C71   H93   S    
C103  C121  S    
C1    C101  S    
C146  C147  A    
O121  S3    S    
C111  C124  S    
C50   C57   A    
O122  S4    D    
C4    C5    A    
C5    C8    A    
C53   C58   A    
C5    C137  A    
C6    C7    A    
C73   H95   S    
C84   H45   S    
O79   Zn3   S    
C63   C68   A    
O80   Zn4   S    
C92   H8    S    
C12   S5    S    
C95   O48   A    
H54   O105  S    
O26   S16   S    
O93   Zn9   S    
H76   O22   S    
C24   C131  A    
H75   O19   S    
C66   C70   A    
H87   O42   S    
C109  H90   S    
C49   C53   A    
O118  S2    S    
C83   S23   S    
O34   S19   D    
O23   S16   D    
C48   C52   A    
O113  S28   D    
H57   O111  S    
O109  S27   D    
O32   S18   S    
C69   H23   S    
C18   C150  A    
C95   O57   A    
C102  C119  S    
C28   H82   S    
H72   O9    S    
O92   S22   D    
C88   H39   S    
C115  H44   S    
C2    C109  A    
C59   C120  A    
C42   O72   A    
C84   C102  S    
C86   C104  S    
H63   O131  S    
O27   S17   D    
C100  C126  T    
C41   O70   A    
C102  C128  S    
C144  O62   A    
C23   S16   S    
C104  C122  S    
C80   C106  S    
C29   H83   S    
O90   S12   D    
O60   Zn10  S    
O100  S24   D    
C9    C36   S    
C32   S20   S    
C82   C108  S    
C110  C114  S    
C51   C55   A    
O68   Zn12  S    
C132  C136  T    
C118  C123  S    
O1    Zn5   S    
O60   Zn3   S    
O49   Zn6   S    
C98   C142  A    
O59   Zn12  S    
O91   S12   S    
C141  C150  S    
C106  C111  S    
O70   Zn14  S    
O115  Zn11  S    
C139  C148  A    
C86   H38   S    
H79   O29   S    
O131  S6    S    
C17   C27   A    
C54   H20   S    
C119  H40   S    
C1    O35   A    
O1    Zn12  S    
C25   S17   S    
C113  C126  S    
O49   Zn13  S    
C80   C102  S    
C120  H91   S    
C117  C122  S    
C34   O64   A    
C74   H96   S    
C24   C79   A    
C8    C12   A    
C17   C18   A    
C83   C110  S    
C58   H26   S    
C8    C34   S    
C64   C69   A    
O14   S13   D    
O84   Zn10  S    
C147  S10   S    
C113  C117  S    
O51   Zn5   S    
C3    C145  S    
C115  C119  S    
C107  S25   S    
C144  O104  A    
C15   S7    S    
H55   O108  S    
C112  C116  S    
C13   C120  A    
C81   C103  S    
C13   C78   A    
C82   C104  S    
O132  S7    D    
H84   O32   S    
C91   H7    S    
C85   C103  S    
C22   S15   S    
C26   C30   A    
H50   O91   S    
C45   C64   S    
C37   O66   A    
C46   C63   A    
O72   Zn15  S    
H59   O118  S    
O57   Zn10  S    
C144  C152  S    
C88   C105  S    
C148  S11   S    
H51   O95   S    
C101  C127  T    
C30   S18   S    
O120  S3    D    
O19   S14   S    
C76   O44   A    
C70   H34   S    
C35   C142  A    
O49   Zn2   S    
O127  S5    D    
O73   Zn5   S    
O58   Zn11  S    
C104  C130  S    
H65   O3    S    
C81   H32   S    
C4    C9    A    
C38   O24   A    
C140  C149  A    
O9    S10   S    
C7    C10   A    
C23   C152  A    
C81   C107  S    
C44   O83   A    
O48   Zn3   S    
C130  C135  T    
C18   C26   A    
C59   H22   S    
O125  S5    D    
O37   S20   D    
C42   O80   A    
C96   C136  S    
C48   H66   S    
C46   C49   A    
C50   C54   A    
C108  H29   S    
O13   Zn7   S    
H53   O101  S    
C114  C118  S    
O86   S1    D    
C131  H92   S    
H58   O114  S    
C30   C31   A    
C98   H88   S    
C47   O85   A    
O107  S26   D    
O81   Zn1   S    
C141  O82   A    
O128  S5    S    
H85   O36   S    
O130  S6    D    
C22   C151  A    
C93   C133  S    
O56   Zn9   S    
O30   S18   D    
C146  S9    S    
C69   C73   A    
C56   C98   A    
C90   H2    S    
C47   C66   S    
O116  S2    D    
O82   Zn1   S    
O133  S7    D    
O71   Zn11  S    
C118  H48   S    
C33   S21   S    
C55   C60   A    
C123  H43   S    
C35   C48   A    
C143  O61   A    
C60   C131  A    
C121  H41   S    
C76   O53   A    
O42   S21   S    
C105  C132  S    
O123  S4    D    
O76   Zn8   S    
C44   C63   S    
O31   S18   D    
C38   O67   A    
C3    C25   A    
O135  S8    D    
O60   Zn14  S    
H64   O134  S    
O24   Zn8   S    
C20   C152  A    
O103  S25   D    
O77   Zn16  S    
C39   C79   S    
C43   O81   A    
C11   C38   S    
C9    C14   A    
O126  Zn5   S    
C116  H46   S    
O67   Zn4   S    
O2    Zn6   S    
O3    S8    S    
O83   Zn9   S    
C96   O50   A    
C103  C129  S    
O114  S28   S    
O25   S16   D    
C140  H17   S    
O96   S23   D    
C40   C78   S    
C84   H36   S    
O69   Zn13  S    
C19   C29   A    
H74   O16   S    
O15   S13   D    
O1    Zn16  S    
O55   Zn1   S    
O36   S19   S    
O88   S1    S    
C1    O51   A    
C65   C100  S    
O45   Zn15  S    
O46   Zn16  S    
O44   Zn14  S    
O20   S15   D    
C67   H1    S    
C31   S19   S    
C32   C33   A    
O53   Zn7   S    
C2    C77   A    
O41   S21   D    
O12   S11   S    
C114  C127  S    
H71   O6    S    
C121  H10   S    
C67   C71   A    
C86   H67   S    
C6    C140  A    
C139  H16   S    
C37   O13   A    
C106  S24   S    
C53   H19   S    
O60   Zn7   S    
C4    C138  A    
C129  C134  T    
C13   C57   A    
C110  H30   S    
C86   C91   S    
O8    S10   D    
O101  S24   S    
C51   H70   S    
C43   C62   S    
O87   S1    D    
C94   O47   A    
C7    C139  A    
O65   Zn2   S    
C50   H69   S    
C34   O126  A    
C107  H28   S    
C58   C109  A    
O62   Zn14  S    
C51   C61   A    
C90   C112  S    
C99   C125  T    
C2    C46   A    
C76   C99   S    
C62   C67   A    
C10   C37   S    
C10   C15   A    
O94   S22   D    
C41   C77   S    
O99   S24   D    
C65   O52   A    
C15   C16   A    
C16   S8    S    
O4    S9    D    
O74   Zn6   S    
C11   C16   A    
C96   O58   A    
C61   C66   A    
C36   O65   A    
C88   C92   S    
H52   O98   S    
O95   S22   S    
O124  S4    S    
H62   O128  S    
C73   C78   A    
H60   O121  S    
O105  S25   S    
O129  S6    D    
C143  O93   A    
C65   O43   A    
O21   S15   D    
O64   Zn16  S    
C83   H35   S    
C39   O68   A    
O63   Zn15  S    
C56   H25   S    
O71   Zn8   S    
C117  S3    S    
C118  S4    S    
C49   H68   S    
C116  S2    S    
C148  C149  A    
O33   S19   D    
C145  O115  A    
C26   H80   S    
C141  O59   A    
C122  H11   S    
C91   C113  S    
C138  H15   S    
O29   S17   S    
C90   H6    S    
C81   S12   S    
C91   H3    S    
C72   C77   A    
C75   C142  A    
C145  O63   A    
O71   Zn15  S    
C138  C147  A    
O66   Zn3   S    
C95   C135  S    
C149  S13   S    
C92   H4    S    
C21   C150  A    
O16   S13   S    
C40   O78   A    
C45   O84   A    
O39   S20   S    
O119  S3    D    
C12   C14   A    
C21   S14   S    
C89   H89   S    
O11   S11   D    
C84   C89   S    
C106  H27   S    
O117  S2    D    
C57   C64   A    
O108  S26   S    
O22   S15   S    
C93   O55   A    
O50   Zn4   S    
C94   O56   A    
O98   S23   S    
C45   O75   A    
O17   S14   D    
O6    S9    S    
O38   S20   D    
O85   Zn11  S    
C14   S6    S    
C89   C111  S    
C41   O79   A    
O47   Zn2   S    
C128  C133  T    
C71   C75   A    
O102  S25   D    
O43   Zn13  S    
O110  S27   D    
C94   C134  S    
C93   O46   A    
C35   C62   A    
C23   C25   A    
C27   H81   S    
C123  H13   S    
O75   Zn7   S    
O97   S23   D    
C87   O54   A    
O28   S17   D    
C111  C115  S    
C92   C114  S    
H61   O124  S    
C40   O69   A    
C52   C56   A    
C85   H56   S    
C87   C97   S    
