data_mof_unit_43161.cif
_audit_creation_date              2012-12-10T18:39:50-0500
_audit_creation_method            fapswitch 2.2
_symmetry_space_group_name_H-M    P1
_symmetry_Int_Tables_number       1
_space_group_crystal_system       triclinic
_cell_length_a                    15.168048
_cell_length_b                    13.801629
_cell_length_c                    23.549635
_cell_angle_alpha                 89.976962
_cell_angle_beta                  90.550599
_cell_angle_gamma                 89.912017
_cell_volume                      4929.73552585

loop_
_atom_site_label
_atom_site_type_symbol
_atom_type_description
_atom_site_fract_x
_atom_site_fract_y
_atom_site_fract_z
_atom_type_partial_charge
C1    C     C_R   0.329901 0.500015 0.499484 0.891297
C2    C     C_R   0.670433 0.499868 0.501343 0.887271
C3    C     C_R   0.518222 0.409770 0.239700 0.508629
C4    C     C_R   0.451295 0.417151 0.758684 0.559160
C5    C     C_R   0.516218 0.413446 0.299350 -0.386961
C6    C     C_R   0.459582 0.420076 0.699000 -0.384068
C7    C     C_R   0.493674 0.499391 0.327940 -0.194677
C8    C     C_R   0.499771 0.499047 0.671790 -0.200639
C9    C     C_R   0.469362 0.582350 0.295640 0.378137
C10   C     C_R   0.535034 0.575714 0.704924 0.383319
C11   C     C_R   0.472848 0.578570 0.236572 -0.190132
C12   C     C_R   0.526591 0.572813 0.763678 -0.191629
C13   C     C_R   0.495306 0.492867 0.208549 0.196995
C14   C     C_R   0.487204 0.493829 0.790578 0.188160
C15   C     C_R   0.093478 0.572282 0.471524 0.426494
C16   C     C_R   0.907170 0.420345 0.482256 0.350548
C17   C     C_R   0.905967 0.580750 0.526194 0.426818
C18   C     C_R   0.096577 0.431646 0.534798 0.355000
C19   C     C_R   0.185202 0.570639 0.468586 0.229785
C20   C     C_R   0.814332 0.418767 0.482472 0.266101
C21   C     C_R   0.814148 0.579364 0.527155 0.227936
C22   C     C_R   0.189211 0.429597 0.532112 0.266958
C23   C     C_R   0.233382 0.499762 0.499460 -0.316941
C24   C     C_R   0.767558 0.499262 0.504051 -0.320481
C25   C     C_R   0.049145 0.502445 0.504035 -0.165955
C26   C     C_R   0.952461 0.501258 0.504220 -0.162289
C27   C     C_R   0.497263 0.500089 0.390743 0.807486
C28   C     C_R   0.501358 0.499975 0.609176 0.807752
C29   C     C_R   0.548417 0.106636 0.541244 0.291041
C30   C     C_R   0.547212 0.893199 0.458738 0.302304
C31   C     C_R   0.451673 0.106864 0.458697 0.291775
C32   C     C_R   0.452813 0.893341 0.541221 0.300734
C33   C     C_R   0.547540 0.209317 0.540036 -0.029033
C34   C     C_R   0.546373 0.790522 0.459969 -0.005836
C35   C     C_R   0.452514 0.209538 0.459932 -0.039748
C36   C     C_R   0.453627 0.790661 0.540014 -0.015838
C37   C     C_R   0.500040 0.054585 0.499971 0.155170
C38   C     C_R   0.500024 0.945435 0.499977 0.152669
C39   C     C_R   0.566274 0.477320 0.879603 0.575679
C40   C     C_R   0.414410 0.498807 0.119549 0.580076
C41   C     C_R   0.410407 0.501922 0.880117 0.627675
C42   C     C_R   0.571072 0.481407 0.118885 0.614648
C43   C     C_R   0.409963 0.500525 0.939628 -0.067368
C44   C     C_R   0.571067 0.479450 0.059417 -0.064435
C45   C     C_R   0.490223 0.489444 0.969523 -0.076572
C46   C     C_R   0.490704 0.489687 0.029556 -0.074543
C47   C     C_R   0.569874 0.478151 0.939460 -0.108748
C48   C     C_R   0.410986 0.500130 0.059653 -0.109753
C49   C     C_R   0.331137 0.510839 0.969599 -0.256615
C50   C     C_R   0.649802 0.468266 0.029470 -0.263863
C51   C     C_R   0.330916 0.512281 0.029028 0.453491
C52   C     C_R   0.650285 0.469088 0.970068 0.454718
Cu1   Cu    Cu3+1 0.500000 0.596430 0.500000 0.977377
Cu2   Cu    Cu3+1 0.500000 0.403570 0.500000 0.994583
H1    H     H_    0.268817 0.517910 0.947100 0.192194
H2    H     H_    0.711868 0.458814 0.051965 0.193182
H3    H     H_    0.585105 0.249873 0.571215 0.138406
H4    H     H_    0.583056 0.749858 0.428809 0.154810
H5    H     H_    0.414974 0.250266 0.428740 0.135248
H6    H     H_    0.416920 0.750108 0.571175 0.149381
H7    H     H_    0.531789 0.348824 0.323481 0.183408
H8    H     H_    0.434815 0.361778 0.672897 0.190417
H9    H     H_    0.454897 0.642098 0.211980 0.179492
H10   H     H_    0.554138 0.630961 0.789120 0.178571
N1    N     N_R   0.487650 0.490107 0.851518 -0.442718
N2    N     N_R   0.493571 0.490404 0.147579 -0.441023
N3    N     N_R   0.500000 0.258690 0.500000 -0.193401
N4    N     N_R   0.500000 0.741310 0.500000 -0.205475
O1    O     O_R   0.371460 0.581430 0.500000 -0.580354
O2    O     O_R   0.628540 0.418570 0.500000 -0.518787
O3    O     O_R   0.628540 0.581430 0.500000 -0.576829
O4    O     O_R   0.371460 0.418570 0.500000 -0.527114
O5    O     O_R   0.499970 0.581450 0.417880 -0.580066
O6    O     O_R   0.500030 0.418550 0.582120 -0.580503
O7    O     O_R   0.500030 0.581450 0.582120 -0.581569
O8    O     O_R   0.499970 0.418550 0.417880 -0.583979
O9    O     O_2   0.640378 0.463688 0.849381 -0.491879
O10   O     O_2   0.339584 0.505395 0.149816 -0.491050
O11   O     O_2   0.334458 0.516140 0.850972 -0.552016
O12   O     O_2   0.648050 0.475494 0.147919 -0.561385
O13   O     O_3   0.251256 0.520247 0.056745 -0.530718
C53   C     C_3   0.224501 0.618305 0.056038 0.091077
H11   H     H_    0.209189 0.642637 0.011942 0.126332
H12   H     H_    0.276430 0.666000 0.074803 0.144532
C54   C     C_3   0.141536 0.629276 0.091225 -0.713013
H13   H     H_    0.154954 0.606702 0.135758 0.268820
H14   H     H_    0.119764 0.706133 0.090957 0.189423
H15   H     H_    0.087940 0.583595 0.073200 0.242303
O14   O     O_3   0.729377 0.455727 0.942372 -0.530269
C55   C     C_3   0.776357 0.544009 0.942892 0.091891
H16   H     H_    0.796477 0.564003 0.986946 0.126837
H17   H     H_    0.736090 0.603788 0.924023 0.143409
C56   C     C_3   0.859288 0.532687 0.907708 -0.712849
H18   H     H_    0.841389 0.513925 0.863210 0.267054
H19   H     H_    0.896888 0.601665 0.907849 0.187723
H20   H     H_    0.901605 0.474419 0.925827 0.246093
O15   O     O_3   0.534910 0.324453 0.210436 -0.563469
C57   C     C_3   0.613936 0.280515 0.229781 0.086397
H21   H     H_    0.666120 0.334846 0.240101 0.162313
H22   H     H_    0.600817 0.235257 0.267820 0.150387
C58   C     C_3   0.649013 0.214801 0.183326 -0.714126
H23   H     H_    0.663072 0.257975 0.144641 0.262025
H24   H     H_    0.710815 0.179154 0.198047 0.196050
H25   H     H_    0.599617 0.158156 0.172690 0.250576
O16   O     O_3   0.415269 0.339619 0.788744 -0.574558
C59   C     C_3   0.348141 0.287935 0.759472 0.093215
H26   H     H_    0.327311 0.227901 0.787709 0.181246
H27   H     H_    0.372589 0.251379 0.720762 0.138992
C60   C     C_3   0.266119 0.349831 0.747487 -0.798985
H28   H     H_    0.280428 0.408490 0.716727 0.244311
H29   H     H_    0.213234 0.303592 0.729114 0.204996
H30   H     H_    0.241921 0.382235 0.787563 0.284550
O17   O     O_3   0.439767 0.667240 0.319637 -0.696556
H31   H     H_    0.400986 0.649999 0.351632 0.334414
O18   O     O_3   0.580596 0.652727 0.682262 -0.698648
H32   H     H_    0.611306 0.630220 0.647845 0.322660
O19   O     O_3   0.047607 0.645894 0.444220 -0.487131
C61   C     C_3   0.023994 0.615525 0.388913 0.094201
H33   H     H_    0.968858 0.562765 0.390730 0.103110
H34   H     H_    0.080708 0.582515 0.366083 0.141232
C62   C     C_3   0.992385 0.702826 0.354962 -0.692741
H35   H     H_    0.046099 0.757132 0.351917 0.263267
H36   H     H_    0.972726 0.679819 0.311474 0.185350
H37   H     H_    0.934666 0.736464 0.375971 0.253708
O20   O     O_3   0.953564 0.339981 0.463689 -0.525295
C63   C     C_3   0.973872 0.351454 0.405699 0.034889
H38   H     H_    0.028792 0.403826 0.400801 0.127762
H39   H     H_    0.915707 0.376217 0.380175 0.133569
C64   C     C_3   0.004058 0.254590 0.382039 -0.718117
H40   H     H_    0.950499 0.200260 0.385888 0.247938
H41   H     H_    0.021147 0.262741 0.336541 0.197005
H42   H     H_    0.063122 0.228625 0.405827 0.262780
O21   O     O_3   0.949737 0.663275 0.544366 -0.486772
C65   C     C_3   0.972672 0.653385 0.602302 0.090917
H43   H     H_    0.030054 0.603871 0.607089 0.105313
H44   H     H_    0.916654 0.625996 0.628116 0.136245
C66   C     C_3   0.999428 0.751868 0.625593 -0.686267
H45   H     H_    0.943366 0.803406 0.621799 0.265226
H46   H     H_    0.018604 0.744986 0.671046 0.184150
H47   H     H_    0.056355 0.780570 0.601526 0.254181
O22   O     O_3   0.052374 0.360347 0.564557 -0.524550
C67   C     C_3   0.035767 0.393400 0.620176 0.036437
H48   H     H_    0.978042 0.443009 0.619823 0.131606
H49   H     H_    0.093869 0.430987 0.639491 0.130799
C68   C     C_3   0.013724 0.307094 0.657546 -0.735499
H50   H     H_    0.070279 0.255907 0.659004 0.240878
H51   H     H_    0.999692 0.332185 0.701342 0.199381
H52   H     H_    0.954769 0.269006 0.640392 0.263860
O23   O     O_3   0.224887 0.638266 0.434015 -0.662665
H53   H     H_    0.278496 0.608986 0.417599 0.311372
O24   O     O_3   0.767702 0.340796 0.460628 -0.694442
H54   H     H_    0.808388 0.288215 0.449469 0.363359
O25   O     O_3   0.772478 0.657102 0.552092 -0.654705
H55   H     H_    0.723661 0.631418 0.575248 0.317650
O26   O     O_3   0.238525 0.361819 0.562067 -0.701285
H56   H     H_    0.199359 0.315662 0.581692 0.361353
O27   O     O_3   0.596443 0.056192 0.581664 -0.689108
H57   H     H_    0.626305 0.103184 0.607198 0.327567
O28   O     O_3   0.594071 0.943461 0.418326 -0.696914
H58   H     H_    0.623181 0.896357 0.392804 0.329819
O29   O     O_3   0.403698 0.056648 0.418248 -0.689879
H59   H     H_    0.373868 0.103783 0.392702 0.326574
O30   O     O_3   0.405946 0.943747 0.581612 -0.698578
H60   H     H_    0.376794 0.896733 0.607131 0.327394

loop_
_geom_bond_atom_site_label_1
_geom_bond_atom_site_label_2
_ccdc_geom_bond_type
C31   O29   S    
Cu1   O3    S    
C42   O12   S    
C56   H18   S    
C39   N1    A    
O30   H60   S    
Cu1   O1    S    
C65   C66   S    
O15   C57   S    
C54   H13   S    
C15   C19   A    
C66   H46   S    
C58   H23   S    
C59   H27   S    
C17   C26   A    
C32   C36   A    
O17   H31   S    
C11   H9    S    
C60   H29   S    
C12   H10   S    
C15   C25   A    
C59   H26   S    
O18   H32   S    
C32   O30   S    
C29   C33   A    
C7    C27   S    
C30   C38   A    
C35   H5    S    
Cu1   N4    S    
C40   C48   A    
C61   H33   S    
C62   H37   S    
Cu2   O6    S    
O22   C67   S    
O27   H57   S    
C20   C24   A    
C49   C51   A    
C50   C52   A    
O24   H54   S    
C32   C38   A    
C16   O20   S    
C51   O13   S    
C27   O5    A    
C3    C13   A    
C13   N2    S    
C64   H42   S    
C45   C47   A    
C66   H45   S    
C28   O6    A    
C58   H24   S    
C40   N2    A    
C1    O1    A    
C4    C14   A    
C41   C43   A    
C67   C68   S    
C52   O14   S    
Cu1   O7    S    
C18   C25   A    
C42   C44   A    
C68   H51   S    
C44   C46   A    
C68   H50   S    
C61   H34   S    
C22   O26   S    
C54   H14   S    
C16   C26   A    
C30   O28   S    
C66   H47   S    
C46   C48   A    
C48   C51   A    
C1    O4    A    
C67   H48   S    
C30   C34   A    
C4    C6    A    
C60   H30   S    
C34   N4    A    
C5    C7    A    
C43   C49   A    
C6    C8    A    
Cu2   N3    S    
C63   C64   S    
C3    C5    A    
C25   C26   S    
Cu1   Cu2   S    
C53   H11   S    
O13   C53   S    
C15   O19   S    
C61   C62   S    
C19   C23   A    
C65   H44   S    
C37   C38   S    
C43   C45   A    
C3    O15   S    
C55   H17   S    
O28   H58   S    
Cu2   O2    S    
C35   N3    A    
C16   C20   A    
C49   H1    S    
C5    H7    S    
C34   H4    S    
C9    C11   A    
C62   H35   S    
C65   H43   S    
C10   C12   A    
Cu2   O8    S    
C8    C10   A    
C12   C14   A    
C1    C23   S    
C58   H25   S    
C53   H12   S    
C2    C24   S    
O20   C63   S    
C8    C28   S    
C40   O10   S    
C45   C46   A    
C29   C37   A    
C27   O8    A    
C57   C58   S    
C39   O9    S    
C68   H52   S    
C33   N3    A    
C55   C56   S    
C39   C47   A    
C64   H40   S    
C4    O16   S    
C54   H15   S    
C44   C50   A    
C7    C9    A    
C63   H39   S    
C18   C22   A    
C18   O22   S    
Cu1   O5    S    
C36   H6    S    
C41   O11   S    
C29   O27   S    
C36   N4    A    
C47   C52   A    
C33   H3    S    
C56   H20   S    
C53   C54   S    
O16   C59   S    
C57   H22   S    
C20   O24   S    
C9    O17   S    
C6    H8    S    
O14   C55   S    
C2    O2    A    
O19   C61   S    
C17   O21   S    
C11   C13   A    
C55   H16   S    
O21   C65   S    
O29   H59   S    
C63   H38   S    
C19   O23   S    
C14   N1    S    
C31   C35   A    
C41   N1    A    
C50   H2    S    
C62   H36   S    
C31   C37   A    
Cu2   O4    S    
C56   H19   S    
C57   H21   S    
C21   C24   A    
C60   H28   S    
O26   H56   S    
C42   N2    A    
C21   O25   S    
C22   C23   A    
O25   H55   S    
O23   H53   S    
C28   O7    A    
C67   H49   S    
C10   O18   S    
C2    O3    A    
C64   H41   S    
C59   C60   S    
C17   C21   A    
