data_mof_unit_17020.cif
_audit_creation_date              2012-12-10T18:31:58-0500
_audit_creation_method            fapswitch 2.2
_symmetry_space_group_name_H-M    P1
_symmetry_Int_Tables_number       1
_space_group_crystal_system       triclinic
_cell_length_a                    10.63562
_cell_length_b                    14.955012
_cell_length_c                    15.519679
_cell_angle_alpha                 80.959779
_cell_angle_beta                  89.927678
_cell_angle_gamma                 104.349242
_cell_volume                      2359.69355884

loop_
_atom_site_label
_atom_site_type_symbol
_atom_type_description
_atom_site_fract_x
_atom_site_fract_y
_atom_site_fract_z
_atom_type_partial_charge
C1    C     C_R   0.480285 0.440455 0.662436 0.870598
C2    C     C_R   0.430274 0.437636 0.901985 0.093587
C3    C     C_R   0.428078 0.344063 0.937328 0.128181
C4    C     C_R   0.742024 0.500516 0.499714 0.837237
C5    C     C_R   0.427314 0.503392 0.958258 0.082329
C6    C     C_R   0.442207 0.477375 0.048557 0.066560
C7    C     C_R   0.431055 0.382029 0.082399 -0.230869
C8    C     C_R   0.422297 0.316345 0.027415 -0.228740
C9    C     C_R   0.411773 0.594332 0.927619 -0.233531
C10   C     C_R   0.421963 0.659954 0.983209 -0.243848
C11   C     C_R   0.451703 0.638076 0.070053 0.176751
C12   C     C_3   0.121530 0.499205 0.498408 0.147732
C13   C     C_R   0.465594 0.547318 0.102439 0.089414
C14   C     C_R   0.467070 0.705423 0.125438 -0.202237
C15   C     C_R   0.494071 0.682556 0.212952 -0.214275
C16   C     C_R   0.517314 0.558958 0.337679 0.853335
C17   C     C_R   0.505734 0.529629 0.187503 -0.256979
C18   C     C_R   0.661424 0.828720 0.657523 -0.329704
C19   C     C_R   0.637991 0.743503 0.627452 -0.029481
C20   C     C_R   0.530691 0.801805 0.505207 0.266825
C21   C     C_R   0.531144 0.882987 0.541656 -0.002571
C22   C     C_R   0.608234 0.899229 0.614462 0.141196
C23   C     C_3   0.039167 0.406203 0.474365 -0.401429
C24   C     C_R   0.461048 0.949002 0.507709 0.086113
C25   C     C_R   0.496042 0.040186 0.529869 0.077672
C26   C     C_R   0.581904 0.056940 0.598367 -0.243604
C27   C     C_R   0.632298 0.985920 0.642455 -0.200655
C28   C     C_R   0.258096 0.499434 0.499557 0.834445
C29   C     C_R   0.351426 0.924358 0.457255 -0.246769
C30   C     C_R   0.293426 0.991666 0.415432 -0.223010
C31   C     C_R   0.340574 0.084867 0.425238 0.185762
C32   C     C_R   0.440866 0.110096 0.483870 -0.001651
C33   C     C_R   0.286245 0.152949 0.378563 -0.322705
C34   C     C_3   0.102945 0.581642 0.429554 -0.402206
C35   C     C_R   0.330736 0.245193 0.390841 0.007864
C36   C     C_R   0.482076 0.204866 0.492851 -0.070690
C37   C     C_3   0.932053 0.512578 0.589364 -0.475658
C38   C     C_3   0.075630 0.510576 0.590018 -0.405677
C39   C     C_3   0.896367 0.405850 0.476664 -0.372672
C40   C     C_3   0.958461 0.583883 0.429009 0.035931
C41   C     C_3   0.879162 0.501002 0.497679 0.170824
C42   C     C_3   0.468189 0.236004 0.736594 -0.898113
C43   C     C_3   0.510421 0.798308 0.410020 -0.896375
C44   C     C_3   0.907567 0.585252 0.335927 -0.938718
C45   C     C_R   0.458920 0.401920 0.756172 -0.087124
C46   C     C_R   0.511823 0.593690 0.244487 -0.062401
C47   C     C_R   0.435542 0.279565 0.882419 -0.207049
C48   C     C_R   0.452463 0.307371 0.791808 0.200852
C49   C     C_R   0.445407 0.464445 0.811619 -0.324437
H1    H     H_    0.875333 0.455323 0.639729 0.170512
H2    H     H_    0.453699 0.536117 0.783169 0.172143
H3    H     H_    0.922337 0.579933 0.607108 0.179686
H4    H     H_    0.425993 0.355810 0.151525 0.147012
H5    H     H_    0.387382 0.616013 0.861527 0.148296
H6    H     H_    0.454612 0.774686 0.101705 0.133852
H7    H     H_    0.693208 0.999731 0.697223 0.142820
H8    H     H_    0.557547 0.230439 0.535581 0.125545
H9    H     H_    0.287009 0.298311 0.357415 0.130728
H10   H     H_    0.212321 0.970816 0.374498 0.144025
H11   H     H_    0.717756 0.838573 0.714965 0.152538
H12   H     H_    0.139036 0.574436 0.364195 0.170532
H13   H     H_    0.673266 0.686987 0.662898 0.148001
H14   H     H_    0.134418 0.576570 0.609140 0.185523
H15   H     H_    0.606657 0.122754 0.622227 0.138587
H16   H     H_    0.309063 0.852468 0.450060 0.161175
H17   H     H_    0.209020 0.134779 0.334088 0.142843
H18   H     H_    0.088537 0.451601 0.639807 0.167707
H19   H     H_    0.843814 0.347349 0.527624 0.169160
H20   H     H_    0.053637 0.345434 0.521282 0.183141
H21   H     H_    0.951318 0.650717 0.449432 0.161436
H22   H     H_    0.162138 0.649376 0.444998 0.153086
H23   H     H_    0.854703 0.391347 0.413108 0.185650
H24   H     H_    0.386400 0.222985 0.692065 0.259636
H25   H     H_    0.562094 0.261173 0.698382 0.231708
H26   H     H_    0.468433 0.167804 0.777013 0.225353
H27   H     H_    0.420347 0.744651 0.401588 0.247451
H28   H     H_    0.507464 0.866579 0.371404 0.218563
H29   H     H_    0.596851 0.782740 0.381854 0.253488
H30   H     H_    0.916682 0.522799 0.308607 0.251793
H31   H     H_    0.804461 0.588423 0.335295 0.238901
H32   H     H_    0.964749 0.648454 0.292335 0.246008
H33   H     H_    0.068905 0.397784 0.407849 0.174437
H34   H     H_    0.416339 0.244244 0.055553 0.143955
H35   H     H_    0.531575 0.465080 0.211256 0.158316
H36   H     H_    0.497723 0.733372 0.255559 0.158811
H37   H     H_    0.408801 0.728633 0.957663 0.146008
H38   H     H_    0.432588 0.207943 0.910717 0.135289
N1    N     N_R   0.573860 0.731700 0.552730 -0.096671
N2    N     N_R   0.426060 0.268290 0.447230 -0.098460
O1    O     O_R   0.462770 0.383110 0.605620 -0.605373
O2    O     O_R   0.510160 0.531900 0.639510 -0.625892
O3    O     O_R   0.661510 0.425600 0.483070 -0.627479
O4    O     O_R   0.708900 0.574390 0.516960 -0.624283
O5    O     O_R   0.489840 0.468100 0.360490 -0.615219
O6    O     O_R   0.537230 0.616890 0.394380 -0.614884
O7    O     O_R   0.291100 0.425610 0.483040 -0.625798
O8    O     O_R   0.338490 0.574400 0.516930 -0.620299
Zn1   Zn    Zn3+2 0.468350 0.400660 0.477370 0.926345
Zn2   Zn    Zn3+2 0.531650 0.599340 0.522630 0.924268

loop_
_geom_bond_atom_site_label_1
_geom_bond_atom_site_label_2
_ccdc_geom_bond_type
C36   N2    A    
C28   O8    A    
C1    O1    A    
C23   H33   S    
C8    H34   S    
C39   H19   S    
C23   H20   S    
O3    Zn1   S    
C7    C8    A    
C39   C41   S    
C43   H29   S    
C19   N1    A    
C12   C23   S    
C42   H26   S    
C37   C38   S    
C40   H21   S    
C12   C28   S    
C35   H9    S    
C34   C40   S    
C32   C36   A    
C30   C31   A    
C11   C14   A    
O6    Zn2   S    
C4    C41   S    
O5    Zn1   S    
C19   H13   S    
C18   C19   A    
C26   H15   S    
C24   C29   A    
C47   C48   A    
C42   H24   S    
O7    Zn1   S    
C39   H23   S    
C31   C33   A    
C9    C10   A    
O4    Zn2   S    
C15   H36   S    
C25   C32   A    
C14   H6    S    
C1    O2    A    
C21   C22   A    
C12   C38   S    
O8    Zn2   S    
C33   H17   S    
C42   H25   S    
C44   H31   S    
C17   C46   A    
C44   H32   S    
C16   C46   S    
C37   H3    S    
C27   H7    S    
C49   H2    S    
C25   C26   A    
C34   H12   S    
C47   H38   S    
C5    C9    A    
C29   C30   A    
C2    C49   A    
C31   C32   A    
C45   C49   A    
C30   H10   S    
C26   C27   A    
C42   C48   S    
C24   C25   A    
C29   H16   S    
C35   N2    A    
C18   H11   S    
C40   C41   S    
C3    C8    A    
C22   C27   A    
C2    C5    A    
C7    H4    S    
C12   C34   S    
C38   H18   S    
C20   C43   S    
C36   H8    S    
C38   H14   S    
C45   C48   A    
C43   H27   S    
C10   H37   S    
C16   O6    A    
C18   C22   A    
C44   H30   S    
C6    C7    A    
C43   H28   S    
C16   O5    A    
C13   C17   A    
N2    Zn1   S    
C28   O7    A    
C17   H35   S    
C2    C3    A    
C6    C13   A    
C37   H1    S    
C11   C13   A    
C1    C45   S    
C5    C6    A    
C23   C39   S    
C20   N1    A    
C3    C47   A    
C33   C35   A    
C37   C41   S    
N1    Zn2   S    
C10   C11   A    
C4    O4    A    
C40   C44   S    
C20   C21   A    
C21   C24   A    
C14   C15   A    
C9    H5    S    
C15   C46   A    
O2    Zn2   S    
C34   H22   S    
O1    Zn1   S    
C4    O3    A    
