data_mof_unit_45967.cif
_audit_creation_date              2012-12-11T16:21:54-0500
_audit_creation_method            fapswitch 2.2
_symmetry_space_group_name_H-M    P1
_symmetry_Int_Tables_number       1
_space_group_crystal_system       triclinic
_cell_length_a                    13.50845
_cell_length_b                    14.03147
_cell_length_c                    30.08046
_cell_angle_alpha                 98.020503
_cell_angle_beta                  90.256667
_cell_angle_gamma                 118.687301
_cell_volume                      4935.99099498

loop_
_atom_site_label
_atom_site_type_symbol
_atom_type_description
_atom_site_fract_x
_atom_site_fract_y
_atom_site_fract_z
_atom_type_partial_charge
C1    C     C_R   0.721677 0.099271 0.568958 0.541187
C2    C     C_R   0.349161 0.665473 0.674675 0.030300
C3    C     C_R   0.250275 0.626231 0.645846 0.132941
C4    C     C_R   0.258913 0.658662 0.602946 0.036466
C5    C     C_R   0.221227 0.606608 0.823922 0.110580
C6    C     C_R   0.208195 0.589489 0.868608 -0.119383
C7    C     C_R   0.403135 0.625183 0.878048 -0.016480
C8    C     C_R   0.415762 0.643249 0.833228 -0.125292
C9    C     C_R   0.324691 0.630561 0.806140 0.051484
C10   C     C_1   0.336730 0.640609 0.759645 -0.009396
C11   C     C_1   0.342892 0.649583 0.720638 -0.032373
C12   C     C_R   0.383707 0.787994 0.550724 0.536779
C13   C     C_R   0.296093 0.593279 0.895512 0.011194
C14   C     C_3   0.212935 0.136048 0.720815 -0.129863
C15   C     C_3   0.237364 0.068863 0.752037 -0.120801
C16   C     C_1   0.292151 0.201463 0.875456 -0.009385
C17   C     C_1   0.362840 0.139385 0.612889 -0.014188
C18   C     C_3   0.278199 0.242214 0.756409 -0.111209
C19   C     C_3   0.302988 0.174541 0.786780 0.059380
C20   C     C_3   0.389120 0.267412 0.733989 0.028804
C21   C     C_3   0.324480 0.162381 0.699213 0.036287
C22   C     C_3   0.412041 0.200438 0.764410 0.143659
C23   C     C_R   0.397260 0.119240 0.569373 0.547062
C24   C     C_3   0.349132 0.094866 0.729670 -0.078415
C25   C     C_1   0.296692 0.185026 0.835462 -0.040672
C26   C     C_1   0.341548 0.151963 0.651287 -0.054575
C27   C     C_3   0.896671 0.273801 0.734109 -0.133393
C28   C     C_3   0.800139 0.240276 0.766568 -0.098345
C29   C     C_1   0.897870 0.204237 0.878117 -0.011691
C30   C     C_1   0.772360 0.132367 0.613987 -0.016263
C31   C     C_3   0.949219 0.215950 0.758675 -0.080233
C32   C     C_3   0.851903 0.181909 0.790209 0.023920
C33   C     C_3   0.874509 0.108018 0.726502 0.123011
C34   C     C_R   0.720704 0.095390 0.442947 0.539354
C35   C     C_3   0.824221 0.164779 0.701934 0.083321
C36   C     C_3   0.779173 0.072190 0.758451 -0.086599
C37   C     C_3   0.729037 0.131066 0.733971 0.010283
C38   C     C_1   0.871603 0.192816 0.838774 -0.055858
C39   C     C_1   0.802036 0.150988 0.653341 -0.038687
C40   C     C_3   0.267928 0.582144 0.258014 -0.125147
C41   C     C_3   0.244054 0.651815 0.228141 -0.124458
C42   C     C_1   0.310493 0.609261 0.110999 -0.020518
C43   C     C_1   0.366490 0.736867 0.378126 -0.017713
C44   C     C_3   0.366455 0.590593 0.229255 -0.078728
C45   C     C_R   0.382180 0.784403 0.424421 0.541538
C46   C     C_3   0.342738 0.660989 0.200086 0.038313
C47   C     C_3   0.448039 0.697838 0.260569 0.144251
C48   C     C_3   0.351655 0.689018 0.289003 0.062956
C49   C     C_3   0.425813 0.767290 0.231110 0.026786
C50   C     C_3   0.328039 0.759298 0.259759 -0.107582
C51   C     C_1   0.330050 0.638571 0.150993 -0.060051
C52   C     C_1   0.358143 0.709769 0.338051 -0.043212
C53   C     C_R   0.358169 0.131690 0.400371 -0.000975
C54   C     C_R   0.418049 0.234221 0.385880 -0.104455
C55   C     C_R   0.403649 0.244180 0.340886 0.116635
C56   C     C_R   0.396093 0.114324 0.442947 0.543243
C57   C     C_R   0.328386 0.150092 0.310551 0.065346
C58   C     C_R   0.261947 0.050208 0.325674 -0.151185
C59   C     C_R   0.276132 0.041069 0.370448 -0.140230
C60   C     C_R   0.239187 0.090841 0.146947 -0.118401
C61   C     C_R   0.231758 0.110777 0.103306 -0.124775
C62   C     C_R   0.411880 0.279389 0.119339 -0.127920
C63   C     C_R   0.419029 0.259206 0.162984 -0.111256
C64   C     C_R   0.330712 0.167130 0.177166 0.033583
C65   C     C_1   0.328290 0.157570 0.223782 -0.021571
C66   C     C_1   0.326541 0.153050 0.263266 0.002996
C67   C     C_R   0.367252 0.732253 0.590333 0.007388
C68   C     C_R   0.315598 0.207842 0.089784 0.019842
C69   C     C_R   0.775582 0.128692 0.401299 0.020824
C70   C     C_R   0.755966 0.043742 0.365711 -0.146577
C71   C     C_R   0.775866 0.065124 0.322140 -0.166575
C72   C     C_R   0.815597 0.171522 0.313178 0.064707
C73   C     C_R   0.845259 0.259908 0.348375 0.134620
C74   C     C_R   0.827930 0.239367 0.393307 0.002628
C75   C     C_R   0.893164 0.308261 0.167534 0.109156
C76   C     C_R   0.920224 0.314679 0.122788 -0.145588
C77   C     C_R   0.836825 0.115378 0.105840 0.087187
C78   C     C_R   0.464412 0.763400 0.618732 -0.156568
C79   C     C_R   0.808661 0.109034 0.150434 -0.141942
C80   C     C_R   0.840448 0.204858 0.181400 0.046410
C81   C     C_1   0.829169 0.196434 0.228105 0.007706
C82   C     C_1   0.823240 0.187313 0.267142 0.019736
C83   C     C_R   0.897629 0.219464 0.092288 0.038132
C84   C     C_R   0.283193 0.233083 0.921756 0.546529
C85   C     C_R   0.265959 0.546831 0.937810 0.540374
C86   C     C_R   0.945387 0.222036 0.922885 0.547157
C87   C     C_R   0.292870 0.243313 0.048950 0.542381
C88   C     C_R   0.275492 0.558970 0.065051 0.544432
C89   C     C_R   0.455307 0.730538 0.660464 -0.155112
C90   C     C_R   0.953492 0.233064 0.049811 0.567486
Cr1   Cr    Cr6+3 0.583430 0.162610 0.509470 1.017820
Cr2   Cr    Cr6+3 0.584210 0.916680 0.495400 1.022753
Cr3   Cr    Cr6+3 0.332380 0.920740 0.495100 1.017650
Cr4   Cr    Cr6+3 0.086810 0.177030 0.983130 1.035131
Cr5   Cr    Cr6+3 0.337180 0.419300 0.994610 1.011358
Cr6   Cr    Cr6+3 0.084840 0.422330 0.995830 1.018048
H1    H     H_    0.126141 0.566219 0.881343 0.134554
H2    H     H_    0.131994 0.110344 0.701374 0.157217
H3    H     H_    0.376377 0.033196 0.718101 0.110530
H4    H     H_    0.249434 0.302919 0.767879 0.105760
H5    H     H_    0.769623 0.295066 0.784011 0.114580
H6    H     H_    0.944483 0.355781 0.723552 0.104151
H7    H     H_    0.731345 0.989501 0.768423 0.102242
H8    H     H_    0.040180 0.249448 0.769217 0.106679
H9    H     H_    0.159356 0.633019 0.214103 0.110597
H10   H     H_    0.202675 0.506337 0.269483 0.112924
H11   H     H_    0.311942 0.828300 0.272667 0.110616
H12   H     H_    0.384102 0.522524 0.216530 0.116456
H13   H     H_    0.156842 0.053870 0.081225 0.130201
H14   H     H_    0.170710 0.019202 0.157805 0.108160
H15   H     H_    0.203496 0.977823 0.302312 0.109076
H16   H     H_    0.228925 0.961015 0.380659 0.140852
H17   H     H_    0.480694 0.304858 0.408834 0.123665
H18   H     H_    0.490281 0.318456 0.186360 0.130373
H19   H     H_    0.477805 0.354678 0.109887 0.134412
H20   H     H_    0.966402 0.395128 0.112803 0.132616
H21   H     H_    0.717172 0.958729 0.370866 0.143984
H22   H     H_    0.766511 0.029326 0.161375 0.101362
H23   H     H_    0.755190 0.997394 0.294974 0.103171
H24   H     H_    0.548194 0.819225 0.609925 0.144965
H25   H     H_    0.495850 0.664250 0.818908 0.106995
H26   H     H_    0.531269 0.760762 0.682670 0.112370
H27   H     H_    0.174531 0.987311 0.759960 0.118148
O1    O     O_R   0.493980 0.188910 0.559650 -0.508623
O2    O     O_R   0.480180 0.824400 0.444640 -0.492229
O3    O     O_R   0.308310 0.808540 0.439800 -0.515603
O4    O     O_R   0.340740 0.020600 0.455570 -0.501155
O5    O     O_3   0.500010 0.000010 0.499990 -0.243144
O6    O     O_R   0.969650 0.150960 0.933380 -0.505614
O7    O     O_R   0.187740 0.180870 0.937580 -0.494773
O8    O     O_R   0.358510 0.327410 0.940870 -0.514744
O9    O     O_R   0.324180 0.507870 0.953930 -0.502585
O10   O     O_R   0.170560 0.527890 0.952050 -0.519818
O11   O     O_R   0.987620 0.318470 0.945550 -0.496881
O12   O     O_R   0.678640 0.153520 0.554450 -0.497067
O13   O     O_R   0.976400 0.159270 0.031530 -0.473526
O14   O     O_R   0.194000 0.188570 0.028560 -0.504142
O15   O     O_R   0.365260 0.335720 0.039020 -0.515603
O16   O     O_R   0.330440 0.515580 0.044910 -0.495153
O17   O     O_R   0.177310 0.536200 0.050190 -0.511687
O18   O     O_R   0.993870 0.326170 0.036530 -0.516062
O19   O     O_3   0.169610 0.339550 0.991190 -0.247766
O20   O     O_R   0.698130 0.004030 0.549500 -0.511760
O21   O     O_R   0.481060 0.827210 0.535360 -0.503761
O22   O     O_R   0.309260 0.811560 0.537660 -0.516132
O23   O     O_R   0.341620 0.023400 0.546290 -0.492436
O24   O     O_R   0.493030 0.185890 0.461780 -0.516331
O25   O     O_R   0.677760 0.150720 0.463730 -0.497293
O26   O     O_R   0.697180 0.001010 0.451640 -0.516136
N1    N     N_3   0.520414 0.236317 0.788935 -0.636250
H28   H     H_    0.582265 0.264697 0.766132 0.217382
H29   H     H_    0.536788 0.304790 0.812874 0.230257
C91   C     C_3   0.475039 0.379947 0.723845 -0.408163
H30   H     H_    0.508185 0.439742 0.755660 0.125343
H31   H     H_    0.546128 0.374585 0.707543 0.133467
H32   H     H_    0.433862 0.408359 0.700883 0.141131
C92   C     C_3   0.604085 0.079784 0.719206 -0.411145
H33   H     H_    0.554665 0.060948 0.749157 0.162547
H34   H     H_    0.588908 0.137566 0.702307 0.136929
H35   H     H_    0.576939 0.002221 0.695296 0.131109
N2    N     N_3   0.914354 0.035636 0.704004 -0.648958
H36   H     H_    0.938110 0.004019 0.728991 0.219957
H37   H     H_    0.845119 0.969048 0.684605 0.229409
N3    N     N_3   0.128760 0.596394 0.796029 -0.630914
H38   H     H_    0.060102 0.584245 0.814954 0.221695
H39   H     H_    0.101307 0.525367 0.772061 0.217747
C93   C     C_3   0.515726 0.871820 0.216022 -0.409423
H40   H     H_    0.562616 0.935076 0.245946 0.133652
H41   H     H_    0.575854 0.853848 0.196389 0.122961
H42   H     H_    0.474863 0.903641 0.194639 0.142920
N4    N     N_3   0.558955 0.722162 0.279089 -0.625972
H43   H     H_    0.608925 0.727942 0.252105 0.223649
H44   H     H_    0.595363 0.800210 0.298788 0.222781
N5    N     N_3   0.141042 0.557511 0.660563 -0.650695
H45   H     H_    0.140325 0.487585 0.669252 0.228926
H46   H     H_    0.129052 0.600702 0.689366 0.246027
N6    N     N_3   0.469758 0.347310 0.325202 -0.617039
H47   H     H_    0.413898 0.374050 0.315619 0.231980
H48   H     H_    0.525123 0.407192 0.351410 0.225674
N7    N     N_3   0.923743 0.406362 0.199427 -0.606669
H49   H     H_    0.954730 0.475085 0.183085 0.216262
H50   H     H_    0.990411 0.418335 0.221370 0.231926
N8    N     N_3   0.890376 0.369121 0.337817 -0.621682
H51   H     H_    0.839777 0.402499 0.350540 0.238711
H52   H     H_    0.972409 0.417511 0.353342 0.224535
C94   C     C_3   0.864715 0.334898 0.431476 -0.387429
H53   H     H_    0.952684 0.399253 0.428367 0.115825
H54   H     H_    0.807296 0.370734 0.430750 0.138221
H55   H     H_    0.866019 0.310591 0.464897 0.140447
C95   C     C_3   0.153959 0.616211 0.571371 -0.356651
H56   H     H_    0.080337 0.543732 0.581341 0.161578
H57   H     H_    0.130413 0.681747 0.570911 0.154276
H58   H     H_    0.169743 0.589757 0.536823 0.119762
N9    N     N_3   0.806652 0.016378 0.074946 -0.602835
H59   H     H_    0.843296 0.974378 0.088145 0.226409
H60   H     H_    0.718714 0.966905 0.073188 0.223914
C96   C     C_3   0.503878 0.638999 0.905689 -0.375564
H61   H     H_    0.514289 0.689363 0.939078 0.139452
H62   H     H_    0.492766 0.557281 0.910047 0.164895
H63   H     H_    0.583443 0.681718 0.889070 0.113535

loop_
_geom_bond_atom_site_label_1
_geom_bond_atom_site_label_2
_ccdc_geom_bond_type
C7    C13   A    
N9    H60   S    
N4    H43   S    
C54   H17   S    
C40   C41   S    
C92   H33   S    
C96   H63   S    
C24   H3    S    
C73   C74   A    
C14   C18   S    
C33   N2    S    
C57   C66   S    
C21   C26   S    
C61   H13   S    
Cr2   O2    S    
Cr1   O24   S    
N2    H36   S    
C53   C59   A    
C7    C8    A    
C93   H41   S    
C53   C54   A    
C15   C19   S    
N4    H44   S    
C46   C49   S    
C17   C23   S    
C41   H9    S    
C36   H7    S    
C17   C26   T    
C32   C36   S    
C14   C21   S    
N3    H38   S    
C35   C37   S    
C49   C93   S    
N8    H52   S    
C85   O9    A    
C5    C6    A    
C73   N8    S    
C8    H25   S    
C89   H26   S    
C77   C83   A    
C70   H21   S    
C79   H22   S    
C16   C84   S    
C33   C36   S    
C62   H19   S    
C18   C19   S    
C56   O4    A    
C37   C92   S    
C96   H62   S    
Cr2   O20   S    
N5    H45   S    
C88   O17   A    
C95   H58   S    
C76   H20   S    
Cr6   O18   S    
Cr3   O3    S    
C63   H18   S    
C34   O25   A    
C28   H5    S    
C86   O11   A    
C31   C32   S    
C45   O2    A    
C8    C9    A    
N6    H48   S    
C29   C38   T    
Cr4   O13   S    
C41   C46   S    
C31   C33   S    
Cr3   O22   S    
C70   C71   A    
C32   C38   S    
C91   H31   S    
C75   C80   A    
C18   C20   S    
C44   C47   S    
C42   C51   T    
C48   C50   S    
N9    H59   S    
C92   H34   S    
Cr5   O8    S    
C55   N6    S    
C96   H61   S    
C67   C78   A    
C18   H4    S    
C87   O14   A    
C19   C25   S    
C2    C11   S    
Cr2   O5    S    
C76   C83   A    
Cr1   O25   S    
N2    H37   S    
C34   O26   A    
C44   C46   S    
C14   H2    S    
C93   H42   S    
C44   H12   S    
C78   C89   A    
C23   O23   A    
Cr4   O6    S    
Cr1   O5    S    
Cr2   O21   S    
C27   C31   S    
C58   H15   S    
Cr4   O19   S    
C5    N3    S    
C4    C95   S    
C28   C32   S    
C19   C22   S    
C47   C49   S    
C20   C91   S    
C93   H40   S    
C80   C81   S    
Cr6   O11   S    
C12   C67   S    
C27   C35   S    
C58   C59   A    
C63   C64   A    
C46   C51   S    
C81   C82   T    
C12   O21   A    
C60   C61   A    
C12   O22   A    
C7    C96   S    
C2    C89   A    
C78   H24   S    
C75   C76   A    
Cr3   O4    S    
C88   O16   A    
C5    C9    A    
C62   C63   A    
C1    O20   A    
C90   O13   A    
C3    N5    S    
C47   C48   S    
C40   C44   S    
C45   O3    A    
C59   H16   S    
C77   C79   A    
N8    H51   S    
C69   C74   A    
Cr4   O7    S    
C20   C21   S    
C91   H32   S    
C75   N7    S    
C43   C45   S    
C34   C69   S    
C29   C86   S    
Cr6   O10   S    
C15   H27   S    
C15   C24   S    
C27   H6    S    
C20   C22   S    
C49   C50   S    
C92   H35   S    
Cr1   O1    S    
C55   C57   A    
C50   H11   S    
C22   C24   S    
C42   C88   S    
C87   O15   A    
C94   H54   S    
C3    C4    A    
C41   C50   S    
Cr2   O26   S    
N7    H49   S    
C40   H10   S    
C6    H1    S    
C9    C10   S    
C53   C56   S    
C16   C25   T    
C40   C48   S    
C83   C90   S    
C54   C55   A    
C36   C37   S    
Cr5   O15   S    
C95   H57   S    
N7    H50   S    
C14   C15   S    
C72   C73   A    
Cr6   O17   S    
C4    C67   A    
C47   N4    S    
C86   O6    A    
C23   O1    A    
C71   H23   S    
C84   O8    A    
Cr5   O16   S    
C62   C68   A    
C60   C64   A    
C64   C65   S    
C94   H55   S    
N3    H39   S    
C2    C3    A    
C94   H53   S    
Cr3   O5    S    
C71   C72   A    
C77   N9    S    
C31   H8    S    
C6    C13   A    
C68   C87   S    
C61   C68   A    
C57   C58   A    
Cr5   O9    S    
C28   C37   S    
C56   O24   A    
C35   C39   S    
C84   O7    A    
C1    C30   S    
C33   C35   S    
C30   C39   T    
N1    H29   S    
C65   C66   T    
C69   C70   A    
C43   C52   T    
N5    H46   S    
C95   H56   S    
C90   O18   A    
C60   H14   S    
C10   C11   T    
Cr6   O19   S    
C79   C80   A    
Cr3   O23   S    
C48   C52   S    
Cr1   O12   S    
C22   N1    S    
Cr5   O19   S    
N6    H47   S    
C21   C24   S    
C13   C85   S    
C27   C28   S    
Cr4   O14   S    
N1    H28   S    
C91   H30   S    
C1    O12   A    
C72   C82   S    
C85   O10   A    
C74   C94   S    
