data_mof_unit_56175.cif
_audit_creation_date              2013-03-05T16:06:13-0500
_audit_creation_method            fapswitch 2.2
_symmetry_space_group_name_H-M    P1
_symmetry_Int_Tables_number       1
_space_group_crystal_system       triclinic
_cell_length_a                    6.919353
_cell_length_b                    28.826901
_cell_length_c                    32.122006
_cell_angle_alpha                 100.983213
_cell_angle_beta                  89.569131
_cell_angle_gamma                 90.482077
_cell_volume                      6289.47117805

loop_
_atom_site_label
_atom_site_type_symbol
_atom_site_description
_atom_site_fract_x
_atom_site_fract_y
_atom_site_fract_z
_atom_type_partial_charge
O1    O     O_R   0.494350 0.453170 0.452520 -0.595836
O2    O     O_R   0.820980 0.455850 0.538220 -0.595644
O3    O     O_R   0.994300 0.546830 0.547480 -0.598344
C1    C     C_R   0.651424 0.445566 0.551573 0.947709
O4    O     O_R   0.823860 0.447590 0.452270 -0.589957
O5    O     O_R   0.997200 0.538510 0.460920 -0.584804
C2    C     C_R   0.654908 0.434587 0.436650 0.948793
O6    O     O_R   0.491440 0.461490 0.539080 -0.592801
O7    O     O_3   0.661790 0.529840 0.502940 -0.275371
V1    V     V_3+5 0.935470 0.494460 0.499450 1.170513
O8    O     O_R   0.327090 0.544150 0.461780 -0.616791
C3    C     C_R   0.159023 0.555438 0.449193 0.961187
O9    O     O_R   0.324210 0.552410 0.547730 -0.603151
C4    C     C_R   0.155081 0.565467 0.563284 0.979820
V2    V     V_3+5 0.435840 0.505540 0.500550 1.157249
O10   O     O_3   0.159650 0.470160 0.497060 -0.267438
C5    C     C_R   0.206840 0.862686 0.892393 -0.067487
C6    C     C_R   0.214227 0.828769 0.854497 -0.148007
H1    H     H_    0.337968 0.805647 0.848065 0.204086
C7    C     C_R   0.062612 0.823436 0.825105 -0.047538
C8    C     C_R   0.900121 0.852671 0.834178 0.878449
C9    C     C_R   0.893765 0.887647 0.870914 -0.244776
H2    H     H_    0.768327 0.910294 0.876343 0.178150
C10   C     C_R   0.046516 0.893827 0.900190 -0.317368
C11   C     C_R   0.031489 0.796284 0.745675 0.731790
C12   C     C_R   0.044812 0.760896 0.709157 0.625308
C13   C     C_R   0.104731 0.715101 0.711994 -0.150785
C14   C     C_R   0.149325 0.705243 0.751935 -0.120615
H3    H     H_    0.194482 0.670138 0.754905 0.181073
C15   C     C_R   0.133262 0.740292 0.788446 -0.246340
H4    H     H_    0.166209 0.731382 0.818869 0.178341
C16   C     C_R   0.073957 0.786226 0.785884 -0.139189
C17   C     C_R   0.295263 0.653591 0.662594 0.782949
C18   C     C_R   0.307401 0.617741 0.626453 -0.333869
H5    H     H_    0.444108 0.600017 0.618775 0.166290
C19   C     C_R   0.144179 0.604389 0.600962 -0.208358
C20   C     C_R   0.969219 0.628280 0.612119 -0.164752
H6    H     H_    0.840838 0.619050 0.593162 0.158769
C21   C     C_R   0.957886 0.664625 0.647781 -0.082051
H7    H     H_    0.821401 0.682368 0.655674 0.213365
C22   C     C_R   0.120090 0.677426 0.673520 0.007512
C23   C     C_R   0.129690 0.654438 0.281659 0.480856
N1    N     N_R   0.114361 0.674458 0.323773 -0.164035
C24   C     C_R   0.087644 0.721933 0.336415 0.615341
C25   C     C_R   0.079564 0.751546 0.306413 -0.140139
C26   C     C_R   0.092318 0.732018 0.262730 0.033219
C27   C     C_R   0.113320 0.682509 0.249607 -0.133654
C28   C     C_R   0.055181 0.800239 0.319708 -0.036987
C29   C     C_R   0.044861 0.830598 0.290667 -0.110531
C30   C     C_R   0.067783 0.812019 0.246557 -0.170007
C31   C     C_R   0.084797 0.762281 0.232553 0.057034
C32   C     C_R   0.093850 0.743028 0.188549 -0.135578
C33   C     C_R   0.115745 0.693254 0.175103 -0.120040
C34   C     C_R   0.123473 0.663193 0.205376 -0.116687
C35   C     C_R   0.078795 0.841330 0.215855 0.585740
N2    N     N_R   0.071614 0.822318 0.173560 -0.156239
C36   C     C_R   0.073561 0.774467 0.159536 0.479039
O11   O     O_2   0.165102 0.607750 0.271280 -0.571537
O12   O     O_2   0.068626 0.740512 0.378105 -0.477444
H8    H     H_    0.038173 0.814835 0.353207 0.211394
O13   O     O_2   0.102356 0.888447 0.227807 -0.520173
O14   O     O_2   0.051439 0.757745 0.117699 -0.569015
C37   C     C_R   0.207238 0.855220 0.113755 -0.061152
H9    H     H_    0.332243 0.832752 0.113197 0.163931
C38   C     C_R   0.196462 0.885841 0.084957 -0.096297
H10   H     H_    0.313019 0.885690 0.062223 0.143099
C39   C     C_R   0.037427 0.915998 0.085050 -0.290722
C40   C     C_R   0.887482 0.915389 0.115616 -0.308712
C41   C     C_R   0.898272 0.883281 0.143765 0.830542
C42   C     C_R   0.058459 0.853530 0.143240 0.007258
C43   C     C_R   0.286076 0.649921 0.383319 0.847865
C44   C     C_R   0.297871 0.622505 0.415360 -0.325368
C45   C     C_R   0.151085 0.588230 0.418340 -0.290723
C46   C     C_R   0.994248 0.584049 0.390123 -0.090595
H11   H     H_    0.880122 0.558434 0.391555 0.137618
C47   C     C_R   0.982884 0.612132 0.359277 -0.077977
H12   H     H_    0.860031 0.608262 0.338176 0.160423
C48   C     C_R   0.128515 0.645057 0.355487 -0.000783
C49   C     C_R   0.740599 0.203943 0.822528 0.491754
N3    N     N_R   0.584322 0.174543 0.823814 -0.188883
C50   C     C_R   0.435448 0.173156 0.795537 0.546149
C51   C     C_R   0.439469 0.202139 0.764800 -0.144888
C52   C     C_R   0.598035 0.232679 0.763340 0.000349
C53   C     C_R   0.750428 0.233577 0.792345 -0.022552
C54   C     C_R   0.288699 0.201297 0.735614 -0.272055
C55   C     C_R   0.294612 0.230290 0.705323 0.835822
C56   C     C_R   0.452354 0.261319 0.703622 -0.288241
C57   C     C_R   0.604042 0.262484 0.732917 -0.075692
C58   C     C_R   0.761797 0.293462 0.731968 0.053166
C59   C     C_R   0.913076 0.294033 0.761084 -0.099070
C60   C     C_R   0.907800 0.264358 0.790778 -0.140431
C61   C     C_R   0.463743 0.291109 0.673412 0.568914
N4    N     N_R   0.617204 0.321715 0.673229 -0.192544
C62   C     C_R   0.764185 0.323393 0.702051 0.501528
O15   O     O_2   0.884844 0.205097 0.850752 -0.516749
O16   O     O_2   0.284304 0.143587 0.796919 -0.526651
H13   H     H_    0.164674 0.178225 0.736146 0.213153
O17   O     O_2   0.323851 0.289031 0.644082 -0.465715
O18   O     O_2   0.911561 0.354389 0.702231 -0.559062
H14   H     H_    0.036813 0.317268 0.760914 0.158766
H15   H     H_    0.027452 0.265706 0.812540 0.172821
C63   C     C_R   0.786381 0.352596 0.615601 -0.013670
H16   H     H_    0.906165 0.329159 0.617487 0.176432
C64   C     C_R   0.795393 0.382931 0.586377 -0.177187
H17   H     H_    0.922947 0.382351 0.566535 0.150970
C65   C     C_R   0.640705 0.413157 0.582431 -0.137029
C66   C     C_R   0.477219 0.412474 0.608626 -0.167452
H18   H     H_    0.356163 0.435498 0.606575 0.134435
C67   C     C_R   0.470106 0.382848 0.638516 -0.065327
H19   H     H_    0.344458 0.383783 0.658956 0.152523
C68   C     C_R   0.624417 0.352455 0.642292 0.161134
C69   C     C_R   0.712744 0.110818 0.857500 -0.003036
H20   H     H_    0.828796 0.105185 0.834320 0.151959
C70   C     C_R   0.701438 0.082728 0.888477 -0.098969
H21   H     H_    0.809149 0.055607 0.888188 0.134446
C71   C     C_R   0.550953 0.088527 0.918776 -0.232751
C72   C     C_R   0.412629 0.124708 0.918130 -0.104370
C73   C     C_R   0.425147 0.152245 0.886321 -0.015802
H22   H     H_    0.321441 0.180037 0.885587 0.176586
C74   C     C_R   0.573862 0.145517 0.855933 0.130789
C75   C     C_R   0.711231 0.109464 0.127278 -0.155665
H23   H     H_    0.833641 0.086171 0.119481 0.131997
C76   C     C_R   0.719891 0.144790 0.163702 0.061104
H24   H     H_    0.848883 0.148102 0.182985 0.127030
C77   C     C_R   0.565377 0.175971 0.175143 0.231785
C78   C     C_R   0.397425 0.170815 0.149566 -0.034653
C79   C     C_R   0.389568 0.134545 0.113201 -0.156497
H25   H     H_    0.261069 0.130300 0.093731 0.171679
C80   C     C_R   0.545824 0.103742 0.101657 -0.170607
C81   C     C_R   0.599413 0.261398 0.210368 0.792442
C82   C     C_R   0.612745 0.296736 0.246859 -0.419965
H26   H     H_    0.622095 0.333406 0.243611 0.214833
C83   C     C_R   0.610370 0.285019 0.287328 -0.354036
C84   C     C_R   0.600447 0.237118 0.290734 0.664894
C85   C     C_R   0.587437 0.201690 0.254250 0.587502
C86   C     C_R   0.584013 0.213568 0.213777 -0.522996
C87   C     C_R   0.785052 0.350775 0.334087 -0.041967
H27   H     H_    0.906939 0.344554 0.312428 0.113310
C88   C     C_R   0.799290 0.386292 0.370358 -0.123648
H28   H     H_    0.931430 0.406915 0.375727 0.127641
C89   C     C_R   0.643455 0.395731 0.398870 -0.173579
C90   C     C_R   0.473894 0.368375 0.390595 -0.150350
H29   H     H_    0.352710 0.375538 0.412376 0.174192
C91   C     C_R   0.458751 0.331892 0.354590 -0.047080
C92   C     C_R   0.616825 0.323005 0.325888 0.204065
O19   O     O_R   0.699170 0.038480 0.960880 -0.578028
O20   O     O_R   0.366800 0.052460 0.047690 -0.602762
O21   O     O_R   0.193520 0.961530 0.039110 -0.588674
C93   C     C_R   0.535606 0.065348 0.063439 0.948103
O22   O     O_R   0.369630 0.044100 0.961740 -0.608002
O23   O     O_R   0.196370 0.953120 0.952550 -0.609194
C94   C     C_R   0.539343 0.055482 0.949295 0.931012
O24   O     O_R   0.696320 0.046890 0.047450 -0.597672
O25   O     O_3   0.528890 0.970170 0.997080 -0.276240
V3    V     V_3+5 0.255190 0.005530 0.000540 1.164322
O26   O     O_R   0.866460 0.947530 0.952310 -0.577346
C95   C     C_R   0.036015 0.933489 0.937528 0.974258
O27   O     O_R   0.863630 0.955880 0.038270 -0.613020
C96   C     C_R   0.031054 0.946966 0.052760 0.954806
V4    V     V_3+5 0.754830 0.994440 0.999470 1.176299
O28   O     O_3   0.031000 0.029830 0.002920 -0.271474
C97   C     C_2   0.361742 0.862566 0.924199 0.580315
H30   H     H_    0.338630 0.878393 0.957233 0.012213
O29   O     O_2   0.516639 0.843568 0.914041 -0.588679
C98   C     C_2   0.992486 0.880538 0.307739 0.685103
H31   H     H_    0.904543 0.900164 0.289420 0.091195
O30   O     O_2   0.042488 0.899966 0.343223 -0.519535
C99   C     C_2   0.136762 0.672035 0.129329 0.734427
H32   H     H_    0.246899 0.685285 0.110292 0.045759
O31   O     O_2   0.029465 0.640158 0.112576 -0.549210
C100  C     C_2   0.141482 0.611407 0.190012 0.736047
H33   H     H_    0.033588 0.587476 0.198884 0.053180
O32   O     O_2   0.277998 0.595273 0.167731 -0.552728
C101  C     C_2   0.726558 0.949980 0.120495 0.694250
H34   H     H_    0.743786 0.983361 0.110005 -0.034432
O33   O     O_2   0.573029 0.941968 0.136827 -0.519938
F1    F     F_    0.755527 0.881570 0.172741 -0.659185
F2    F     F_    0.425184 0.682477 0.379615 -0.646185
C102  C     C_2   0.456886 0.632257 0.446770 0.701211
H35   H     H_    0.437315 0.625386 0.478562 -0.006988
O34   O     O_2   0.611491 0.648636 0.437715 -0.514186
F3    F     F_    0.144098 0.227942 0.678103 -0.640201
F4    F     F_    0.744929 0.846812 0.808048 -0.650595
C103  C     C_2   0.260872 0.136344 0.951370 0.579618
H36   H     H_    0.275973 0.126008 0.981894 0.018366
O35   O     O_2   0.117508 0.158521 0.945279 -0.545447
C104  C     C_2   0.228258 0.202209 0.160897 0.603712
H37   H     H_    0.221993 0.226577 0.191082 -0.000761
O36   O     O_2   0.093146 0.201341 0.136512 -0.561804
F5    F     F_    0.600815 0.273836 0.171685 -0.643658
F6    F     F_    0.602443 0.224763 0.329452 -0.602035
F7    F     F_    0.574697 0.155770 0.258402 -0.606530
C105  C     C_2   0.275886 0.304314 0.346927 0.612563
H38   H     H_    0.250128 0.280931 0.316781 -0.002652
O37   O     O_2   0.151157 0.307265 0.374387 -0.549291
F8    F     F_    0.983973 0.840739 0.741457 -0.584417
F9    F     F_    0.004781 0.771715 0.670821 -0.607365
F10   F     F_    0.455224 0.665428 0.686600 -0.712570

loop_
_geom_bond_atom_site_label_1
_geom_bond_atom_site_label_2
_geom_bond_distance
_ccdc_geom_bond_type
C100  H33   1.085141 S    
N3    C74   1.447979 S    
C98   H31   1.083836 S    
C78   C104  1.485763 S    
C45   C46   1.408785 A    
C71   C94   1.492741 S    
C1    O6    1.297142 A    
C23   O11   1.347571 S    
C37   C38   1.397751 A    
C50   C51   1.409673 A    
C72   C103  1.485861 S    
C61   O17   1.348865 S    
C85   C86   1.406512 A    
C21   C22   1.403630 A    
C54   C55   1.398450 A    
C71   C72   1.424655 A    
N1    C48   1.448294 S    
C49   O15   1.349361 S    
C100  O32   1.221150 D    
C12   C13   1.406614 A    
N4    C62   1.374790 A    
C46   C47   1.396860 A    
O23   C95   1.295233 A    
C43   F2    1.359039 S    
C87   C92   1.404906 A    
C14   H3    1.083207 S    
O20   C93   1.299315 A    
C47   C48   1.398980 A    
C6    H1    1.083769 S    
C67   C68   1.407340 A    
C4    C19   1.487282 S    
C49   C53   1.409958 A    
C76   C77   1.403724 A    
O19   V4    1.977796 S    
C65   C66   1.407016 A    
C24   O12   1.350096 S    
V2    O10   2.152150 S    
C103  H36   1.083714 S    
C18   H5    1.083177 S    
C59   H14   1.083223 S    
C58   C62   1.408441 A    
C12   F9    1.357671 S    
C93   O24   1.296449 A    
C101  H34   1.083846 S    
C69   H20   1.082929 S    
C81   F5    1.357266 S    
C41   F1    1.359124 S    
C8    C9    1.399136 A    
C73   H22   1.083736 S    
O8    V2    1.977953 S    
C90   H29   1.083655 S    
C38   C39   1.407750 A    
C103  O35   1.221586 D    
C40   C41   1.414528 A    
C105  O37   1.221191 D    
C66   H18   1.083199 S    
O27   C96   1.297459 A    
O1    V2    1.984104 S    
O21   V3    1.976766 S    
O23   V3    1.983983 S    
O20   V3    1.984878 S    
O7    V1    2.150478 S    
C18   C19   1.407353 A    
C105  H38   1.084290 S    
C11   C16   1.410126 A    
C99   O31   1.221187 D    
C52   C57   1.419035 A    
C98   O30   1.221464 D    
O1    C2    1.295569 A    
C3    C45   1.495818 S    
O27   V4    1.977818 S    
C66   C67   1.401649 A    
C63   C68   1.406363 A    
C41   C42   1.405202 A    
C60   H15   1.083246 S    
O5    C3    1.299339 A    
C69   C70   1.398840 A    
C64   H17   1.083161 S    
C28   H8    1.084071 S    
C97   O29   1.221332 D    
C5    C10   1.423422 A    
C104  O36   1.221209 D    
C46   H11   1.083301 S    
C31   C32   1.417837 A    
C76   H24   1.083414 S    
C47   H12   1.082941 S    
C32   C36   1.426729 A    
C58   C59   1.406867 A    
C21   H7    1.082998 S    
C69   C74   1.400931 A    
C50   O16   1.349439 S    
C40   C101  1.488377 S    
C55   C56   1.412680 A    
N3    C50   1.373782 A    
C62   O18   1.349475 S    
C91   C105  1.485523 S    
C36   O14   1.347903 S    
C11   C12   1.403260 A    
C33   C34   1.422005 A    
C1    C65   1.487102 S    
C26   C31   1.423761 A    
V3    O28   1.702647 S    
C39   C40   1.425379 A    
O21   C96   1.298855 A    
C84   F6    1.357551 S    
O2    C1    1.297429 A    
N1    C24   1.365036 A    
C79   C80   1.406966 A    
O25   V4    1.703642 S    
C20   H6    1.083111 S    
O22   C94   1.297269 A    
C83   C84   1.406888 A    
C87   C88   1.400322 A    
C13   C22   1.485475 S    
C33   C99   1.487543 S    
C52   C53   1.409176 A    
C37   C42   1.400451 A    
O26   V4    1.984816 S    
C88   H28   1.083191 S    
C35   N2    1.365831 A    
C5    C6    1.409536 A    
O25   V3    2.150370 S    
C30   C31   1.424185 A    
C7    C8    1.405953 A    
C63   C64   1.400273 A    
O3    C4    1.295575 A    
C75   H23   1.083192 S    
C11   F8    1.357451 S    
N4    C68   1.452347 S    
C27   C34   1.425236 A    
O19   C94   1.298662 A    
C77   C86   1.489581 S    
C99   H32   1.085235 S    
C53   C60   1.405540 A    
C29   C98   1.486446 S    
C51   C52   1.407046 A    
O6    V2    1.976489 S    
N2    C42   1.450135 S    
O22   V3    1.978624 S    
O9    V2    1.984604 S    
C77   C78   1.418640 A    
C9    C10   1.407535 A    
C49   N3    1.373494 A    
C83   C92   1.489439 S    
N2    C36   1.367236 A    
C79   H25   1.083528 S    
O2    V1    1.978837 S    
C2    C89   1.488493 S    
C90   C91   1.411068 A    
C56   C61   1.414406 A    
C32   C33   1.426446 A    
O4    C2    1.299499 A    
C97   H30   1.083445 S    
C7    C16   1.492972 S    
C25   C28   1.398427 A    
C8    F4    1.357428 S    
C26   C27   1.417386 A    
O26   C95   1.300809 A    
C10   C95   1.492823 S    
C34   C100  1.486314 S    
C81   C86   1.406870 A    
C24   C25   1.405585 A    
C75   C80   1.404878 A    
C44   C45   1.426418 A    
C82   C83   1.403950 A    
O5    V1    1.976986 S    
C70   C71   1.408929 A    
O8    C3    1.298195 A    
C70   H21   1.083373 S    
C84   C85   1.403024 A    
C102  H35   1.083976 S    
C51   C54   1.404808 A    
C87   H27   1.083368 S    
C72   C73   1.410027 A    
C30   C35   1.416892 A    
C91   C92   1.418289 A    
C17   C22   1.407182 A    
V4    O28   2.152198 S    
O24   V4    1.984511 S    
C14   C15   1.398950 A    
C64   C65   1.407391 A    
O7    V2    1.704046 S    
O4    V1    1.984565 S    
C20   C21   1.399570 A    
O3    V1    1.984110 S    
V1    O10   1.702571 S    
C89   C90   1.406528 A    
C15   C16   1.407033 A    
C88   C89   1.403793 A    
C59   C60   1.397407 A    
C15   H4    1.082999 S    
C17   F10   1.357325 S    
C78   C79   1.412555 A    
C28   C29   1.397972 A    
C35   O13   1.348095 S    
C61   N4    1.375529 A    
C101  O33   1.220960 D    
C17   C18   1.402009 A    
C81   C82   1.401867 A    
C6    C7    1.404432 A    
C23   C27   1.431228 A    
C38   H10   1.083393 S    
C63   H16   1.082977 S    
C73   C74   1.401945 A    
C85   F7    1.357557 S    
C75   C76   1.398417 A    
C54   H13   1.083342 S    
C5    C97   1.486786 S    
C37   H9    1.082919 S    
C25   C26   1.411263 A    
C43   C44   1.415234 A    
C57   C58   1.408312 A    
C104  H37   1.084336 S    
C56   C57   1.410848 A    
C19   C20   1.407751 A    
C29   C30   1.424247 A    
C23   N1    1.369599 A    
C67   H19   1.082940 S    
C13   C14   1.403004 A    
C55   F3    1.357806 S    
C9    H2    1.083444 S    
C39   C96   1.492946 S    
C44   C102  1.486947 S    
C80   C93   1.489739 S    
O9    C4    1.299147 A    
C43   C48   1.404223 A    
C82   H26   1.083171 S    
C102  O34   1.221101 D    
