data_mof_unit_43155.cif
_audit_creation_date              2012-10-26T19:04:20-0400
_audit_creation_method            fapswitch 2.2
_symmetry_space_group_name_H-M    P1
_symmetry_Int_Tables_number       1
_space_group_crystal_system       triclinic
_cell_length_a                    15.121329
_cell_length_b                    15.636902
_cell_length_c                    9.560164
_cell_angle_alpha                 90.000227
_cell_angle_beta                  90.597971
_cell_angle_gamma                 90.000072
_cell_volume                      2260.38474105

loop_
_atom_site_label
_atom_site_type_symbol
_atom_type_description
_atom_site_fract_x
_atom_site_fract_y
_atom_site_fract_z
_atom_type_partial_charge
C1    C     C_R   0.386609 0.876377 0.499720 0.595840
C2    C     C_R   0.703380 0.233173 0.379849 0.253158
C3    C     C_R   0.203375 0.266819 0.379854 0.253094
C4    C     C_R   0.203383 0.733172 0.379848 0.253155
C5    C     C_R   0.677992 0.805400 0.506369 -0.048634
C6    C     C_R   0.678010 0.194586 0.506369 -0.048567
C7    C     C_R   0.178006 0.305410 0.506372 -0.048585
C8    C     C_R   0.178003 0.694592 0.506367 -0.048610
C9    C     C_R   0.663267 0.999999 0.146159 -0.051112
C10   C     C_R   0.163267 0.500000 0.146159 -0.051114
C11   C     C_R   0.744691 0.999999 0.075194 0.273627
C12   C     C_R   0.386610 0.123623 0.499719 0.595890
C13   C     C_R   0.244691 0.500000 0.075196 0.273621
C14   C     C_R   0.742220 0.999995 0.930812 -0.127671
C15   C     C_R   0.242220 0.500006 0.930813 -0.127678
C16   C     C_R   0.662481 0.999994 0.858086 -0.168353
C17   C     C_R   0.162482 0.500004 0.858087 -0.168359
C18   C     C_R   0.580059 0.999997 0.926293 0.126015
C19   C     C_R   0.080059 0.500001 0.926293 0.126006
C20   C     C_R   0.580229 0.999997 0.075717 0.118828
C21   C     C_R   0.080229 0.500000 0.075717 0.118817
C22   C     C_R   0.423855 0.000001 0.072786 0.097373
C23   C     C_R   0.886608 0.376378 0.499719 0.595877
C24   C     C_R   0.923855 0.500000 0.072786 0.097372
C25   C     C_R   0.614629 0.123042 0.501433 0.549826
C26   C     C_R   0.614622 0.876953 0.501433 0.549752
C27   C     C_R   0.114626 0.623044 0.501433 0.549777
C28   C     C_R   0.114627 0.376956 0.501434 0.549808
C29   C     C_R   0.423897 0.000002 0.924619 0.075081
C30   C     C_R   0.923897 0.499999 0.924619 0.075082
C31   C     C_R   0.360755 0.240443 0.744632 0.418111
C32   C     C_R   0.360722 0.759582 0.744664 0.418111
C33   C     C_R   0.860699 0.740404 0.744683 0.418107
C34   C     C_R   0.886608 0.623623 0.499722 0.595860
C35   C     C_R   0.860761 0.259553 0.744624 0.418113
C36   C     C_R   0.327749 0.263184 0.875064 0.445510
C37   C     C_R   0.327699 0.736853 0.875089 0.445534
C38   C     C_R   0.827664 0.763120 0.875108 0.445503
C39   C     C_R   0.827759 0.236806 0.875055 0.445530
C40   C     C_R   0.740025 0.787515 0.887491 -0.149167
C41   C     C_R   0.740120 0.212414 0.887476 -0.149219
C42   C     C_R   0.240110 0.287575 0.887482 -0.149214
C43   C     C_R   0.240061 0.712456 0.887484 -0.149166
C44   C     C_R   0.687372 0.796871 0.768250 -0.177297
C45   C     C_R   0.275539 0.212373 0.377184 0.366317
C46   C     C_R   0.687438 0.203080 0.768259 -0.177353
C47   C     C_R   0.187432 0.296915 0.768262 -0.177327
C48   C     C_R   0.187398 0.703109 0.768252 -0.177342
C49   C     C_R   0.721947 0.781547 0.633231 -0.099736
C50   C     C_R   0.721985 0.218425 0.633225 -0.099724
C51   C     C_R   0.221981 0.281572 0.633229 -0.099720
C52   C     C_R   0.221964 0.718441 0.633228 -0.099742
C53   C     C_R   0.304144 0.239368 0.625098 -0.096432
C54   C     C_R   0.304127 0.760645 0.625111 -0.096412
C55   C     C_R   0.804112 0.739345 0.625119 -0.096424
C56   C     C_R   0.275551 0.787615 0.377181 0.366317
C57   C     C_R   0.804147 0.260630 0.625094 -0.096425
C58   C     C_R   0.325059 0.196099 0.499405 -0.039974
C59   C     C_R   0.325057 0.803901 0.499410 -0.040003
C60   C     C_R   0.825051 0.696095 0.499415 -0.040013
C61   C     C_R   0.825058 0.303902 0.499402 -0.039971
C62   C     C_3   0.586116 0.719572 0.249871 0.013572
C63   C     C_3   0.566170 0.698835 0.097558 -0.298496
C64   C     C_3   0.586189 0.280447 0.249724 0.013774
C65   C     C_3   0.566360 0.301195 0.097321 -0.298484
C66   C     C_3   0.086159 0.219555 0.249778 0.013770
C67   C     C_R   0.775542 0.712377 0.377186 0.366361
C68   C     C_3   0.066332 0.198773 0.097405 -0.298487
C69   C     C_3   0.086181 0.780463 0.249797 0.013551
C70   C     C_3   0.066173 0.801075 0.097429 -0.298452
C71   C     C_3   0.829274 0.999903 0.285195 0.010028
C72   C     C_3   0.924409 0.999853 0.338231 -0.357711
C73   C     C_3   0.329272 0.499914 0.285199 0.010028
C74   C     C_3   0.424407 0.499849 0.338240 -0.357708
C75   C     C_R   0.775540 0.287625 0.377180 0.366323
C76   C     C_R   0.703372 0.766817 0.379851 0.253117
Cu1   Cu    Cu3+1 0.499990 0.000000 0.640660 1.006157
Cu2   Cu    Cu3+1 0.999990 0.500000 0.640660 1.006158
Cu3   Cu    Cu3+1 0.500010 1.000000 0.359340 1.038553
Cu4   Cu    Cu3+1 0.000010 0.500000 0.359340 1.038577
F1    F     F_    0.294725 0.173722 0.253781 -0.584013
F2    F     F_    0.379928 0.740936 0.990703 -0.599843
F3    F     F_    0.879882 0.759031 0.990732 -0.599854
F4    F     F_    0.880010 0.240865 0.990649 -0.599852
F5    F     F_    0.294748 0.826256 0.253774 -0.583934
F6    F     F_    0.794738 0.673734 0.253781 -0.583891
F7    F     F_    0.794724 0.326278 0.253777 -0.584032
F8    F     F_    0.448962 0.225920 0.734354 -0.630997
F9    F     F_    0.448931 0.774101 0.734414 -0.631017
F10   F     F_    0.948909 0.725892 0.734446 -0.631010
F11   F     F_    0.948967 0.274080 0.734344 -0.630990
F12   F     F_    0.379996 0.259118 0.990660 -0.599861
H1    H     H_    0.803552 0.000000 0.873146 0.155701
H2    H     H_    0.213541 0.697929 0.989363 0.198010
H3    H     H_    0.618974 0.812570 0.785468 0.228879
H4    H     H_    0.619042 0.187383 0.785509 0.228806
H5    H     H_    0.119037 0.312613 0.785509 0.228824
H6    H     H_    0.118999 0.687411 0.785482 0.228831
H7    H     H_    0.361532 0.000002 0.127314 0.176924
H8    H     H_    0.861532 0.499999 0.127314 0.176928
H9    H     H_    0.667029 0.000005 0.255437 0.169947
H10   H     H_    0.167028 0.500004 0.255438 0.169946
H11   H     H_    0.526153 0.747896 0.297700 0.174976
H12   H     H_    0.303552 0.500011 0.873148 0.155704
H13   H     H_    0.601151 0.657763 0.303801 0.116848
H14   H     H_    0.624691 0.668352 0.049201 0.163923
H15   H     H_    0.509805 0.653510 0.090694 0.180196
H16   H     H_    0.549462 0.758282 0.039475 0.217783
H17   H     H_    0.601257 0.342257 0.303660 0.116858
H18   H     H_    0.526164 0.252169 0.297483 0.174977
H19   H     H_    0.549656 0.241744 0.039177 0.217644
H20   H     H_    0.510017 0.346541 0.090335 0.180125
H21   H     H_    0.624948 0.331668 0.049067 0.163950
H22   H     H_    0.026140 0.247867 0.297498 0.175035
H23   H     H_    0.670116 0.999997 0.748116 0.192070
H24   H     H_    0.101194 0.157759 0.303771 0.116822
H25   H     H_    0.124918 0.168303 0.049166 0.163984
H26   H     H_    0.009990 0.153423 0.090453 0.180150
H27   H     H_    0.049626 0.258206 0.039241 0.217674
H28   H     H_    0.101326 0.842317 0.303528 0.116997
H29   H     H_    0.026212 0.752241 0.297805 0.174777
H30   H     H_    0.049461 0.741575 0.039478 0.217785
H31   H     H_    0.009793 0.846384 0.090512 0.180243
H32   H     H_    0.124677 0.831548 0.048967 0.163802
H33   H     H_    0.796741 0.941181 0.325777 0.136801
H34   H     H_    0.170117 0.500003 0.748117 0.192071
H35   H     H_    0.796753 0.058557 0.326051 0.136682
H36   H     H_    0.959290 0.057769 0.300504 0.153876
H37   H     H_    0.925510 0.999749 0.454402 0.103317
H38   H     H_    0.959278 0.941999 0.300237 0.153813
H39   H     H_    0.296723 0.441211 0.325819 0.136792
H40   H     H_    0.296764 0.558587 0.326014 0.136690
H41   H     H_    0.459304 0.557746 0.300483 0.153822
H42   H     H_    0.425505 0.499772 0.454409 0.103318
H43   H     H_    0.459261 0.441978 0.300283 0.153873
H44   H     H_    0.361584 0.000003 0.868010 0.116374
H45   H     H_    0.861584 0.499999 0.868010 0.116375
H46   H     H_    0.713495 0.802033 0.989368 0.197995
H47   H     H_    0.713613 0.197879 0.989361 0.198002
H48   H     H_    0.213599 0.302105 0.989367 0.197986
N1    N     N_R   0.501200 1.000000 0.147910 -0.245044
N2    N     N_R   0.001200 0.500000 0.147910 -0.245045
N3    N     N_R   0.501270 0.000000 0.852040 -0.222954
N4    N     N_R   0.001270 0.500000 0.852040 -0.222953
O1    O     O_R   0.409820 0.909830 0.618810 -0.468951
O2    O     O_R   0.590170 0.909830 0.618760 -0.521588
O3    O     O_R   0.090170 0.590170 0.618760 -0.521603
O4    O     O_R   0.090170 0.409830 0.618760 -0.521567
O5    O     O_R   0.590190 0.090180 0.381190 -0.505718
O6    O     O_R   0.590190 0.909820 0.381190 -0.505783
O7    O     O_R   0.090190 0.590180 0.381190 -0.505714
O8    O     O_R   0.090190 0.409820 0.381190 -0.505759
O9    O     O_3   0.656355 0.779322 0.256749 -0.525570
O10   O     O_3   0.656374 0.220639 0.256742 -0.525543
O11   O     O_3   0.156364 0.279343 0.256749 -0.525587
O12   O     O_R   0.409820 0.090170 0.618810 -0.468968
O13   O     O_3   0.156368 0.720658 0.256746 -0.525512
O14   O     O_3   0.828871 0.000037 0.137502 -0.527176
O15   O     O_3   0.328870 0.500011 0.137506 -0.527173
O16   O     O_R   0.909820 0.409830 0.618810 -0.468968
O17   O     O_R   0.909820 0.590170 0.618810 -0.468950
O18   O     O_R   0.409840 0.909830 0.381240 -0.447065
O19   O     O_R   0.409840 0.090170 0.381240 -0.447050
O20   O     O_R   0.909840 0.409830 0.381240 -0.447064
O21   O     O_R   0.909840 0.590170 0.381240 -0.447030
O22   O     O_R   0.590170 0.090170 0.618760 -0.521575

loop_
_geom_bond_atom_site_label_1
_geom_bond_atom_site_label_2
_ccdc_geom_bond_type
C44   C49   A    
C33   C55   A    
Cu4   O7    S    
C66   C68   S    
C73   H39   S    
C23   O16   A    
C19   N4    A    
C22   C29   A    
C38   F3    S    
C73   C74   S    
C36   C42   A    
C4    C8    A    
C34   O17   A    
C71   H35   S    
C64   H17   S    
C72   H37   S    
C39   C41   A    
C62   H13   S    
C61   C75   A    
C66   H24   S    
C72   H36   S    
C18   N3    A    
C19   C21   A    
C39   F4    S    
C23   O20   A    
C3    C7    A    
C1    C59   S    
C68   H27   S    
C66   O11   S    
C11   C14   A    
Cu2   Cu4   S    
C17   H34   S    
C6    C25   S    
C29   N3    A    
C74   H41   S    
C64   O10   S    
C76   O9    S    
C43   H2    S    
C30   N4    A    
C25   O5    A    
C26   O2    A    
C65   H19   S    
C68   H26   S    
C1    O1    A    
C70   H31   S    
Cu4   O20   S    
C4    O13   S    
C60   C67   A    
C24   N2    A    
C40   H46   S    
C69   O13   S    
C41   C46   A    
C22   H7    S    
C15   H12   S    
C34   O21   A    
C43   C48   A    
C8    C52   A    
C14   H1    S    
Cu2   O4    S    
Cu3   O5    S    
C12   C58   S    
C36   F12   S    
C73   H40   S    
C2    O10   S    
C30   H45   S    
C55   C60   A    
C4    C56   A    
C34   C60   S    
C5    C49   A    
C2    C6    A    
C12   O12   A    
C32   C54   A    
C52   C54   A    
C40   C44   A    
C54   C59   A    
Cu1   Cu3   S    
C10   C21   A    
C45   C58   A    
C28   O4    A    
C42   H48   S    
C10   H10   S    
C47   C51   A    
Cu1   O22   S    
C49   C55   A    
C3    C45   A    
C31   C53   A    
C7    C28   S    
C51   C53   A    
C37   C43   A    
C35   C39   A    
Cu1   N3    S    
C65   H20   S    
C62   C63   S    
Cu2   N4    S    
C68   H25   S    
C70   H30   S    
C9    C20   A    
C64   H18   S    
C32   F9    S    
C69   H29   S    
C26   O6    A    
C74   H43   S    
C3    O11   S    
C16   C18   A    
C32   C37   A    
C6    C50   A    
C63   H14   S    
C72   H38   S    
C9    C11   A    
Cu2   O3    S    
Cu3   O6    S    
C75   F7    S    
C1    O18   A    
C28   O8    A    
Cu4   N2    S    
C13   C15   A    
C14   C16   A    
C37   F2    S    
Cu3   O18   S    
C63   H15   S    
C16   H23   S    
Cu1   O1    S    
Cu4   O21   S    
C62   H11   S    
C23   C61   S    
Cu2   O16   S    
Cu4   O8    S    
C71   O14   S    
C73   O15   S    
C67   F6    S    
C27   O7    A    
C31   F8    S    
C66   H22   S    
C24   H8    S    
C50   C57   A    
C65   H21   S    
C20   N1    A    
C45   F1    S    
Cu3   O19   S    
C10   C13   A    
C21   N2    A    
C53   C58   A    
C56   C59   A    
C57   C61   A    
C25   O22   A    
C48   H6    S    
C46   C50   A    
C69   H28   S    
C33   C38   A    
C47   H5    S    
C62   O9    S    
C35   C57   A    
C64   C65   S    
C5    C76   A    
C7    C51   A    
C71   C72   S    
Cu1   O12   S    
C27   O3    A    
C33   F10   S    
C12   O19   A    
C38   C40   A    
C56   F5    S    
Cu3   N1    S    
C74   H42   S    
C22   N1    A    
C17   C19   A    
C18   C20   A    
C42   C47   A    
C69   C70   S    
C24   C30   A    
C41   H47   S    
C5    C26   S    
C70   H32   S    
C48   C52   A    
C29   H44   S    
C46   H4    S    
Cu2   O17   S    
C9    H9    S    
C44   H3    S    
C8    C27   S    
C31   C36   A    
C71   H33   S    
C67   C76   A    
C63   H16   S    
C15   C17   A    
Cu1   O2    S    
C13   O15   S    
C2    C75   A    
C11   O14   S    
C35   F11   S    
