data_mof_unit_43948.cif
_audit_creation_date              2012-12-10T16:47:57-0500
_audit_creation_method            fapswitch 2.2
_symmetry_space_group_name_H-M    P1
_symmetry_Int_Tables_number       1
_space_group_crystal_system       triclinic
_cell_length_a                    7.878226
_cell_length_b                    8.580793
_cell_length_c                    10.710235
_cell_angle_alpha                 92.620416
_cell_angle_beta                  85.220254
_cell_angle_gamma                 93.117154
_cell_volume                      719.824294734

loop_
_atom_site_label
_atom_site_type_symbol
_atom_type_description
_atom_site_fract_x
_atom_site_fract_y
_atom_site_fract_z
_atom_type_partial_charge
C1    C     C_R   0.544791 0.794141 0.498269 0.963943
C2    C     C_2   0.567870 0.957535 0.501225 -0.381154
C3    C     C_3   0.926958 0.235731 0.325390 -0.708281
C4    C     C_2   0.431008 0.042442 0.503756 -0.370105
C5    C     C_R   0.501398 0.502149 0.736964 0.923918
C6    C     C_R   0.455022 0.205838 0.503263 0.946769
C7    C     C_R   0.498192 0.493630 0.262941 0.914533
C8    C     C_2   0.637200 0.461183 0.056951 -0.162305
C9    C     C_2   0.492865 0.472129 0.130975 -0.330537
C10   C     C_2   0.633957 0.453647 0.922503 -0.162450
C11   C     C_2   0.504874 0.510810 0.869117 -0.320989
H1    H     H_    0.760981 0.459522 0.094557 0.182691
H2    H     H_    0.803839 0.264352 0.293220 0.276132
H3    H     H_    0.908756 0.153022 0.402357 0.224522
H4    H     H_    0.367437 0.461724 0.095768 0.155748
H5    H     H_    0.741646 0.404460 0.867154 0.173757
H6    H     H_    0.400039 0.567492 0.921500 0.149799
H7    H     H_    0.697138 0.007350 0.502579 0.172865
H8    H     H_    0.301084 0.992382 0.504407 0.182196
H9    H     H_    0.987046 0.610093 0.602166 0.169957
H10   H     H_    0.144505 0.342614 0.374689 0.286543
H11   H     H_    0.998475 0.176688 0.244462 0.193304
N1    N     N_2   0.950320 0.457950 0.466680 0.008604
N2    N     N_2   0.049680 0.542050 0.533320 -0.153965
N3    N     N_2   0.024570 0.373364 0.365453 -0.214009
O1    O     O_R   0.389250 0.738570 0.508180 -0.612085
O2    O     O_R   0.678390 0.711630 0.486820 -0.627329
O3    O     O_R   0.355470 0.513470 0.691600 -0.621162
O4    O     O_R   0.644610 0.486520 0.670240 -0.627722
O5    O     O_R   0.321610 0.288370 0.513180 -0.654684
O6    O     O_R   0.610750 0.261430 0.491820 -0.615912
O7    O     O_R   0.355390 0.513480 0.329760 -0.640906
O8    O     O_R   0.644530 0.486530 0.308400 -0.614771
Zn1   Zn    Zn3+2 0.306940 0.517990 0.514260 0.939892
Zn2   Zn    Zn3+2 0.693060 0.482010 0.485740 0.953195

loop_
_geom_bond_atom_site_label_1
_geom_bond_atom_site_label_2
_ccdc_geom_bond_type
C2    C4    D    
N1    N2    D    
C2    H7    S    
C5    O3    A    
O2    Zn2   S    
O4    Zn2   S    
N1    Zn2   S    
C3    H2    S    
C8    H1    S    
C1    O2    A    
C6    O6    A    
C9    H4    S    
O3    Zn1   S    
C10   H5    S    
C7    O8    A    
C3    H3    S    
C8    C10   S    
O8    Zn2   S    
C5    C11   S    
C5    O4    A    
N1    N3    S    
C1    O1    A    
O6    Zn2   S    
C10   C11   D    
O5    Zn1   S    
C3    N3    S    
C4    C6    S    
C1    C2    S    
C7    C9    S    
H10   N3    S    
C11   H6    S    
C3    H11   S    
C7    O7    A    
C6    O5    A    
C4    H8    S    
O1    Zn1   S    
N2    Zn1   S    
H9    N2    S    
C8    C9    D    
O7    Zn1   S    
