data_mof_unit_37134.cif
_audit_creation_date              2012-12-10T20:43:37-0500
_audit_creation_method            fapswitch 2.2
_symmetry_space_group_name_H-M    P1
_symmetry_Int_Tables_number       1
_space_group_crystal_system       triclinic
_cell_length_a                    18.618863
_cell_length_b                    18.644387
_cell_length_c                    18.646727
_cell_angle_alpha                 109.112628
_cell_angle_beta                  109.008501
_cell_angle_gamma                 108.904323
_cell_volume                      5066.45573284

loop_
_atom_site_label
_atom_site_type_symbol
_atom_type_description
_atom_site_fract_x
_atom_site_fract_y
_atom_site_fract_z
_atom_type_partial_charge
C1    C     C_R   0.380067 0.500858 0.380437 0.894274
C2    C     C_R   0.777504 0.806119 0.828709 0.288724
C3    C     C_R   0.934712 0.724635 0.948777 -0.180960
C4    C     C_R   0.932438 0.710443 0.017245 -0.121606
C5    C     C_R   0.995791 0.772953 0.103074 0.084861
C6    C     C_R   0.281008 0.547058 0.947743 -0.157824
C7    C     C_R   0.198149 0.478114 0.885033 -0.089266
C8    C     C_R   0.170222 0.398223 0.884478 0.115536
C9    C     C_R   0.228242 0.386890 0.944293 -0.196753
C10   C     C_R   0.310947 0.456034 0.007122 -0.122712
C11   C     C_R   0.337156 0.536205 0.009129 -0.109642
C12   C     C_R   0.079588 0.257374 0.751885 -0.255742
C13   C     C_R   0.824796 0.816545 0.576283 -0.265186
C14   C     C_R   0.999580 0.187363 0.685012 -0.079407
C15   C     C_R   0.921579 0.183122 0.681194 -0.005441
C16   C     C_R   0.925071 0.247735 0.747360 -0.277489
C17   C     C_R   0.004874 0.317158 0.815046 -0.089575
C18   C     C_R   0.083447 0.324220 0.816620 -0.014318
C19   C     C_R   0.775142 0.121692 0.556993 -0.147985
C20   C     C_R   0.694871 0.050722 0.490866 -0.137886
C21   C     C_R   0.675384 0.967822 0.480507 -0.105410
C22   C     C_R   0.735922 0.956328 0.536962 -0.137850
C23   C     C_R   0.815678 0.026617 0.602837 -0.136362
C24   C     C_R   0.815275 0.808558 0.496190 -0.075828
C25   C     C_R   0.836184 0.109445 0.612503 0.140168
C26   C     C_R   0.741814 0.738995 0.417874 -0.010033
C27   C     C_R   0.681631 0.675692 0.422257 -0.263750
C28   C     C_R   0.690349 0.684639 0.502360 -0.073794
C29   C     C_R   0.761138 0.756819 0.580584 0.005517
C30   C     C_R   0.645582 0.721299 0.275963 -0.157396
C31   C     C_R   0.627451 0.710251 0.193002 -0.142321
C32   C     C_R   0.687449 0.707641 0.164075 -0.120947
C33   C     C_R   0.621912 0.619709 0.501350 0.878895
C34   C     C_R   0.765787 0.716452 0.218237 -0.115726
C35   C     C_R   0.784334 0.728145 0.301474 -0.108096
C36   C     C_R   0.724451 0.730543 0.331082 0.134087
C37   C     C_R   0.474268 0.786332 0.540694 0.266842
C38   C     C_R   0.396850 0.712214 0.472509 -0.142584
C39   C     C_R   0.394070 0.663775 0.395071 0.108010
C40   C     C_R   0.468100 0.689350 0.385603 -0.171399
C41   C     C_R   0.544783 0.762296 0.453069 -0.212626
C42   C     C_R   0.548597 0.810986 0.530715 -0.079118
C43   C     C_R   0.249926 0.580817 0.262067 0.130905
C44   C     C_R   0.618494 0.497931 0.619745 0.860338
C45   C     C_R   0.183801 0.500170 0.188860 -0.092209
C46   C     C_R   0.178683 0.420876 0.183175 -0.038980
C47   C     C_R   0.244745 0.423532 0.247181 -0.277318
C48   C     C_R   0.313306 0.502454 0.316196 -0.129621
C49   C     C_R   0.316095 0.581444 0.325531 -0.003848
C50   C     C_R   0.059896 0.273963 0.131485 -0.152242
C51   C     C_R   0.994329 0.190802 0.065321 -0.141818
C52   C     C_R   0.975033 0.166617 0.979285 -0.118594
C53   C     C_R   0.021103 0.225662 0.959318 -0.123181
C54   C     C_R   0.086301 0.309066 0.025311 -0.117522
C55   C     C_R   0.378368 0.380331 0.499036 0.865417
C56   C     C_R   0.106362 0.334011 0.111956 0.147202
C57   C     C_R   0.214781 0.523831 0.580796 -0.145654
C58   C     C_R   0.227103 0.453059 0.578074 -0.147212
C59   C     C_R   0.227945 0.398870 0.505704 0.138214
C60   C     C_R   0.215135 0.415713 0.435708 -0.126248
C61   C     C_R   0.202332 0.486286 0.438503 -0.122082
C62   C     C_R   0.202527 0.540501 0.511113 -0.116742
C63   C     C_R   0.176963 0.256999 0.501256 -0.255305
C64   C     C_R   0.185171 0.183985 0.496612 -0.073337
C65   C     C_R   0.256683 0.175704 0.493325 -0.004156
C66   C     C_R   0.778337 0.867218 0.800277 -0.144764
C67   C     C_R   0.319113 0.241594 0.494017 -0.259902
C68   C     C_R   0.310987 0.314605 0.498397 -0.083036
C69   C     C_R   0.239801 0.323290 0.502494 -0.006378
C70   C     C_R   0.337614 0.107441 0.554011 -0.142430
C71   C     C_R   0.349376 0.035560 0.547081 -0.138500
C72   C     C_R   0.291670 0.954973 0.472772 -0.128406
C73   C     C_R   0.221971 0.946087 0.405402 -0.133901
C74   C     C_R   0.209232 0.017545 0.412505 -0.136130
C75   C     C_R   0.267144 0.098770 0.486946 0.135780
C76   C     C_R   0.546181 0.562887 0.858194 -0.141225
C77   C     C_R   0.773790 0.851182 0.719853 -0.215160
C78   C     C_R   0.615978 0.563708 0.844695 -0.157504
C79   C     C_R   0.602353 0.495340 0.771594 0.139301
C80   C     C_R   0.518186 0.425606 0.712935 -0.125050
C81   C     C_R   0.448655 0.424766 0.727075 -0.122479
C82   C     C_R   0.462562 0.493504 0.799377 -0.109493
C83   C     C_R   0.742849 0.496554 0.820562 -0.260169
C84   C     C_R   0.814284 0.497504 0.810669 -0.085629
C85   C     C_R   0.821290 0.498242 0.737980 -0.009224
C86   C     C_R   0.754651 0.496526 0.675035 -0.261852
C87   C     C_R   0.683206 0.495458 0.684954 -0.083162
C88   C     C_R   0.768824 0.774077 0.666948 0.136048
C89   C     C_R   0.676821 0.496083 0.758337 -0.006337
C90   C     C_R   0.950736 0.570139 0.723649 -0.145917
C91   C     C_R   0.019410 0.569731 0.708465 -0.140884
C92   C     C_R   0.032816 0.497841 0.693429 -0.130259
C93   C     C_R   0.977680 0.426326 0.693728 -0.133597
C94   C     C_R   0.909384 0.426772 0.709677 -0.125331
C95   C     C_R   0.895569 0.498777 0.724769 0.137560
C96   C     C_R   0.999122 0.878170 0.380548 0.870492
C97   C     C_R   0.880326 0.877325 0.497755 0.870188
C98   C     C_R   0.999660 0.120305 0.619660 0.871661
C99   C     C_R   0.770248 0.714089 0.696438 -0.171054
C100  C     C_R   0.119786 0.118928 0.498440 0.869858
C101  C     C_R   0.002983 0.380703 0.881925 0.871477
C102  C     C_R   0.119426 0.499403 0.120126 0.884351
C103  C     C_R   0.998051 0.619740 0.118454 0.862739
C104  C     C_R   0.880323 0.498514 0.878027 0.867624
C105  C     C_R   0.102475 0.767513 0.549778 -0.158434
C106  C     C_R   0.093520 0.779196 0.477611 -0.085750
C107  C     C_R   0.013480 0.729565 0.400932 0.114396
C108  C     C_R   0.944036 0.664994 0.396085 -0.192692
C109  C     C_R   0.953081 0.653727 0.468479 -0.114354
C110  C     C_R   0.773298 0.729544 0.776245 -0.125314
C111  C     C_R   0.032139 0.705206 0.545401 -0.108600
C112  C     C_R   0.999563 0.676073 0.255414 -0.255964
C113  C     C_R   0.995790 0.685106 0.183103 -0.074874
C114  C     C_R   0.995391 0.758256 0.176607 0.009595
C115  C     C_R   0.995576 0.820037 0.242785 -0.281967
C116  C     C_R   0.000310 0.811676 0.315631 -0.089955
C117  C     C_R   0.004516 0.740220 0.323672 -0.013328
C118  C     C_R   0.059618 0.851038 0.119323 -0.158851
C119  C     C_R   0.060903 0.865958 0.050551 0.264852
C120  C     C_R   0.998336 0.802019 0.965141 -0.135197
H1    H     H_    0.673203 0.698679 0.099696 0.120083
H2    H     H_    0.811993 0.714011 0.195584 0.144659
H3    H     H_    0.845121 0.735311 0.342910 0.101988
H4    H     H_    0.609257 0.867296 0.582908 0.126120
H5    H     H_    0.339501 0.691383 0.480032 0.128916
H6    H     H_    0.466810 0.651515 0.326533 0.124236
H7    H     H_    0.600862 0.779247 0.444141 0.141722
H8    H     H_    0.242941 0.363508 0.243183 0.163235
H9    H     H_    0.781605 0.926835 0.839794 0.126369
H10   H     H_    0.074506 0.291623 0.197958 0.125648
H11   H     H_    0.958771 0.144971 0.080811 0.131424
H12   H     H_    0.924553 0.102102 0.928148 0.122098
H13   H     H_    0.006409 0.206623 0.892720 0.142554
H14   H     H_    0.121180 0.354342 0.009235 0.107349
H15   H     H_    0.214516 0.565623 0.636834 0.119045
H16   H     H_    0.236457 0.440722 0.632420 0.117234
H17   H     H_    0.214426 0.373855 0.378953 0.101118
H18   H     H_    0.191878 0.498822 0.384292 0.138991
H19   H     H_    0.772923 0.898368 0.698227 0.129298
H20   H     H_    0.121614 0.262410 0.504358 0.152621
H21   H     H_    0.374609 0.236113 0.491434 0.157097
H22   H     H_    0.383209 0.169777 0.611570 0.122939
H23   H     H_    0.403554 0.042449 0.599076 0.129498
H24   H     H_    0.178240 0.883855 0.347528 0.146618
H25   H     H_    0.155227 0.009984 0.359692 0.105313
H26   H     H_    0.408618 0.492785 0.810053 0.124560
H27   H     H_    0.556977 0.615904 0.914418 0.121144
H28   H     H_    0.680556 0.617675 0.890905 0.120455
H29   H     H_    0.767607 0.654883 0.656989 0.108441
H30   H     H_    0.758902 0.497096 0.618524 0.153589
H31   H     H_    0.940566 0.625955 0.734675 0.117669
H32   H     H_    0.061980 0.624959 0.707940 0.117543
H33   H     H_    0.085740 0.497412 0.681270 0.118155
H34   H     H_    0.987734 0.370453 0.681201 0.144121
H35   H     H_    0.866654 0.370806 0.709164 0.105504
H36   H     H_    0.039123 0.696252 0.601313 0.116218
H37   H     H_    0.164031 0.806562 0.608995 0.118983
H38   H     H_    0.148749 0.826981 0.481472 0.132694
H39   H     H_    0.882943 0.623555 0.336367 0.133465
H40   H     H_    0.898967 0.604729 0.464779 0.134303
H41   H     H_    0.002233 0.620385 0.260134 0.156928
H42   H     H_    0.993456 0.875947 0.238215 0.158975
H43   H     H_    0.108540 0.899799 0.185477 0.125912
H44   H     H_    0.998684 0.812217 0.911278 0.139020
H45   H     H_    0.887140 0.675646 0.882804 0.147484
H46   H     H_    0.880144 0.872055 0.635906 0.154973
H47   H     H_    0.881687 0.650678 0.003421 0.105469
H48   H     H_    0.401232 0.589627 0.057692 0.115090
H49   H     H_    0.301801 0.608790 0.948527 0.118141
H50   H     H_    0.155724 0.487000 0.837119 0.133010
H51   H     H_    0.209136 0.324698 0.942589 0.135241
H52   H     H_    0.354866 0.447335 0.053971 0.133713
H53   H     H_    0.139116 0.260626 0.752608 0.156576
H54   H     H_    0.865197 0.243780 0.746195 0.159424
H55   H     H_    0.790185 0.185724 0.564335 0.123961
H56   H     H_    0.648020 0.059912 0.447545 0.129785
H57   H     H_    0.625397 0.620893 0.362796 0.155821
H58   H     H_    0.613498 0.912834 0.428990 0.129616
H59   H     H_    0.722385 0.893479 0.530705 0.130045
H60   H     H_    0.861723 0.016448 0.645989 0.099808
H61   H     H_    0.598265 0.722859 0.297289 0.114796
H62   H     H_    0.566761 0.703436 0.151045 0.119081
O1    O     O_R   0.408360 0.551710 0.460090 -0.609852
O2    O     O_R   0.948280 0.908380 0.356650 -0.622902
O3    O     O_R   0.960110 0.908350 0.551690 -0.620370
O4    O     O_R   0.856660 0.908370 0.448270 -0.605491
O5    O     O_R   0.051720 0.091580 0.643310 -0.628444
O6    O     O_R   0.948270 0.091600 0.539890 -0.610250
O7    O     O_R   0.143340 0.091590 0.551680 -0.615298
O8    O     O_R   0.039890 0.091610 0.448270 -0.626671
O9    O     O_R   0.051730 0.460050 0.908360 -0.618947
O10   O     O_R   0.948290 0.356630 0.908390 -0.619315
O11   O     O_R   0.143340 0.551690 0.091580 -0.614627
O12   O     O_R   0.408400 0.448280 0.356670 -0.626944
O13   O     O_R   0.039900 0.448270 0.091610 -0.618769
O14   O     O_R   0.051710 0.643320 0.091560 -0.610734
O15   O     O_R   0.948270 0.539900 0.091590 -0.627235
O16   O     O_R   0.960100 0.551680 0.908340 -0.606343
O17   O     O_R   0.856660 0.448270 0.908370 -0.626179
O18   O     O_R   0.591600 0.643340 0.551710 -0.599836
O19   O     O_R   0.591630 0.539900 0.448290 -0.630038
O20   O     O_R   0.591600 0.551720 0.643330 -0.609601
O21   O     O_R   0.591640 0.448290 0.539910 -0.626240
O22   O     O_R   0.408370 0.460100 0.551710 -0.606066
O23   O     O_R   0.408400 0.356660 0.448290 -0.627896
O24   O     O_R   0.051730 0.908360 0.460060 -0.616075
Zn1   Zn    Zn3+2 0.499980 0.569060 0.569060 0.992250
Zn2   Zn    Zn3+2 0.500020 0.430940 0.430940 0.944211
Zn3   Zn    Zn3+2 0.069070 0.999960 0.569030 0.956822
Zn4   Zn    Zn3+2 0.930930 0.999990 0.430930 0.970648
Zn5   Zn    Zn3+2 0.069070 0.569030 0.999960 0.966434
Zn6   Zn    Zn3+2 0.930930 0.430930 0.000000 0.955929
C121  C     C_3   0.780337 0.821487 0.913993 -0.970074
H63   H     H_    0.783302 0.884533 0.947969 0.239048
H64   H     H_    0.721313 0.769111 0.903134 0.243017
H65   H     H_    0.838447 0.821783 0.956364 0.256171
C122  C     C_3   0.477013 0.837424 0.623504 -0.975759
H66   H     H_    0.542502 0.893757 0.671407 0.242444
H67   H     H_    0.429721 0.861737 0.609980 0.236881
H68   H     H_    0.459836 0.795309 0.652321 0.246405
C123  C     C_3   0.248888 0.664829 0.272122 -0.874906
H69   H     H_    0.292821 0.719840 0.338759 0.227642
H70   H     H_    0.268734 0.683713 0.228249 0.260465
H71   H     H_    0.182950 0.656644 0.256832 0.226807
H72   H     H_    0.192780 0.595173 0.513199 0.125260
H73   H     H_    0.301169 0.899496 0.467209 0.122587
H74   H     H_    0.506657 0.371783 0.656874 0.102003
H75   H     H_    0.383999 0.370714 0.682253 0.139138
H76   H     H_    0.738909 0.496801 0.877441 0.154627
H77   H     H_    0.771192 0.681366 0.796744 0.139566
C124  C     C_3   0.128466 0.949255 0.067406 -0.953551
H78   H     H_    0.173421 0.993500 0.137875 0.243069
H79   H     H_    0.166910 0.935448 0.035366 0.243047
H80   H     H_    0.096528 0.982538 0.040807 0.247305

loop_
_geom_bond_atom_site_label_1
_geom_bond_atom_site_label_2
_ccdc_geom_bond_type
C41   C42   A    
C40   C41   A    
C93   C94   A    
C81   H75   S    
C5    C114  S    
O1    Zn1   S    
C63   H20   S    
C41   H7    S    
C74   H25   S    
C35   C36   A    
C37   C122  S    
C101  O10   A    
C102  O13   A    
C81   C82   A    
C1    O1    A    
C42   H4    S    
C7    C8    A    
C108  H39   S    
C45   C46   A    
C108  C109  A    
C122  H68   S    
C97   O3    A    
C112  H41   S    
C99   H29   S    
C3    H45   S    
C26   C27   A    
C37   C38   A    
C13   C29   A    
C28   C29   A    
C43   C123  S    
C76   C78   A    
O17   Zn6   S    
C123  H71   S    
C86   H30   S    
C103  O15   A    
C91   H32   S    
C61   H18   S    
O11   Zn5   S    
C106  C107  A    
C10   H52   S    
C15   C16   A    
C54   H14   S    
C116  C117  A    
C34   C35   A    
C73   C74   A    
C37   C42   A    
C17   C101  S    
C118  C119  A    
O10   Zn6   S    
C29   C88   S    
C98   O6    A    
C50   H10   S    
C109  C111  A    
C68   C69   A    
O14   Zn5   S    
O6    Zn4   S    
C105  H37   S    
C100  O7    A    
C76   H27   S    
C8    C9    A    
C65   C67   A    
C98   O5    A    
C44   O21   A    
C107  C108  A    
C70   C71   A    
C124  H80   S    
C44   C87   S    
C110  H77   S    
C111  H36   S    
C78   H28   S    
C60   H17   S    
C72   C73   A    
C66   H9    S    
C73   H24   S    
C105  C111  A    
C59   C60   A    
C34   H2    S    
C72   H73   S    
C21   C22   A    
C44   O20   A    
C61   C62   A    
C96   O2    A    
C83   C89   A    
C112  C113  A    
C82   H26   S    
C14   C98   S    
C57   C58   A    
C121  H64   S    
C97   O4    A    
C55   O23   A    
C54   C56   A    
C118  H43   S    
C70   H22   S    
C74   C75   A    
C51   C52   A    
C52   H12   S    
C47   C48   A    
O5    Zn3   S    
C47   H8    S    
C53   H13   S    
C84   C85   A    
C77   C88   A    
C124  H79   S    
C3    C120  A    
C76   C82   A    
C91   C92   A    
C55   C68   S    
C78   C79   A    
C16   C17   A    
C83   H76   S    
C33   O18   A    
C58   H16   S    
C58   C59   A    
C121  H63   S    
C99   C110  A    
C8    C18   S    
C67   C68   A    
C13   C24   A    
C60   C61   A    
C32   C34   A    
C123  H69   S    
O13   Zn6   S    
C96   O24   A    
C83   C84   A    
C14   C15   A    
O22   Zn1   S    
C64   C100  S    
C30   C31   A    
C53   C54   A    
C40   H6    S    
C17   C18   A    
C94   H35   S    
C43   C49   A    
C50   C51   A    
O2    Zn4   S    
O16   Zn5   S    
C43   C45   A    
C85   C86   A    
C92   H33   S    
C59   C69   S    
C101  O9    A    
C26   C36   S    
C21   H58   S    
C39   C49   S    
C12   C14   A    
C28   C33   S    
O18   Zn1   S    
O20   Zn1   S    
O4    Zn4   S    
C31   H62   S    
C11   H48   S    
C84   C104  S    
C104  O17   A    
O3    Zn3   S    
C79   C80   A    
C9    H51   S    
C103  O14   A    
C57   C62   A    
C112  C117  A    
C90   C91   A    
C3    C4    A    
C67   H21   S    
C102  O11   A    
C6    C11   A    
C38   H5    S    
O12   Zn2   S    
C52   C53   A    
C86   C87   A    
C71   H23   S    
C113  C114  A    
C9    C10   A    
O23   Zn2   S    
C16   H54   S    
C66   C77   A    
C121  H65   S    
C46   C47   A    
C93   H34   S    
C51   H11   S    
C103  C113  S    
C90   H31   S    
C104  O16   A    
C32   H1    S    
C31   C32   A    
C100  O8    A    
C77   H19   S    
C24   C26   A    
C80   C81   A    
C2    C66   A    
C90   C95   A    
C119  C120  A    
C27   H57   S    
C1    C48   S    
C114  C115  A    
C6    C7    A    
C119  C124  S    
C122  H67   S    
C62   H72   S    
C23   H60   S    
C105  C106  A    
C46   C56   S    
C65   C75   S    
C4    H47   S    
C30   C36   A    
C5    C118  A    
C10   C11   A    
C64   C65   A    
C19   C20   A    
C35   H3    S    
C1    O12   A    
O8    Zn4   S    
C57   H15   S    
C63   C69   A    
C123  H70   S    
O15   Zn6   S    
C106  H38   S    
C85   C95   S    
O24   Zn3   S    
C13   H46   S    
C20   H56   S    
C115  H42   S    
C48   C49   A    
C55   O22   A    
C38   C39   A    
C122  H66   S    
C33   O19   A    
C92   C93   A    
C30   H61   S    
O19   Zn2   S    
O21   Zn2   S    
C24   C97   S    
C23   C25   A    
C80   H74   S    
C94   C95   A    
C19   C25   A    
C50   C56   A    
C79   C89   S    
C88   C99   A    
C15   C25   S    
C45   C102  S    
C120  H44   S    
C63   C64   A    
C39   C40   A    
C4    C5    A    
C71   C72   A    
C20   C21   A    
C70   C75   A    
C2    C121  S    
C19   H55   S    
C7    H50   S    
C12   C18   A    
C124  H78   S    
C87   C89   A    
C22   C23   A    
C96   C116  S    
O7    Zn3   S    
C22   H59   S    
C109  H40   S    
C107  C117  S    
C115  C116  A    
O9    Zn5   S    
C12   H53   S    
C27   C28   A    
C6    H49   S    
C2    C110  A    
