data_mof_unit_7266.cif
_audit_creation_date              2012-12-11T15:35:23-0500
_audit_creation_method            fapswitch 2.2
_symmetry_space_group_name_H-M    P1
_symmetry_Int_Tables_number       1
_space_group_crystal_system       triclinic
_cell_length_a                    17.475074
_cell_length_b                    24.267728
_cell_length_c                    14.933934
_cell_angle_alpha                 90.556551
_cell_angle_beta                  124.963759
_cell_angle_gamma                 89.327814
_cell_volume                      5189.74868946

loop_
_atom_site_label
_atom_site_type_symbol
_atom_type_description
_atom_site_fract_x
_atom_site_fract_y
_atom_site_fract_z
_atom_type_partial_charge
C1    C     C_R   0.308585 0.122925 0.909513 -0.070259
C2    C     C_R   0.351757 0.848857 0.906088 -0.119170
C3    C     C_R   0.807977 0.621355 0.908645 -0.102837
C4    C     C_R   0.814584 0.370218 0.907058 -0.058184
C5    C     C_R   0.647724 0.150719 0.092230 0.743128
C6    C     C_R   0.647794 0.848358 0.090567 0.741922
C7    C     C_R   0.182177 0.631320 0.088044 0.755567
C8    C     C_R   0.149477 0.349286 0.092468 0.721628
C9    C     C_R   0.558051 0.847476 0.909583 -0.233532
C10   C     C_R   0.558773 0.152325 0.911278 -0.230054
C11   C     C_R   0.062397 0.347827 0.910988 -0.196056
C12   C     C_R   0.093821 0.626482 0.906100 -0.224217
C13   C     C_R   0.552258 0.999350 0.727760 0.140855
C14   C     C_R   0.928992 0.499131 0.631350 0.144764
C15   C     C_R   0.824297 0.999804 0.282183 0.106211
C16   C     C_R   0.323354 0.499581 0.313962 0.075257
C17   C     C_R   0.619035 0.182323 0.003359 -0.139541
C18   C     C_R   0.618628 0.815576 0.999721 -0.089358
C19   C     C_R   0.178549 0.644185 0.995197 -0.112909
C20   C     C_R   0.124513 0.316777 0.003182 -0.096679
C21   C     C_3   0.038645 0.976596 0.569555 -0.483352
C22   C     C_3   0.067126 0.058942 0.494681 -0.556031
C23   C     C_3   0.550501 0.468886 0.582351 -0.506050
C24   C     C_3   0.564360 0.559621 0.514920 -0.574839
C25   C     C_3   0.937634 0.973811 0.472306 0.556701
C26   C     C_3   0.964628 0.059247 0.398753 0.597268
C27   C     C_3   0.445665 0.472124 0.499379 0.586425
C28   C     C_3   0.461595 0.559649 0.422621 0.585725
C29   C     C_3   0.090889 0.964186 0.436876 -0.590649
C30   C     C_3   0.584126 0.472303 0.432102 -0.589007
C31   C     C_3   0.101006 0.998831 0.534998 -0.065025
C32   C     C_3   0.602950 0.499325 0.540720 -0.044219
C33   C     C_3   0.925753 0.999266 0.369461 -0.359164
C34   C     C_3   0.424342 0.499361 0.393872 -0.342582
C35   C     C_R   0.440733 0.847320 0.088717 -0.012876
C36   C     C_R   0.400618 0.121550 0.092880 -0.085971
C37   C     C_R   0.907829 0.369024 0.092107 -0.054896
C38   C     C_R   0.901709 0.626088 0.091586 -0.057933
C39   C     C_3   0.982823 0.965206 0.337040 1.352000
C40   C     C_3   0.473946 0.466961 0.348968 1.328858
C41   C     C_R   0.265245 0.745343 0.891599 -0.139194
C42   C     C_R   0.268598 0.188868 0.106610 -0.177565
C43   C     C_R   0.677939 0.318714 0.957341 -0.139847
C44   C     C_R   0.661022 0.686573 0.898358 -0.144519
C45   C     C_R   0.626095 0.277225 0.959562 -0.104166
C46   C     C_R   0.615903 0.733797 0.897605 -0.129125
C47   C     C_R   0.212276 0.704544 0.892102 -0.128085
C48   C     C_R   0.227756 0.237727 0.105633 -0.078332
C49   C     C_R   0.670182 0.227320 0.006543 0.168090
C50   C     C_R   0.640928 0.757638 0.996470 0.136323
C51   C     C_R   0.244126 0.676793 0.988978 0.132407
C52   C     C_R   0.151984 0.259148 0.007107 0.151894
C53   C     C_R   0.763500 0.217043 0.048239 -0.126387
C54   C     C_R   0.696211 0.727464 0.092664 -0.090170
C55   C     C_R   0.336327 0.683149 0.079814 -0.082581
C56   C     C_R   0.108465 0.226254 0.912563 -0.172047
C57   C     C_R   0.392257 0.723587 0.079297 -0.164592
C58   C     C_R   0.149697 0.176274 0.912953 -0.097614
C59   C     C_R   0.815121 0.257016 0.042109 -0.123239
C60   C     C_R   0.742070 0.679763 0.094657 -0.147168
C61   C     C_R   0.350873 0.759362 0.988182 0.071881
C62   C     C_R   0.238353 0.162237 0.008060 0.076224
C63   C     C_R   0.771633 0.308619 0.999399 0.055544
C64   C     C_R   0.733939 0.663720 0.998211 0.079041
C65   C     C_R   0.612087 0.949402 0.632209 0.690302
C66   C     C_R   0.612260 0.048878 0.634149 0.686518
C67   C     C_R   0.911871 0.449371 0.477119 0.711757
C68   C     C_R   0.914055 0.548867 0.481295 0.669726
C69   C     C_R   0.611716 0.949656 0.539188 -0.232428
C70   C     C_R   0.610740 0.048961 0.540407 -0.249824
C71   C     C_R   0.952079 0.449443 0.420421 -0.288063
C72   C     C_R   0.959480 0.548940 0.430855 -0.257322
C73   C     C_R   0.600091 0.999401 0.485400 0.004535
C74   C     C_R   0.983633 0.499124 0.405411 -0.013959
C75   C     C_R   0.550258 0.045115 0.304824 0.599248
C76   C     C_R   0.546921 0.954400 0.302374 0.648825
C77   C     C_R   0.029449 0.545291 0.293529 0.619042
C78   C     C_R   0.029672 0.454421 0.292598 0.600668
C79   C     C_R   0.598712 0.999138 0.670777 -0.271277
C80   C     C_R   0.905853 0.499055 0.521354 -0.154050
C81   C     C_R   0.243569 0.953396 0.699486 -0.110386
C82   C     C_R   0.244981 0.045577 0.696711 -0.091032
C83   C     C_R   0.748121 0.453769 0.695928 -0.186550
C84   C     C_R   0.748549 0.545594 0.695059 -0.131778
C85   C     C_R   0.310432 0.133512 0.002751 0.043035
C86   C     C_R   0.381548 0.815982 0.995533 0.024840
C87   C     C_R   0.810365 0.635524 0.000657 0.035926
C88   C     C_R   0.823751 0.352447 0.999841 0.002629
C89   C     C_R   0.565875 0.999645 0.369338 -0.222515
C90   C     C_R   0.026007 0.499672 0.346031 -0.142508
C91   C     C_R   0.196152 0.999261 0.637194 0.205648
C92   C     C_R   0.701424 0.499566 0.633887 0.238130
C93   C     C_R   0.519207 0.045444 0.752246 -0.061867
C94   C     C_R   0.519756 0.953746 0.752401 -0.034729
C95   C     C_R   0.946797 0.544999 0.695705 -0.099573
C96   C     C_R   0.949188 0.453837 0.696594 -0.094043
C97   C     C_R   0.768001 0.953538 0.249983 0.049885
C98   C     C_R   0.767559 0.046215 0.251563 -0.107459
C99   C     C_R   0.268386 0.453068 0.270356 0.085191
C100  C     C_R   0.266986 0.545938 0.278104 -0.071616
H1    H     H_    0.251770 0.129720 0.825441 0.105752
H2    H     H_    0.316225 0.835987 0.821850 0.105461
H3    H     H_    0.749414 0.623310 0.824336 0.098192
H4    H     H_    0.760194 0.360442 0.822967 0.120341
H5    H     H_    0.043357 0.004429 0.632394 0.174600
H6    H     H_    0.073733 0.084723 0.560886 0.162420
H7    H     H_    0.567954 0.487925 0.660175 0.150731
H8    H     H_    0.572618 0.578727 0.588217 0.151919
H9    H     H_    0.893865 0.997253 0.492129 0.058106
H10   H     H_    0.926357 0.084087 0.424511 0.040282
H11   H     H_    0.414411 0.497582 0.533386 0.041545
H12   H     H_    0.425774 0.583894 0.452257 0.038901
H13   H     H_    0.232429 0.769678 0.818070 0.137769
H14   H     H_    0.331474 0.176989 0.183569 0.146423
H15   H     H_    0.645674 0.358476 0.923346 0.139845
H16   H     H_    0.645558 0.672856 0.820720 0.122426
H17   H     H_    0.552833 0.283764 0.925631 0.139342
H18   H     H_    0.568695 0.753873 0.820005 0.137689
H19   H     H_    0.142692 0.699322 0.818906 0.141236
H20   H     H_    0.262860 0.260539 0.181311 0.208011
H21   H     H_    0.794017 0.176562 0.079643 0.177092
H22   H     H_    0.707217 0.741577 0.167698 0.255509
H23   H     H_    0.363818 0.657220 0.150802 0.241942
H24   H     H_    0.044208 0.239924 0.838418 0.174732
H25   H     H_    0.481079 0.833758 0.172511 0.185167
H26   H     H_    0.427072 0.124326 0.177879 0.156622
H27   H     H_    0.937253 0.357289 0.175365 0.177282
H28   H     H_    0.930450 0.636019 0.175293 0.177694
H29   H     H_    0.613954 0.910270 0.507080 0.254344
H30   H     H_    0.611174 0.088480 0.508675 0.253522
H31   H     H_    0.959654 0.410347 0.391172 0.236374
H32   H     H_    0.975912 0.588066 0.412994 0.227971
H33   H     H_    0.228987 0.910458 0.677740 0.111016
H34   H     H_    0.233683 0.087785 0.669126 0.102900
H35   H     H_    0.734764 0.410981 0.672364 0.139534
H36   H     H_    0.737517 0.588026 0.668723 0.119012
H37   H     H_    0.527197 0.088225 0.741732 0.185888
H38   H     H_    0.528863 0.910765 0.742436 0.184471
H39   H     H_    0.929465 0.587431 0.671391 0.192827
H40   H     H_    0.935774 0.411010 0.673265 0.185556
H41   H     H_    0.789334 0.910912 0.263084 0.253490
H42   H     H_    0.787551 0.088845 0.265061 0.205000
H43   H     H_    0.288928 0.410275 0.286167 0.244753
H44   H     H_    0.284845 0.587478 0.307418 0.209758
H45   H     H_    0.511217 0.833496 0.826182 0.144253
H46   H     H_    0.519295 0.166586 0.827686 0.165942
H47   H     H_    0.020010 0.333537 0.827273 0.152138
H48   H     H_    0.066105 0.629645 0.820619 0.150230
H49   H     H_    0.062405 0.935639 0.609419 0.253731
H50   H     H_    0.110220 0.078929 0.471362 0.235665
H51   H     H_    0.572318 0.425074 0.601774 0.259907
H52   H     H_    0.602710 0.586274 0.493158 0.238417
N1    N     N_R   0.392140 0.102630 0.941800 -0.059948
N2    N     N_R   0.392140 0.897370 0.941800 -0.053794
N3    N     N_R   0.892140 0.602630 0.941800 -0.049146
N4    N     N_R   0.892140 0.397370 0.941800 -0.050714
N5    N     N_R   0.450890 0.896450 0.057150 -0.058419
N6    N     N_R   0.450890 0.103550 0.057150 -0.043053
N7    N     N_R   0.950890 0.396450 0.057150 -0.038773
N8    N     N_R   0.950890 0.603550 0.057150 -0.050114
N9    N     N_R   0.525160 0.027960 0.206160 -0.150088
N10   N     N_R   0.525160 0.972040 0.206160 -0.149936
N11   N     N_R   0.025160 0.527960 0.206160 -0.152467
N12   N     N_R   0.025160 0.472040 0.206160 -0.151689
N13   N     N_R   0.317870 0.971120 0.792790 -0.048079
N14   N     N_R   0.317870 0.028880 0.792790 -0.050325
N15   N     N_R   0.817870 0.471120 0.792790 -0.053318
N16   N     N_R   0.817870 0.528880 0.792790 -0.054780
N17   N     N_R   0.473480 0.027920 0.793480 -0.061387
N18   N     N_R   0.473480 0.972080 0.793480 -0.059901
N19   N     N_R   0.973480 0.527920 0.793480 -0.060108
N20   N     N_R   0.973480 0.472080 0.793480 -0.057555
N21   N     N_R   0.681610 0.971120 0.207570 -0.084292
N22   N     N_R   0.681610 0.028880 0.207570 -0.066177
N23   N     N_R   0.181610 0.471120 0.207570 -0.089963
N24   N     N_R   0.181610 0.528880 0.207570 -0.081516
N25   N     N_R   0.605410 0.102620 0.056870 -0.112490
N26   N     N_R   0.605410 0.897380 0.056870 -0.119359
N27   N     N_R   0.105410 0.602620 0.056870 -0.109725
N28   N     N_R   0.105410 0.397380 0.056870 -0.110920
N29   N     N_R   0.549680 0.896430 0.944180 -0.084516
N30   N     N_R   0.549680 0.103570 0.944180 -0.082974
N31   N     N_R   0.049680 0.396430 0.944180 -0.080037
N32   N     N_R   0.049680 0.603570 0.944180 -0.076989
Ni1   Ni    Ni4+2 0.433410 0.064680 0.868830 0.223763
Ni2   Ni    Ni4+2 0.433410 0.935320 0.868830 0.222346
Ni3   Ni    Ni4+2 0.933410 0.564680 0.868830 0.225034
Ni4   Ni    Ni4+2 0.933410 0.435320 0.868830 0.227415
Ni5   Ni    Ni4+2 0.565650 0.934380 0.131170 0.323301
Ni6   Ni    Ni4+2 0.565650 0.065620 0.131170 0.323923
Ni7   Ni    Ni4+2 0.065650 0.434380 0.131170 0.330286
Ni8   Ni    Ni4+2 0.065650 0.565620 0.131170 0.297364
F1    F     F_    0.909670 0.919255 0.456205 -0.598126
F2    F     F_    0.954151 0.085138 0.309841 -0.597153
F3    F     F_    0.409027 0.419574 0.481560 -0.618295
F4    F     F_    0.447311 0.586143 0.332176 -0.610208
C101  C     C_2   0.122144 0.903705 0.467948 1.090920
O1    O     O_2   0.083486 0.873857 0.495940 -0.547669
O2    O     O_R   0.193437 0.881472 0.461925 -0.766415
H53   H     H_    0.206962 0.841315 0.484334 0.335852
C102  C     C_2   0.155950 0.990285 0.410107 1.121199
O3    O     O_2   0.240327 0.990485 0.480056 -0.635957
O4    O     O_R   0.122030 0.014679 0.309306 -0.670375
H54   H     H_    0.173419 0.030266 0.305005 0.330790
C103  C     C_2   0.629606 0.414952 0.451426 1.077621
O5    O     O_2   0.608810 0.377376 0.487566 -0.570149
O6    O     O_R   0.693305 0.404402 0.424822 -0.740025
H55   H     H_    0.717075 0.364939 0.440281 0.371929
C104  C     C_2   0.628297 0.509800 0.390363 1.148657
O7    O     O_2   0.712115 0.518710 0.449941 -0.633328
O8    O     O_R   0.575860 0.535167 0.287970 -0.665645
H56   H     H_    0.615086 0.558993 0.273711 0.339144
F5    F     F_    0.947326 0.912203 0.307556 -0.655973
F6    F     F_    0.966380 0.987707 0.242666 -0.602235
F7    F     F_    0.447412 0.412116 0.334472 -0.660051
F8    F     F_    0.440203 0.485790 0.245203 -0.631713
C105  C     C_2   0.492249 0.725797 0.171650 1.031491
O9    O     O_2   0.549735 0.743278 0.157317 -0.634714
O10   O     O_R   0.521518 0.705672 0.274204 -0.728429
H57   H     H_    0.591526 0.708551 0.329904 0.356997
C106  C     C_2   0.098513 0.139743 0.815528 0.990199
O11   O     O_2   0.113980 0.090090 0.825125 -0.642969
O12   O     O_R   0.030331 0.161749 0.713140 -0.780409
H58   H     H_    0.999788 0.132614 0.653587 0.325217
C107  C     C_2   0.911152 0.242308 0.075555 1.048526
O13   O     O_2   0.942794 0.262036 0.028203 -0.631561
O14   O     O_R   0.964140 0.203935 0.158968 -0.725014
H59   H     H_    0.027653 0.196741 0.173606 0.355099
C108  C     C_2   0.798872 0.650269 0.199547 1.004582
O15   O     O_2   0.806341 0.600063 0.201484 -0.657085
O16   O     O_R   0.841170 0.680612 0.296679 -0.733705
H60   H     H_    0.875089 0.657052 0.364184 0.377341
F9    F     F_    0.619202 0.900132 0.678475 -0.686478
F10   F     F_    0.620514 0.097938 0.682981 -0.686431
F11   F     F_    0.886549 0.400462 0.495411 -0.678790
F12   F     F_    0.887222 0.597706 0.500058 -0.701990
F13   F     F_    0.581986 0.096809 0.341257 -0.681520
F14   F     F_    0.571012 0.901314 0.333992 -0.686001
F15   F     F_    0.058666 0.596305 0.337408 -0.697750
F16   F     F_    0.059149 0.403190 0.334966 -0.672805
F17   F     F_    0.691233 0.169628 0.196125 -0.673814
F18   F     F_    0.689347 0.830915 0.194608 -0.670564
F19   F     F_    0.239062 0.655660 0.186841 -0.697221
F20   F     F_    0.182682 0.330694 0.193967 -0.692222

loop_
_geom_bond_atom_site_label_1
_geom_bond_atom_site_label_2
_ccdc_geom_bond_type
C77   N11   A    
C38   C87   A    
O4    H54   S    
C22   H50   S    
C68   C80   A    
N13   N14   A    
C65   C79   A    
C1    H1    S    
C63   C88   S    
N14   Ni1   S    
C102  O3    D    
C37   C88   A    
C76   N10   A    
O12   H58   S    
C41   C61   A    
N19   N20   A    
C11   H47   S    
C30   C104  S    
C13   C79   S    
N9    N10   A    
C53   C59   A    
C43   C63   A    
C93   N17   A    
C48   H20   S    
C9    N29   A    
C54   C60   A    
C103  O5    D    
C44   C64   A    
C78   N12   A    
C83   C92   A    
N2    Ni2   S    
C67   F11   S    
C8    C20   A    
C57   C61   A    
C57   C105  S    
C66   F10   S    
C34   C40   S    
C56   H24   S    
C65   F9    S    
C28   H12   S    
C108  O16   S    
N6    Ni6   S    
N23   Ni7   S    
C98   N22   A    
C35   C86   A    
C49   C53   A    
C28   F4    S    
N24   Ni8   S    
C5    C17   A    
C8    F20   S    
C10   C17   A    
C3    H3    S    
N25   N30   A    
C70   H30   S    
C46   H18   S    
C76   F14   S    
N17   N18   A    
N21   Ni5   S    
N1    N6    A    
C35   H25   S    
O14   H59   S    
C23   H51   S    
C24   H52   S    
C12   C19   A    
C43   H15   S    
C99   H43   S    
C33   C39   S    
C42   H14   S    
N27   Ni8   S    
N11   N12   A    
C100  N24   A    
C69   C73   A    
N11   Ni8   S    
C24   H8    S    
C23   C27   S    
C66   C70   A    
N12   Ni7   S    
C68   F12   S    
C26   H10   S    
C64   C87   S    
C83   H35   S    
N28   N31   A    
C36   N6    A    
C76   C89   A    
C16   C34   S    
C47   H19   S    
C54   H22   S    
C27   H11   S    
O2    H53   S    
C2    N2    A    
N16   Ni3   S    
C6    N26   A    
C102  O4    S    
C40   F8    S    
C15   C97   A    
C10   N30   A    
C14   C96   A    
C58   C106  S    
C44   C46   A    
C60   C64   A    
C104  O7    D    
N4    Ni4   S    
C27   C34   S    
C1    C85   A    
C6    C18   A    
C62   C85   S    
C55   H23   S    
C77   C90   A    
C97   N21   A    
C22   C31   S    
C39   F5    S    
C106  O12   S    
C3    C87   A    
O6    H55   S    
N17   Ni1   S    
N7    Ni7   S    
C11   N31   A    
N8    Ni8   S    
N2    N5    A    
C72   C74   A    
C100  H44   S    
C17   C49   S    
N15   N16   A    
N3    Ni3   S    
N26   Ni5   S    
C16   C100  A    
C47   C51   A    
C51   C55   A    
C105  O9    D    
N21   N22   A    
C30   C103  S    
C83   N15   A    
C11   C20   A    
C78   C90   A    
C82   C91   A    
C60   C108  S    
C13   C93   A    
N30   Ni1   S    
C82   H34   S    
C24   C32   S    
C106  O11   D    
C66   C79   A    
C104  O8    S    
C81   N13   A    
C25   H9    S    
C21   C31   S    
C8    N28   A    
C26   C33   S    
O8    H56   S    
C45   C49   A    
C68   C72   A    
C23   H7    S    
N18   Ni2   S    
C70   C73   A    
C3    N3    A    
C107  O13   D    
C41   C47   A    
C30   C40   S    
C21   H49   S    
C42   C48   A    
C1    N1    A    
C43   C45   A    
C97   H41   S    
C12   N32   A    
C58   C62   A    
C10   H46   S    
C4    C88   A    
C4    N4    A    
N22   Ni6   S    
C5    N25   A    
C7    C19   A    
C14   C80   S    
C55   C57   A    
C96   N20   A    
C94   H38   S    
C75   F13   S    
C27   F3    S    
C15   C98   A    
C26   F2    S    
C35   N5    A    
C14   C95   A    
C50   C54   A    
C25   F1    S    
C18   C50   S    
N27   N32   A    
C82   N14   A    
C45   H17   S    
C29   C39   S    
O10   H57   S    
C21   C25   S    
C84   H36   S    
C78   F16   S    
N25   Ni6   S    
C39   F6    S    
N3    N8    A    
C59   C63   A    
N4    N7    A    
C36   H26   S    
C67   C80   A    
C24   C28   S    
C31   C91   S    
C41   H13   S    
N9    Ni6   S    
N28   Ni7   S    
C96   H40   S    
C71   C74   A    
C38   H28   S    
N29   Ni2   S    
C16   C99   A    
C81   H33   S    
C7    N27   A    
C42   C62   A    
C36   C85   A    
C105  O10   S    
C20   C52   S    
C46   C50   A    
C95   H39   S    
N13   Ni2   S    
C108  O15   D    
N32   Ni3   S    
N19   Ni3   S    
C13   C94   A    
C75   N9    A    
C23   C32   S    
C74   C90   S    
C101  O2    S    
C38   N8    A    
C29   C31   S    
N23   N24   A    
C22   H6    S    
C12   H48   S    
C94   N18   A    
C72   H32   S    
C30   C32   S    
C29   C102  S    
C37   N7    A    
C32   C92   S    
N1    Ni1   S    
N20   Ni4   S    
C65   C69   A    
N15   Ni4   S    
C4    H4    S    
C40   F7    S    
C9    H45   S    
C107  O14   S    
C56   C58   A    
C2    C86   A    
C67   C71   A    
C28   C34   S    
C101  O1    D    
C59   C107  S    
N5    Ni5   S    
N26   N29   A    
C93   H37   S    
C61   C86   S    
C75   C89   A    
C73   C89   S    
C81   C91   A    
C19   C51   S    
C9    C18   A    
C48   C52   A    
C29   C101  S    
C99   N23   A    
C84   N16   A    
C44   H16   S    
C71   H31   S    
C69   H29   S    
C22   C26   S    
C7    F19   S    
O16   H60   S    
C77   F15   S    
C2    H2    S    
C6    F18   S    
C53   H21   S    
C84   C92   A    
C5    F17   S    
N31   Ni4   S    
C103  O6    S    
C95   N19   A    
C15   C33   S    
N10   Ni5   S    
C98   H42   S    
C21   H5    S    
C52   C56   A    
C25   C33   S    
C37   H27   S    
