data_mof_unit_44863.cif
_audit_creation_date              2012-12-11T17:08:30-0500
_audit_creation_method            fapswitch 2.2
_symmetry_space_group_name_H-M    P1
_symmetry_Int_Tables_number       1
_space_group_crystal_system       triclinic
_cell_length_a                    6.972988
_cell_length_b                    14.515177
_cell_length_c                    16.090311
_cell_angle_alpha                 89.98927
_cell_angle_beta                  89.999505
_cell_angle_gamma                 90.011133
_cell_volume                      1628.56717281

loop_
_atom_site_label
_atom_site_type_symbol
_atom_type_description
_atom_site_fract_x
_atom_site_fract_y
_atom_site_fract_z
_atom_type_partial_charge
O1    O     O_R   0.505700 0.583890 0.413310 -0.536027
O2    O     O_R   0.175960 0.594920 0.586080 -0.543423
O3    O     O_R   0.005660 0.416110 0.586690 -0.537040
C1    C     C_R   0.344748 0.616929 0.614786 0.701429
O4    O     O_R   0.175980 0.594920 0.413930 -0.547382
O5    O     O_R   0.005680 0.416110 0.413310 -0.540018
C2    C     C_R   0.344851 0.617042 0.385334 0.697405
O6    O     O_R   0.505680 0.583890 0.586690 -0.538123
O7    O     O_3   0.339200 0.441330 0.500000 -0.369135
V1    V     V_3+5 0.064350 0.510880 0.500000 1.401722
O8    O     O_R   0.675960 0.405080 0.413920 -0.538638
C3    C     C_R   0.844988 0.383224 0.385073 0.711184
O9    O     O_R   0.675940 0.405080 0.586070 -0.542295
C4    C     C_R   0.844572 0.383202 0.614771 0.721501
V2    V     V_3+5 0.564340 0.489120 0.500000 1.411159
O10   O     O_3   0.839360 0.558670 0.500000 -0.373657
C5    C     C_R   0.986984 0.243155 0.683510 0.108441
C6    C     C_R   0.851386 0.314185 0.682444 -0.156853
C7    C     C_R   0.715034 0.315585 0.747123 -0.219450
H1    H     H_    0.605188 0.368366 0.747737 0.153049
C8    C     C_R   0.728385 0.254024 0.815001 0.364689
C9    C     C_R   0.875510 0.186382 0.817726 -0.158635
C10   C     C_R   0.996980 0.180280 0.748539 0.025945
C11   C     C_3   0.210381 0.175353 0.743312 -0.383275
C12   C     C_3   0.199301 0.244702 0.672473 -0.369851
H2    H     H_    0.261048 0.106259 0.723195 0.165987
H3    H     H_    0.280876 0.202906 0.799810 0.234953
H4    H     H_    0.243961 0.215529 0.611618 0.175285
H5    H     H_    0.263625 0.312611 0.688197 0.183078
C13   C     C_R   0.728365 0.182090 0.241895 0.173206
C14   C     C_R   0.881740 0.182353 0.185520 -0.144519
C15   C     C_R   0.032487 0.244714 0.200827 -0.111577
C16   C     C_R   0.021601 0.308787 0.266449 -0.172519
C17   C     C_R   0.858828 0.313025 0.318341 -0.111367
C18   C     C_R   0.716740 0.246180 0.306286 0.061123
C19   C     C_3   0.505976 0.257858 0.295350 -0.456652
C20   C     C_3   0.518348 0.187566 0.225426 0.228304
H6    H     H_    0.468975 0.328166 0.273217 0.135003
C21   C     C_R   0.507231 0.682918 0.741186 0.110411
C22   C     C_R   0.352750 0.682424 0.685462 -0.111136
C23   C     C_R   0.201113 0.744057 0.701380 -0.168331
H7    H     H_    0.078468 0.746086 0.660407 0.138187
C24   C     C_R   0.212341 0.808264 0.766901 -0.173482
H8    H     H_    0.097395 0.857527 0.774561 0.126634
C25   C     C_R   0.375852 0.813016 0.818328 -0.104099
C26   C     C_R   0.518775 0.746699 0.805786 0.106774
C27   C     C_3   0.728974 0.759298 0.793722 -0.413857
C28   C     C_3   0.716521 0.689411 0.723651 -0.396076
H9    H     H_    0.813322 0.734418 0.847875 0.176472
H10   H     H_    0.764655 0.829934 0.771989 0.167540
H11   H     H_    0.792906 0.623950 0.737452 0.172624
C29   C     C_R   0.515926 0.688336 0.263709 0.035996
C30   C     C_R   0.353860 0.682907 0.314980 -0.083075
C31   C     C_R   0.200394 0.742673 0.297366 -0.160778
H12   H     H_    0.075982 0.743393 0.337218 0.154667
C32   C     C_R   0.212133 0.806780 0.231871 -0.107976
H13   H     H_    0.096987 0.854801 0.222256 0.191175
C33   C     C_R   0.377486 0.814115 0.182634 -0.062050
C34   C     C_R   0.529088 0.754439 0.200681 0.009557
C35   C     C_3   0.728957 0.778921 0.224890 0.240785
C36   C     C_3   0.717839 0.703686 0.290136 -0.414377
H14   H     H_    0.833244 0.764903 0.174283 0.062875
H15   H     H_    0.729006 0.728633 0.355335 0.208606
H16   H     H_    0.809721 0.643205 0.275589 0.128899
O11   O     O_R   0.229000 0.916070 0.913330 -0.551391
O12   O     O_R   0.558770 0.905070 0.086080 -0.525561
O13   O     O_R   0.729000 0.083900 0.086690 -0.519544
C37   C     C_R   0.389921 0.883484 0.115135 0.779480
O14   O     O_R   0.558720 0.905070 0.913930 -0.550939
O15   O     O_R   0.728960 0.083900 0.913310 -0.520409
C38   C     C_R   0.389687 0.883213 0.885075 0.659730
O16   O     O_R   0.229050 0.916070 0.086710 -0.545457
O17   O     O_3   0.395460 0.058650 0.000020 -0.343187
V3    V     V_3+5 0.670340 0.989120 0.000000 1.519048
O18   O     O_R   0.058670 0.094960 0.913900 -0.543572
C39   C     C_R   0.889337 0.118305 0.886334 0.739360
O19   O     O_R   0.058720 0.094960 0.086050 -0.526469
C40   C     C_R   0.889908 0.116854 0.114851 0.782493
V4    V     V_3+5 0.170330 0.010930 0.999970 1.511880
O20   O     O_3   0.895340 0.941350 0.999980 -0.389077
H17   H     H_    0.424194 0.234087 0.350652 0.220754
H18   H     H_    0.485166 0.215850 0.162867 0.088214
Cl1   Cl    Cl    0.400241 0.081747 0.249411 -0.568609
H19   H     H_    0.745774 0.719288 0.661307 0.175090
Cl2   Cl    Cl    0.573615 0.272130 0.900042 -0.699174
Cl3   Cl    Cl    0.742282 0.891586 0.270765 -0.597770
H20   H     H_    0.154425 0.247223 0.159455 0.141075
H21   H     H_    0.136140 0.358360 0.273795 0.125045

loop_
_geom_bond_atom_site_label_1
_geom_bond_atom_site_label_2
_ccdc_geom_bond_type
O12   C37   A    
O11   V4    S    
C25   C38   S    
O17   V3    S    
C4    C6    S    
C7    H1    S    
C11   H3    S    
C9    C39   S    
C1    O6    A    
C27   H9    S    
O19   C40   A    
C12   H4    S    
C5    C10   A    
C13   C18   A    
C19   C20   S    
C7    C8    A    
C16   H21   S    
C11   H2    S    
C17   C18   A    
O16   V4    S    
C29   C36   S    
O5    C3    A    
C13   C14   A    
V2    O10   S    
O12   V3    S    
C32   H13   S    
C35   H14   S    
C6    C7    A    
C23   H7    S    
O14   C38   A    
C31   H12   S    
O8    V2    S    
C28   H11   S    
C27   C28   S    
O15   V3    S    
C10   C11   S    
O1    V2    S    
O7    V1    S    
C34   C35   S    
V3    O20   S    
C8    C9    A    
C23   C24   A    
O13   C40   A    
C16   C17   A    
C27   H10   S    
C8    Cl2   S    
O19   V4    S    
C12   H5    S    
C31   C32   A    
C1    C22   S    
C11   C12   S    
C21   C22   A    
O4    C2    A    
C35   Cl3   S    
C33   C34   A    
C30   C31   A    
C15   H20   S    
C28   H19   S    
C13   C20   S    
C35   C36   S    
C18   C19   S    
C36   H16   S    
O2    C1    A    
O18   C39   A    
C29   C34   A    
C14   C15   A    
C19   H17   S    
C37   O16   A    
C36   H15   S    
C5    C6    A    
O17   V4    S    
O14   V3    S    
O13   V3    S    
C24   C25   A    
O3    C4    A    
C21   C26   A    
C33   C37   S    
C22   C23   A    
O6    V2    S    
O9    V2    S    
C24   H8    S    
O15   C39   A    
C20   H18   S    
C2    C30   S    
C3    C17   S    
O2    V1    S    
C29   C30   A    
C14   C40   S    
C26   C27   S    
O1    C2    A    
O5    V1    S    
O8    C3    A    
C5    C12   S    
C15   C16   A    
C19   H6    S    
O7    V2    S    
O4    V1    S    
O3    V1    S    
O11   C38   A    
C32   C33   A    
V4    O20   S    
C25   C26   A    
C9    C10   A    
C20   Cl1   S    
V1    O10   S    
O9    C4    A    
O18   V4    S    
C21   C28   S    
