data_mof_unit_62943.cif
_audit_creation_date              2012-10-26T17:18:45-0400
_audit_creation_method            fapswitch 2.2
_symmetry_space_group_name_H-M    P1
_symmetry_Int_Tables_number       1
_space_group_crystal_system       tetragonal
_cell_length_a                    30.177176
_cell_length_b                    30.177176
_cell_length_c                    23.687619
_cell_angle_alpha                 90.0
_cell_angle_beta                  90.0
_cell_angle_gamma                 90.0
_cell_volume                      21571.413341

loop_
_atom_site_label
_atom_site_type_symbol
_atom_type_description
_atom_site_fract_x
_atom_site_fract_y
_atom_site_fract_z
_atom_type_partial_charge
C1    C     C_R   0.585602 1.000000 0.500000 0.545202
C2    C     C_R   0.941307 0.726353 0.570354 -0.058509
C3    C     C_1   0.000000 0.500000 0.279943 -0.026285
C4    C     C_1   0.000000 0.500000 0.220057 -0.026285
C5    C     C_1   0.500000 0.000000 0.220057 -0.026285
C6    C     C_1   1.000000 0.500000 0.779943 -0.026285
C7    C     C_1   0.500000 1.000000 0.779943 -0.026285
C8    C     C_R   0.843060 0.971555 0.463839 -0.124364
C9    C     C_R   0.028446 0.843060 0.463839 -0.124364
C10   C     C_R   0.156940 0.028446 0.463839 -0.124365
C11   C     C_R   0.971555 0.156940 0.463839 -0.124364
C12   C     C_R   0.843060 0.028445 0.536161 -0.124364
C13   C     C_R   0.273647 0.941307 0.570354 -0.058509
C14   C     C_R   0.028445 0.156940 0.536161 -0.124365
C15   C     C_R   0.156940 0.971554 0.536161 -0.124365
C16   C     C_R   0.971554 0.843060 0.536161 -0.124364
C17   C     C_R   0.343060 0.471554 0.963839 -0.124364
C18   C     C_R   0.528445 0.343060 0.963839 -0.124364
C19   C     C_R   0.656940 0.528445 0.963839 -0.124364
C20   C     C_R   0.471555 0.656940 0.963838 -0.124364
C21   C     C_R   0.343060 0.528446 0.036161 -0.124364
C22   C     C_R   0.528445 0.656940 0.036161 -0.124365
C23   C     C_R   0.656940 0.471554 0.036161 -0.124365
C24   C     C_R   0.058691 0.273647 0.570356 -0.058508
C25   C     C_R   0.471555 0.343060 0.036161 -0.124364
C26   C     C_R   0.865929 1.000000 0.500000 -0.010722
C27   C     C_R   0.000000 0.865929 0.500000 -0.010722
C28   C     C_R   0.134071 1.000000 0.500000 -0.010722
C29   C     C_R   1.000000 0.134071 0.500000 -0.010722
C30   C     C_R   0.365929 0.500000 0.000000 -0.010722
C31   C     C_R   0.500000 0.365929 0.000000 -0.010722
C32   C     C_R   0.634070 0.500000 0.000000 -0.010722
C33   C     C_R   0.500000 0.634070 0.000000 -0.010722
C34   C     C_R   0.796585 0.028625 0.537336 0.014173
C35   C     C_R   0.726353 0.941308 0.429645 -0.058509
C36   C     C_R   0.971375 0.796585 0.537336 0.014173
C37   C     C_R   0.203415 0.971374 0.537335 0.014173
C38   C     C_R   0.028625 0.203415 0.537337 0.014173
C39   C     C_R   0.796585 0.971375 0.462664 0.014173
C40   C     C_R   0.971375 0.203415 0.462664 0.014173
C41   C     C_R   0.203415 0.028626 0.462664 0.014173
C42   C     C_R   0.028625 0.796585 0.462664 0.014173
C43   C     C_R   0.296585 0.528625 0.037336 0.014173
C44   C     C_R   0.471375 0.296585 0.037336 0.014173
C45   C     C_R   0.703415 0.471375 0.037336 0.014173
C46   C     C_R   0.941309 0.273647 0.429645 -0.058509
C47   C     C_R   0.528625 0.703415 0.037336 0.014173
C48   C     C_R   0.296585 0.471374 0.962664 0.014173
C49   C     C_R   0.471375 0.703415 0.962663 0.014173
C50   C     C_R   0.703415 0.528625 0.962664 0.014173
C51   C     C_R   0.528625 0.296585 0.962664 0.014173
C52   C     C_R   0.773337 1.000000 0.500000 -0.005023
C53   C     C_R   1.000000 0.773337 0.500000 -0.005023
C54   C     C_R   0.226663 1.000000 0.500000 -0.005023
C55   C     C_R   1.000000 0.226663 0.500000 -0.005023
C56   C     C_R   0.273337 0.500000 0.000000 -0.005023
C57   C     C_R   0.273647 0.058693 0.429646 -0.058509
C58   C     C_R   0.500000 0.273337 0.000000 -0.005023
C59   C     C_R   0.726663 0.500000 0.000000 -0.005023
C60   C     C_R   0.500000 0.726663 1.000000 -0.005023
C61   C     C_R   0.772489 0.057344 0.573704 0.248435
C62   C     C_R   0.942655 0.772489 0.573703 0.248434
C63   C     C_R   0.227511 0.942655 0.573703 0.248434
C64   C     C_R   0.057344 0.227511 0.573705 0.248436
C65   C     C_R   0.772489 0.942656 0.426296 0.248435
C66   C     C_R   0.942656 0.227511 0.426295 0.248434
C67   C     C_R   0.227511 0.057345 0.426297 0.248435
C68   C     C_R   0.058692 0.726353 0.429646 -0.058508
C69   C     C_R   0.057345 0.772489 0.426296 0.248435
C70   C     C_R   0.272489 0.557345 0.073704 0.248434
C71   C     C_R   0.442656 0.272489 0.073705 0.248435
C72   C     C_R   0.727511 0.442655 0.073704 0.248435
C73   C     C_R   0.557343 0.727511 0.073705 0.248435
C74   C     C_R   0.272489 0.442655 0.926297 0.248434
C75   C     C_R   0.442656 0.727511 0.926295 0.248435
C76   C     C_R   0.727511 0.557344 0.926296 0.248435
C77   C     C_R   0.557344 0.272489 0.926295 0.248435
C78   C     C_R   0.226353 0.558692 0.070354 -0.058509
C79   C     C_R   0.441308 0.226353 0.070355 -0.058508
C80   C     C_R   0.773647 0.441308 0.070355 -0.058508
C81   C     C_R   1.000000 0.585602 0.500000 0.545202
C82   C     C_R   0.558691 0.773647 0.070356 -0.058509
C83   C     C_R   0.226353 0.441307 0.929646 -0.058509
C84   C     C_R   0.441309 0.773647 0.929644 -0.058509
C85   C     C_R   0.773647 0.558692 0.929646 -0.058509
C86   C     C_R   0.558692 0.226353 0.929645 -0.058509
C87   C     C_R   0.703301 0.029993 0.534600 -0.025955
C88   C     C_R   0.970007 0.703301 0.534600 -0.025955
C89   C     C_R   0.296699 0.970007 0.534599 -0.025955
C90   C     C_R   0.029992 0.296699 0.534601 -0.025955
C91   C     C_R   0.703301 0.970007 0.465400 -0.025955
C92   C     C_R   0.414398 1.000000 0.500000 0.545203
C93   C     C_R   0.970007 0.296699 0.465400 -0.025955
C94   C     C_R   0.296699 0.029993 0.465400 -0.025955
C95   C     C_R   0.029993 0.703301 0.465400 -0.025955
C96   C     C_R   0.203301 0.529993 0.034600 -0.025955
C97   C     C_R   0.470007 0.203301 0.034600 -0.025955
C98   C     C_R   0.796699 0.470007 0.034600 -0.025955
C99   C     C_R   0.529992 0.796699 0.034600 -0.025955
C100  C     C_R   0.203301 0.470007 0.965400 -0.025955
C101  C     C_R   0.470007 0.796699 0.965399 -0.025955
C102  C     C_R   0.796699 0.529993 0.965400 -0.025955
C103  C     C_R   1.000000 0.414398 0.500000 0.545202
C104  C     C_R   0.529993 0.203301 0.965400 -0.025955
C105  C     C_R   0.726699 1.000000 0.500000 0.033935
C106  C     C_R   0.000000 0.726699 0.500000 0.033935
C107  C     C_R   0.273301 1.000000 0.500000 0.033935
C108  C     C_R   1.000000 0.273301 0.500000 0.033935
C109  C     C_R   0.226699 0.500000 0.000000 0.033935
C110  C     C_R   0.500000 0.226699 0.000000 0.033935
C111  C     C_R   0.773301 0.500000 0.000000 0.033935
C112  C     C_R   0.500000 0.773301 1.000000 0.033935
C113  C     C_R   0.656997 0.030405 0.533519 -0.124734
C114  C     C_R   0.085602 0.500000 0.000000 0.545202
C115  C     C_R   0.969594 0.656997 0.533519 -0.124734
C116  C     C_R   0.343003 0.969594 0.533518 -0.124734
C117  C     C_R   0.030405 0.343003 0.533520 -0.124734
C118  C     C_R   0.656997 0.969594 0.466481 -0.124734
C119  C     C_R   0.969595 0.343003 0.466481 -0.124734
C120  C     C_R   0.343003 0.030406 0.466482 -0.124734
C121  C     C_R   0.030406 0.656997 0.466481 -0.124734
C122  C     C_R   0.156997 0.530406 0.033518 -0.124734
C123  C     C_R   0.469595 0.156997 0.033519 -0.124734
C124  C     C_R   0.843003 0.469594 0.033519 -0.124734
C125  C     C_R   0.500000 0.085602 0.000000 0.545202
C126  C     C_R   0.530405 0.843003 0.033519 -0.124734
C127  C     C_R   0.156997 0.469594 0.966481 -0.124734
C128  C     C_R   0.469595 0.843003 0.966480 -0.124734
C129  C     C_R   0.843003 0.530405 0.966481 -0.124734
C130  C     C_R   0.530405 0.156997 0.966481 -0.124734
C131  C     C_R   0.633914 1.000000 0.500000 0.009791
C132  C     C_R   1.000000 0.633914 0.500000 0.009791
C133  C     C_R   0.366086 1.000000 0.500000 0.009791
C134  C     C_R   1.000000 0.366086 0.500000 0.009791
C135  C     C_R   0.133914 0.500000 0.000000 0.009791
C136  C     C_R   0.914398 0.500000 0.000000 0.545203
C137  C     C_R   0.500000 0.133914 0.000000 0.009791
C138  C     C_R   0.866086 0.500000 0.000000 0.009791
C139  C     C_R   0.500000 0.866086 1.000000 0.009791
C140  C     C_R   1.000000 0.914218 0.500000 0.550801
C141  C     C_R   0.085782 1.000000 0.500000 0.550801
C142  C     C_R   1.000000 0.085782 0.500000 0.550801
C143  C     C_R   0.914218 1.000000 0.500000 0.550802
C144  C     C_R   0.500000 0.414218 0.000000 0.550801
C145  C     C_R   0.585782 0.500000 0.000000 0.550801
C146  C     C_R   0.500000 0.585782 0.000000 0.550801
C147  C     C_R   0.500000 0.914398 0.000000 0.545202
C148  C     C_R   0.414218 0.500000 0.000000 0.550801
C149  C     C_R   0.500000 1.000000 0.608118 0.547837
C150  C     C_R   1.000000 0.500000 0.608118 0.547837
C151  C     C_R   0.500000 0.000000 0.391882 0.547837
C152  C     C_R   0.000000 0.500000 0.391882 0.547837
C153  C     C_R   0.000000 0.500000 0.108118 0.547837
C154  C     C_R   0.500000 0.000000 0.108118 0.547837
C155  C     C_R   1.000000 0.500000 0.891882 0.547837
C156  C     C_R   0.500000 0.000000 0.891882 0.547837
C157  C     C_1   0.500000 1.000000 0.668989 -0.008071
C158  C     C_R   0.726353 0.058692 0.570355 -0.058509
C159  C     C_1   1.000000 0.500000 0.668989 -0.008071
C160  C     C_1   0.500000 0.000000 0.331011 -0.008071
C161  C     C_1   0.000000 0.500000 0.331011 -0.008071
C162  C     C_1   0.000000 0.500000 0.168989 -0.008071
C163  C     C_1   0.500000 0.000000 0.168989 -0.008071
C164  C     C_1   1.000000 0.500000 0.831011 -0.008071
C165  C     C_1   0.500000 1.000000 0.831011 -0.008071
C166  C     C_1   0.500000 1.000000 0.720057 -0.026285
C167  C     C_1   1.000000 0.500000 0.720057 -0.026285
C168  C     C_1   0.500000 1.000000 0.279943 -0.026285
Cu1   Cu    Cu3+1 0.500000 0.044510 0.500000 0.973721
Cu2   Cu    Cu3+1 0.000000 0.000000 0.444190 0.962624
Cu3   Cu    Cu3+1 0.500000 0.500000 0.055810 0.962624
Cu4   Cu    Cu3+1 0.500000 0.500000 0.944190 0.962624
Cu5   Cu    Cu3+1 0.955490 0.500000 0.500000 0.973721
Cu6   Cu    Cu3+1 0.500000 0.955490 0.500000 0.973721
Cu7   Cu    Cu3+1 0.044510 0.500000 0.500000 0.973721
Cu8   Cu    Cu3+1 0.000000 0.544510 0.000000 0.973720
Cu9   Cu    Cu3+1 0.455490 0.000000 0.000000 0.973721
Cu10  Cu    Cu3+1 0.000000 0.455490 0.000000 0.973721
Cu11  Cu    Cu3+1 0.544510 0.000000 0.000000 0.973721
Cu12  Cu    Cu3+1 1.000000 0.000000 0.555810 0.962624
H1    H     H_    0.862227 0.948979 0.438120 0.131707
H2    H     H_    0.551021 0.362227 0.938119 0.131707
H3    H     H_    0.637773 0.551021 0.938120 0.131708
H4    H     H_    0.448979 0.637773 0.938119 0.131708
H5    H     H_    0.362227 0.551022 0.061880 0.131708
H6    H     H_    0.551020 0.637773 0.061881 0.131708
H7    H     H_    0.637773 0.448978 0.061880 0.131706
H8    H     H_    0.448979 0.362227 0.061880 0.131706
H9    H     H_    0.708366 0.081370 0.597479 0.146795
H10   H     H_    0.918629 0.708366 0.597478 0.146795
H11   H     H_    0.291634 0.918628 0.597477 0.146796
H12   H     H_    0.051022 0.862227 0.438120 0.131706
H13   H     H_    0.081369 0.291634 0.597480 0.146796
H14   H     H_    0.708366 0.918630 0.402521 0.146796
H15   H     H_    0.918630 0.291634 0.402520 0.146795
H16   H     H_    0.291634 0.081371 0.402523 0.146796
H17   H     H_    0.081371 0.708366 0.402522 0.146796
H18   H     H_    0.208366 0.581371 0.097478 0.146795
H19   H     H_    0.418630 0.208366 0.097480 0.146796
H20   H     H_    0.791634 0.418629 0.097478 0.146796
H21   H     H_    0.581369 0.791634 0.097480 0.146795
H22   H     H_    0.208366 0.418629 0.902522 0.146795
H23   H     H_    0.137773 0.051022 0.438121 0.131706
H24   H     H_    0.418631 0.791634 0.902520 0.146796
H25   H     H_    0.791634 0.581371 0.902522 0.146795
H26   H     H_    0.581370 0.208366 0.902520 0.146795
H27   H     H_    0.638826 0.053559 0.559812 0.122435
H28   H     H_    0.946440 0.638826 0.559812 0.122435
H29   H     H_    0.361174 0.946440 0.559812 0.122435
H30   H     H_    0.053559 0.361174 0.559813 0.122435
H31   H     H_    0.638826 0.946441 0.440187 0.122435
H32   H     H_    0.946441 0.361174 0.440187 0.122435
H33   H     H_    0.361174 0.053560 0.440188 0.122435
H34   H     H_    0.948979 0.137773 0.438119 0.131709
H35   H     H_    0.053559 0.638826 0.440188 0.122435
H36   H     H_    0.138826 0.553559 0.059812 0.122435
H37   H     H_    0.446441 0.138826 0.059813 0.122435
H38   H     H_    0.861174 0.446441 0.059812 0.122435
H39   H     H_    0.553558 0.861174 0.059813 0.122435
H40   H     H_    0.138826 0.446440 0.940188 0.122435
H41   H     H_    0.446441 0.861174 0.940187 0.122435
H42   H     H_    0.861174 0.553559 0.940188 0.122435
H43   H     H_    0.553559 0.138826 0.940187 0.122435
H44   H     H_    0.818514 0.069400 0.628540 0.324385
H45   H     H_    0.862227 0.051021 0.561880 0.131707
H46   H     H_    0.930600 0.818514 0.628539 0.324384
H47   H     H_    0.181486 0.930598 0.628538 0.324385
H48   H     H_    0.069399 0.181486 0.628540 0.324385
H49   H     H_    0.818514 0.930600 0.371461 0.324384
H50   H     H_    0.930602 0.181486 0.371459 0.324384
H51   H     H_    0.181486 0.069402 0.371462 0.324385
H52   H     H_    0.069402 0.818514 0.371462 0.324386
H53   H     H_    0.318514 0.569400 0.128539 0.324383
H54   H     H_    0.430600 0.318514 0.128540 0.324385
H55   H     H_    0.681486 0.430599 0.128539 0.324384
H56   H     H_    0.051021 0.137773 0.561881 0.131706
H57   H     H_    0.569398 0.681486 0.128541 0.324383
H58   H     H_    0.318514 0.430599 0.871461 0.324385
H59   H     H_    0.430601 0.681486 0.871459 0.324385
H60   H     H_    0.681486 0.569400 0.871461 0.324385
H61   H     H_    0.569399 0.318514 0.871460 0.324385
H62   H     H_    0.137773 0.948978 0.561879 0.131707
H63   H     H_    0.948978 0.862227 0.561880 0.131708
H64   H     H_    0.362227 0.448978 0.938120 0.131708
O1    O     O_R   0.564850 0.037600 0.500050 -0.506855
O2    O     O_R   0.462400 0.064850 0.000050 -0.506855
O3    O     O_R   0.935150 0.462400 0.000050 -0.506854
O4    O     O_R   0.537600 0.935150 0.000050 -0.506855
O5    O     O_R   0.064850 0.462400 0.999950 -0.506855
O6    O     O_R   0.462400 0.935150 0.999950 -0.506854
O7    O     O_R   0.935150 0.537600 0.999950 -0.506855
O8    O     O_R   0.537600 0.064850 0.999950 -0.506855
O9    O     O_R   0.499980 0.037590 0.581430 -0.500799
O10   O     O_R   0.962410 0.499980 0.581430 -0.500798
O11   O     O_R   0.500020 0.962410 0.581430 -0.500798
O12   O     O_R   0.962400 0.564850 0.500050 -0.506855
O13   O     O_R   0.037590 0.500020 0.581430 -0.500799
O14   O     O_R   0.499980 0.962410 0.418570 -0.500798
O15   O     O_R   0.962410 0.500020 0.418570 -0.500798
O16   O     O_R   0.500020 0.037590 0.418570 -0.500799
O17   O     O_R   0.037590 0.499980 0.418570 -0.500799
O18   O     O_R   0.999980 0.537590 0.081430 -0.500799
O19   O     O_R   0.462410 0.999980 0.081430 -0.500798
O20   O     O_R   0.000020 0.462410 0.081430 -0.500798
O21   O     O_R   0.537590 0.000020 0.081430 -0.500799
O22   O     O_R   0.999980 0.462410 0.918570 -0.500798
O23   O     O_R   0.435150 0.962400 0.500050 -0.506855
O24   O     O_R   0.462410 0.000020 0.918570 -0.500798
O25   O     O_R   0.000020 0.537590 0.918570 -0.500799
O26   O     O_R   0.537590 0.999980 0.918570 -0.500799
O27   O     O_R   0.999990 0.935150 0.547130 -0.507306
O28   O     O_R   0.064850 0.999990 0.547130 -0.507306
O29   O     O_R   0.000010 0.064850 0.547130 -0.507306
O30   O     O_R   0.935150 0.000010 0.547130 -0.507306
O31   O     O_R   0.999990 0.064850 0.452870 -0.507306
O32   O     O_R   0.064850 0.000010 0.452870 -0.507306
O33   O     O_R   0.000010 0.935150 0.452870 -0.507305
O34   O     O_R   0.037600 0.435150 0.500050 -0.506855
O35   O     O_R   0.935150 0.999990 0.452870 -0.507305
O36   O     O_R   0.499990 0.435150 0.047130 -0.507306
O37   O     O_R   0.564850 0.499990 0.047130 -0.507306
O38   O     O_R   0.500010 0.564850 0.047130 -0.507306
O39   O     O_R   0.435150 0.500010 0.047130 -0.507306
O40   O     O_R   0.499990 0.564850 0.952870 -0.507306
O41   O     O_R   0.564850 0.500010 0.952870 -0.507306
O42   O     O_R   0.500010 0.435150 0.952870 -0.507306
O43   O     O_R   0.435150 0.499990 0.952870 -0.507306
O44   O     O_3   0.792376 0.084803 0.612753 -0.685658
O45   O     O_R   0.564850 0.962400 0.499950 -0.506855
O46   O     O_3   0.915196 0.792376 0.612752 -0.685657
O47   O     O_3   0.207624 0.915195 0.612752 -0.685658
O48   O     O_3   0.084802 0.207624 0.612755 -0.685659
O49   O     O_3   0.792376 0.915196 0.387246 -0.685657
O50   O     O_3   0.915197 0.207624 0.387245 -0.685658
O51   O     O_3   0.207624 0.084805 0.387248 -0.685658
O52   O     O_3   0.084804 0.792376 0.387247 -0.685659
O53   O     O_3   0.292376 0.584804 0.112752 -0.685657
O54   O     O_3   0.415197 0.292376 0.112755 -0.685658
O55   O     O_3   0.707624 0.415196 0.112753 -0.685658
O56   O     O_R   0.962400 0.435150 0.499950 -0.506854
O57   O     O_3   0.584802 0.707624 0.112755 -0.685657
O58   O     O_3   0.292376 0.415195 0.887248 -0.685658
O59   O     O_3   0.415198 0.707624 0.887245 -0.685658
O60   O     O_3   0.707624 0.584804 0.887247 -0.685658
O61   O     O_3   0.584803 0.292376 0.887246 -0.685658
O62   O     O_R   0.435150 0.037600 0.499950 -0.506855
O63   O     O_R   0.037600 0.564850 0.499950 -0.506855
O64   O     O_R   0.064850 0.537600 0.000050 -0.506855

loop_
_geom_bond_atom_site_label_1
_geom_bond_atom_site_label_2
_ccdc_geom_bond_type
C152  O17   A    
H61   O61   S    
C100  C127  A    
C8    C26   A    
C92   C133  S    
C17   C48   A    
C74   C83   A    
C41   C67   A    
C119  H32   S    
C49   C60   A    
H53   O53   S    
C54   C107  A    
C50   C59   A    
C130  H43   S    
C128  C139  A    
C150  O10   A    
C101  C128  A    
C120  C133  A    
C153  O20   A    
C154  O19   A    
C53   C106  A    
C38   C55   A    
C78   C96   A    
C59   C111  A    
Cu1   Cu6   S    
C20   H4    S    
C84   H24   S    
C22   C47   A    
C15   H62   S    
C100  C109  A    
C10   C41   A    
C17   C30   A    
C39   C65   A    
C102  C111  A    
C36   C62   A    
C19   C32   A    
C37   C63   A    
C127  H40   S    
C38   C64   A    
C103  O56   A    
C94   C107  A    
C68   C95   A    
C150  C159  S    
C90   C117  A    
C48   C74   A    
C32   C145  S    
C34   C61   A    
C136  O3    A    
C116  H29   S    
C50   C76   A    
C14   C38   A    
Cu4   O42   S    
Cu9   O2    S    
C13   C63   A    
C40   C55   A    
C91   C118  A    
C1    O45   A    
C21   H5    S    
Cu7   O13   S    
C20   C33   A    
Cu8   O18   S    
C7    C166  S    
C83   C100  A    
C158  H9    S    
C75   O59   S    
C76   O60   S    
Cu11  O26   S    
C45   C59   A    
C58   C110  A    
C79   C97   A    
C2    H10   S    
C1    C131  S    
C24   C90   A    
C96   C109  A    
Cu9   O19   S    
C150  O13   A    
Cu10  O20   S    
C61   C158  A    
C104  C110  A    
Cu11  O8    S    
Cu9   O6    S    
C159  C167  T    
C160  C168  T    
C87   C113  A    
Cu12  O27   S    
C11   H34   S    
C68   H17   S    
C1    O1    A    
C18   C31   A    
C78   H18   S    
C142  O31   A    
Cu6   O23   S    
C8    H1    S    
C25   C31   A    
C147  O6    A    
C91   C105  A    
Cu7   O34   S    
C86   C104  A    
C71   C79   A    
C85   H25   S    
C101  C112  A    
C98   C124  A    
Cu12  O29   S    
H47   O47   S    
C5    C163  T    
Cu5   O15   S    
C42   C53   A    
H57   O57   S    
C75   C84   A    
C5    C168  S    
C66   O50   S    
C149  O9    A    
Cu8   O64   S    
C141  O28   A    
C15   C37   A    
C35   H14   S    
C94   C120  A    
Cu9   Cu11  S    
C87   C105  A    
C143  O30   A    
C49   C75   A    
C118  C131  A    
C152  C161  S    
C16   C27   A    
Cu8   Cu10  S    
C115  H28   S    
H54   O54   S    
C83   H22   S    
Cu2   O31   S    
Cu8   O25   S    
C99   C126  A    
C115  C132  A    
Cu5   Cu7   S    
C126  C139  A    
C119  C134  A    
C144  O42   A    
Cu1   O9    S    
H48   O48   S    
C120  H33   S    
C114  O5    A    
C12   C26   A    
C118  H31   S    
C22   H6    S    
C20   C49   A    
C95   C106  A    
C156  O24   A    
C69   O52   S    
C142  O29   A    
H59   O59   S    
H60   O60   S    
C52   C105  A    
C57   C94   A    
C73   O57   S    
C14   C29   A    
C3    C4    S    
C72   O55   S    
C56   C109  A    
C146  O40   A    
C81   O63   A    
C129  H42   S    
C128  H41   S    
Cu6   O14   S    
Cu10  O22   S    
C149  O11   A    
C123  C137  A    
C140  O27   A    
C55   C108  A    
C64   O48   S    
C88   C115  A    
C147  O4    A    
C90   C108  A    
C97   C123  A    
Cu7   O17   S    
C23   H7    S    
C152  O15   A    
C95   C121  A    
C92   O62   A    
C76   C85   A    
C70   O53   S    
C122  H36   S    
C7    C165  T    
C11   C40   A    
C33   C146  S    
Cu10  O3    S    
C40   C66   A    
C28   C141  S    
C93   C119  A    
C103  O34   A    
Cu3   O36   S    
C26   C143  S    
C23   C45   A    
C148  O39   A    
C82   C99   A    
C154  O21   A    
Cu11  O4    S    
C125  O2    A    
C62   O46   S    
C113  H27   S    
C124  C138  A    
C121  C132  A    
C103  C134  S    
C127  C135  A    
C46   C66   A    
C93   C108  A    
C156  O26   A    
C35   C65   A    
C61   O44   S    
C77   O61   S    
C44   C58   A    
C68   C69   A    
Cu6   O45   S    
C18   C51   A    
Cu1   O16   S    
Cu3   O38   S    
C145  O41   A    
C10   H23   S    
C146  O38   A    
C117  H30   S    
C123  H37   S    
C145  O37   A    
C24   C64   A    
C104  C130  A    
C117  C134  A    
H58   O58   S    
C79   H19   S    
C57   H16   S    
C47   C73   A    
C125  C137  S    
C51   C77   A    
C99   C112  A    
Cu5   O10   S    
C89   C107  A    
C51   C58   A    
Cu2   O35   S    
Cu12  O28   S    
C6    C164  T    
C4    C162  T    
C12   C34   A    
C121  H35   S    
C73   C82   A    
C126  H39   S    
C9    C27   A    
C10   C28   A    
Cu7   O63   S    
C80   C98   A    
C140  O33   A    
C82   H21   S    
C30   C148  S    
C116  C133  A    
C21   C30   A    
C34   C52   A    
C96   C122  A    
C153  C162  S    
C23   C32   A    
Cu4   O41   S    
C19   C50   A    
C15   C28   A    
Cu10  O5    S    
C156  C165  S    
C74   O58   S    
C122  C135  A    
C155  O22   A    
C3    C161  T    
Cu1   O62   S    
C72   C80   A    
C67   O51   S    
Cu1   O1    S    
C130  C137  A    
C149  C157  S    
C16   C36   A    
Cu3   Cu4   S    
C70   C78   A    
C102  C129  A    
Cu2   O32   S    
C86   H26   S    
Cu8   O7    S    
C14   H56   S    
C46   H15   S    
C139  C147  S    
C9    C42   A    
C18   H2    S    
Cu5   O12   S    
C80   H20   S    
Cu5   O56   S    
C44   C71   A    
C31   C144  S    
Cu2   O33   S    
Cu12  O30   S    
C47   C60   A    
C21   C43   A    
C92   O23   A    
C129  C138  A    
C17   H64   S    
C148  O43   A    
C114  C135  S    
C136  O7    A    
C2    C88   A    
C8    C39   A    
C9    H12   S    
C39   C52   A    
C89   C116  A    
C45   C72   A    
C63   O47   S    
C84   C101  A    
C57   C67   A    
Cu3   O39   S    
C25   C44   A    
C155  O25   A    
C151  O16   A    
C124  H38   S    
C154  C163  S    
C136  C138  S    
Cu9   O24   S    
C19   H3    S    
Cu4   O43   S    
C81   C132  S    
C42   C69   A    
Cu2   Cu12  S    
H51   O51   S    
C60   C112  A    
C25   H8    S    
H52   O52   S    
C88   C106  A    
C43   C56   A    
C143  O35   A    
C144  O36   A    
H55   O55   S    
H49   O49   S    
C153  O18   A    
C36   C53   A    
C37   C54   A    
Cu11  O21   S    
H44   O44   S    
C77   C86   A    
C43   C70   A    
C48   C56   A    
C22   C33   A    
C6    C167  S    
C98   C111  A    
C113  C131  A    
C13   C89   A    
C125  O8    A    
C157  C166  T    
C155  C164  S    
C27   C140  S    
C13   H11   S    
C87   C158  A    
C151  C160  S    
C71   O54   S    
H50   O50   S    
C97   C110  A    
C12   H45   S    
C46   C93   A    
C24   H13   S    
C29   C142  S    
H46   O46   S    
C114  O64   A    
C81   O12   A    
C41   C54   A    
C85   C102  A    
Cu4   O40   S    
C16   H63   S    
C65   O49   S    
Cu6   O11   S    
C11   C29   A    
C141  O32   A    
Cu3   O37   S    
C2    C62   A    
C151  O14   A    
C35   C91   A    
