data_mof_unit_43695.cif
_audit_creation_date              2012-12-11T14:15:29-0500
_audit_creation_method            fapswitch 2.2
_symmetry_space_group_name_H-M    P1
_symmetry_Int_Tables_number       1
_space_group_crystal_system       triclinic
_cell_length_a                    11.157112
_cell_length_b                    12.695532
_cell_length_c                    23.480218
_cell_angle_alpha                 90.575383
_cell_angle_beta                  97.008466
_cell_angle_gamma                 68.584552
_cell_volume                      3070.96141498

loop_
_atom_site_label
_atom_site_type_symbol
_atom_type_description
_atom_site_fract_x
_atom_site_fract_y
_atom_site_fract_z
_atom_type_partial_charge
C1    C     C_R   0.149430 0.617215 0.429036 0.542543
C2    C     C_R   0.624058 0.578552 0.313023 -0.005654
C3    C     C_R   0.717408 0.725933 0.319255 -0.143106
C4    C     C_R   0.706391 0.733868 0.259773 0.021300
C5    C     C_R   0.665550 0.656524 0.227715 0.016080
C6    C     C_R   0.660340 0.659123 0.169103 -0.133385
C7    C     C_R   0.716175 0.827583 0.171413 -0.012585
C8    C     C_R   0.738143 0.815460 0.231680 -0.109962
C9    C     C_1   0.236399 0.162574 0.123063 -0.006620
C10   C     C_2   0.182347 0.232483 0.226885 -0.120495
C11   C     C_2   0.154405 0.165362 0.262639 -0.121854
C12   C     C_R   0.746399 0.605613 0.404742 0.543187
C13   C     C_1   0.131681 0.198641 0.320511 -0.049466
C14   C     C_1   0.211387 0.197314 0.169893 -0.050626
C15   C     C_1   0.115565 0.231763 0.368372 -0.004814
C16   C     C_1   0.168439 0.748037 0.123350 -0.015738
C17   C     C_2   0.158873 0.676740 0.228016 -0.103590
C18   C     C_2   0.228876 0.699238 0.274364 -0.001164
C19   C     C_1   0.215066 0.663987 0.330879 -0.047263
C20   C     C_1   0.160836 0.715419 0.170433 -0.052630
C21   C     C_1   0.193950 0.638983 0.377107 -0.022908
C22   C     C_1   0.628540 0.756863 0.865043 -0.004351
C23   C     C_R   0.101031 0.282091 0.423388 0.545340
C24   C     C_2   0.699133 0.714332 0.761042 -0.123313
C25   C     C_2   0.614409 0.699545 0.719055 -0.122446
C26   C     C_1   0.652195 0.668070 0.662873 -0.050290
C27   C     C_1   0.663969 0.738495 0.818178 -0.048545
C28   C     C_1   0.690662 0.639452 0.617235 -0.008097
C29   C     C_R   0.186082 0.196234 0.858218 0.031118
C30   C     C_R   0.107727 0.236514 0.643457 0.018099
C31   C     C_R   0.015337 0.167182 0.715564 -0.132023
C32   C     C_R   0.022054 0.186801 0.657989 -0.142569
C33   C     C_R   0.187003 0.265659 0.686378 -0.118235
C34   C     C_R   0.153266 0.618318 0.589992 0.543630
C35   C     C_R   0.178374 0.249915 0.743580 0.017346
C36   C     C_R   0.091912 0.200325 0.759179 0.061708
C37   C     C_R   0.087261 0.183190 0.817816 -0.017993
C38   C     C_R   0.255902 0.262432 0.842756 -0.010025
C39   C     C_R   0.252424 0.287463 0.785115 -0.119863
C40   C     C_R   0.129925 0.751301 0.849724 0.010670
C41   C     C_R   0.205483 0.644826 0.646963 0.028476
C42   C     C_R   0.315446 0.569917 0.741818 -0.132284
C43   C     C_R   0.308520 0.561893 0.682088 -0.028404
C44   C     C_R   0.128747 0.744810 0.672015 -0.004951
C45   C     C_R   0.749692 0.602380 0.565969 0.543812
C46   C     C_R   0.121797 0.741851 0.730930 0.059969
C47   C     C_R   0.218515 0.655336 0.766228 0.018425
C48   C     C_R   0.222277 0.660687 0.825682 -0.126590
C49   C     C_R   0.022658 0.825804 0.814400 -0.140394
C50   C     C_R   0.020305 0.823235 0.755377 -0.141933
C51   C     C_R   0.265956 0.110108 0.069431 0.539298
C52   C     C_R   0.601399 0.774223 0.081242 0.541720
C53   C     C_R   0.189492 0.787332 0.069607 0.543916
C54   C     C_R   0.238352 0.119149 0.909110 0.545952
C55   C     C_R   0.573941 0.776437 0.918206 0.547603
C56   C     C_R   0.099997 0.279848 0.585677 0.542346
C57   C     C_R   0.163935 0.786702 0.906759 0.544657
C58   C     C_R   0.669695 0.751328 0.140037 0.020970
C59   C     C_R   0.685375 0.642876 0.346206 0.017559
C60   C     C_R   0.621425 0.581844 0.253880 -0.120988
Cr1   Cr    Cr6+3 0.189770 0.415650 0.511620 1.012827
Cr2   Cr    Cr6+3 0.930400 0.667320 0.496770 1.012731
Cr3   Cr    Cr6+3 0.879870 0.417010 0.491650 1.017458
Cr4   Cr    Cr6+3 0.149500 0.973980 0.985330 1.009521
Cr5   Cr    Cr6+3 0.457000 0.976510 0.994660 1.012577
Cr6   Cr    Cr6+3 0.411170 0.724270 0.995270 1.015196
H1    H     H_    0.632028 0.595533 0.146198 0.137932
H2    H     H_    0.098629 0.627698 0.233193 0.122291
H3    H     H_    0.796284 0.705302 0.753080 0.142398
H4    H     H_    0.311343 0.332864 0.772607 0.107898
H5    H     H_    0.959040 0.165245 0.624966 0.114354
H6    H     H_    0.303527 0.600571 0.852903 0.117998
H7    H     H_    0.940287 0.886672 0.729320 0.106432
H8    H     H_    0.772982 0.873187 0.256645 0.109667
H9    H     H_    0.759185 0.779173 0.344330 0.130562
H10   H     H_    0.151195 0.084312 0.249005 0.128652
H11   H     H_    0.186283 0.313230 0.240706 0.133183
O1    O     O_R   0.196340 0.303200 0.448500 -0.506555
O2    O     O_R   0.811960 0.658090 0.547150 -0.493671
O3    O     O_R   0.757930 0.506140 0.547110 -0.511925
O4    O     O_R   0.988670 0.321620 0.556040 -0.496541
O5    O     O_3   0.000020 0.499990 0.500010 -0.239983
O6    O     O_R   0.113660 0.883270 0.047820 -0.509797
O7    O     O_R   0.186930 0.068530 0.043990 -0.496017
O8    O     O_R   0.377770 0.089040 0.054220 -0.520649
O9    O     O_R   0.562800 0.872960 0.056970 -0.500801
O10   O     O_R   0.555390 0.700940 0.062700 -0.526356
O11   O     O_R   0.295020 0.731920 0.049950 -0.496022
O12   O     O_R   0.199310 0.519670 0.454880 -0.495296
O13   O     O_R   0.094290 0.884230 0.921550 -0.523726
O14   O     O_R   0.168980 0.069410 0.926940 -0.506708
O15   O     O_R   0.358400 0.089990 0.927950 -0.511347
O16   O     O_R   0.544850 0.873850 0.939920 -0.491202
O17   O     O_R   0.536020 0.701900 0.936430 -0.511660
O18   O     O_R   0.277070 0.732810 0.932890 -0.502968
O19   O     O_3   0.339220 0.891590 0.991750 -0.237875
O20   O     O_R   0.045660 0.691380 0.441680 -0.512845
O21   O     O_R   0.811930 0.659460 0.430950 -0.507203
O22   O     O_R   0.757900 0.507620 0.421760 -0.516537
O23   O     O_R   0.988630 0.322990 0.439840 -0.495516
O24   O     O_R   0.196380 0.301720 0.573850 -0.527559
O25   O     O_R   0.199350 0.518300 0.571080 -0.504407
O26   O     O_R   0.045700 0.689900 0.567030 -0.517356
H12   H     H_    0.517692 0.707480 0.727183 0.143790
C61   C     C_3   0.977572 0.154125 0.836604 -0.379304
H13   H     H_    0.959370 0.181658 0.880757 0.148961
H14   H     H_    0.884709 0.201187 0.809414 0.107351
H15   H     H_    0.999710 0.061920 0.833752 0.154108
C62   C     C_3   0.336539 0.305741 0.886102 -0.380900
H16   H     H_    0.314094 0.397023 0.876753 0.111747
H17   H     H_    0.315078 0.298316 0.930492 0.146207
H18   H     H_    0.441276 0.258375 0.883678 0.142168
H19   H     H_    0.950551 0.125820 0.725277 0.104503
H20   H     H_    0.250893 0.307152 0.675454 0.124595
C63   C     C_3   0.741151 0.921373 0.142353 -0.377630
H21   H     H_    0.796492 0.959954 0.172660 0.119167
H22   H     H_    0.799203 0.887455 0.106554 0.140425
H23   H     H_    0.647852 0.989188 0.125694 0.167857
H24   H     H_    0.947061 0.893328 0.832238 0.126858
H25   H     H_    0.393332 0.506989 0.769300 0.103674
C64   C     C_3   0.413640 0.467692 0.657290 -0.384834
H26   H     H_    0.499678 0.428355 0.689867 0.115985
H27   H     H_    0.378206 0.400236 0.641936 0.157158
H28   H     H_    0.446302 0.501705 0.621232 0.141932
C65   C     C_3   0.059936 0.855122 0.637190 -0.382614
H29   H     H_    0.954469 0.871919 0.627797 0.144552
H30   H     H_    0.073858 0.926253 0.661420 0.119161
H31   H     H_    0.101426 0.853997 0.596434 0.147600
H32   H     H_    0.582011 0.527814 0.228071 0.109595
C66   C     C_3   0.564775 0.503666 0.338828 -0.370617
H33   H     H_    0.523026 0.540525 0.378327 0.145061
H34   H     H_    0.484176 0.495888 0.308436 0.124436
H35   H     H_    0.639083 0.417581 0.348733 0.158433
C67   C     C_3   0.306367 0.773665 0.269945 -0.367145
H36   H     H_    0.369897 0.769868 0.310774 0.137949
H37   H     H_    0.368576 0.746127 0.235049 0.148783
H38   H     H_    0.239348 0.862679 0.260623 0.129258

loop_
_geom_bond_atom_site_label_1
_geom_bond_atom_site_label_2
_ccdc_geom_bond_type
Cr5   O15   S    
C1    C21   S    
C6    C58   A    
C66   H34   S    
C35   C36   A    
C9    C51   S    
C24   C27   S    
Cr4   O13   S    
C4    C8    A    
C51   O8    A    
C67   H38   S    
C7    C8    A    
C37   C61   S    
C61   H14   S    
C33   H20   S    
C34   O25   A    
Cr3   O4    S    
C36   C37   A    
C19   C21   T    
C56   O24   A    
Cr1   O5    S    
C62   H17   S    
Cr6   O11   S    
C5    C6    A    
C2    C60   A    
C29   C54   S    
C40   C49   A    
C17   C20   S    
C18   C19   S    
C7    C63   S    
C16   C53   S    
Cr4   O7    S    
C12   O22   A    
Cr3   O22   S    
C33   C35   A    
Cr2   O21   S    
C12   C59   S    
Cr5   O19   S    
C47   C48   A    
C44   C46   A    
C63   H22   S    
C29   C38   A    
C65   H31   S    
C18   C67   S    
C53   O11   A    
C3    H9    S    
C43   C64   S    
C7    C58   A    
C12   O21   A    
C5    C60   A    
C55   O16   A    
Cr6   O17   S    
C15   C23   S    
C23   O23   A    
Cr2   O5    S    
C41   C43   A    
C34   C41   S    
C48   H6    S    
C55   O17   A    
C10   H11   S    
Cr1   O12   S    
C24   H3    S    
C32   H5    S    
Cr3   O3    S    
C38   C39   A    
C28   C45   S    
C61   H15   S    
C44   C65   S    
C57   O13   A    
Cr3   O5    S    
Cr2   O2    S    
Cr5   O9    S    
C24   C25   D    
Cr4   O19   S    
C10   C14   S    
C50   H7    S    
C1    O20   A    
Cr6   O10   S    
C2    C59   A    
C67   H37   S    
C25   C26   S    
C30   C56   S    
Cr1   O24   S    
C9    C14   T    
Cr4   O6    S    
C54   O15   A    
Cr3   O23   S    
Cr2   O20   S    
C31   C32   A    
Cr1   O1    S    
C16   C20   T    
C63   H23   S    
C8    H8    S    
C17   C18   D    
C45   O2    A    
C38   C62   S    
C65   H30   S    
C64   H26   S    
C67   H36   S    
C52   C58   S    
C6    H1    S    
C11   H10   S    
C22   C27   T    
C13   C15   T    
C65   H29   S    
C41   C44   A    
C62   H18   S    
C66   H35   S    
C42   C43   A    
C3    C4    A    
Cr6   O19   S    
Cr2   O26   S    
C40   C48   A    
C46   C47   A    
C17   H2    S    
C1    O12   A    
C40   C57   S    
C30   C33   A    
C52   O10   A    
C4    C5    A    
C60   H32   S    
C25   H12   S    
Cr5   O8    S    
C22   C55   S    
C61   H13   S    
C46   C50   A    
C26   C28   T    
C34   O26   A    
C53   O6    A    
C52   O9    A    
Cr1   O25   S    
C54   O14   A    
C62   H16   S    
C30   C32   A    
C11   C13   S    
C42   H25   S    
C49   H24   S    
C35   C39   A    
Cr5   O16   S    
C2    C66   S    
C39   H4    S    
C56   O4    A    
C66   H33   S    
C45   O3    A    
C42   C47   A    
C23   O1    A    
C64   H27   S    
C10   C11   D    
C49   C50   A    
C57   O18   A    
C29   C37   A    
C64   H28   S    
C31   C36   A    
Cr4   O14   S    
C51   O7    A    
C31   H19   S    
C63   H21   S    
Cr6   O18   S    
C3    C59   A    
