data_mof_unit_53250.cif
_audit_creation_date              2012-12-11T15:49:05-0500
_audit_creation_method            fapswitch 2.2
_symmetry_space_group_name_H-M    P1
_symmetry_Int_Tables_number       1
_space_group_crystal_system       triclinic
_cell_length_a                    21.607988
_cell_length_b                    7.180682
_cell_length_c                    14.963198
_cell_angle_alpha                 90.008043
_cell_angle_beta                  107.83681
_cell_angle_gamma                 89.991967
_cell_volume                      2210.09393057

loop_
_atom_site_label
_atom_site_type_symbol
_atom_type_description
_atom_site_fract_x
_atom_site_fract_y
_atom_site_fract_z
_atom_type_partial_charge
O1    O     O_R   0.335860 0.638190 0.002110 -0.533268
O2    O     O_R   0.664140 0.361810 0.997890 -0.526475
O3    O     O_R   0.164140 0.138190 0.997890 -0.531709
O4    O     O_R   0.835860 0.861810 0.002110 -0.526609
O5    O     O_R   0.217530 0.305920 0.861960 -0.542061
O6    O     O_R   0.782470 0.694080 0.138040 -0.536467
O7    O     O_R   0.282470 0.805920 0.138040 -0.544794
O8    O     O_R   0.717530 0.194080 0.861960 -0.538373
C1    C     C_R   0.206041 0.476307 0.825195 0.742900
C2    C     C_R   0.794859 0.523200 0.174576 0.752903
C3    C     C_R   0.294080 0.976287 0.174797 0.734629
C4    C     C_R   0.705200 0.023215 0.825442 0.757786
O9    O     O_R   0.338690 0.308320 0.993240 -0.522863
O10   O     O_R   0.661310 0.691680 0.006760 -0.530025
O11   O     O_R   0.161310 0.808320 0.006760 -0.523764
O12   O     O_R   0.838690 0.191680 0.993240 -0.529091
O13   O     O_R   0.286170 0.140430 0.130100 -0.527266
O14   O     O_R   0.713830 0.859570 0.869900 -0.543373
O15   O     O_R   0.213830 0.640430 0.869900 -0.526645
O16   O     O_R   0.786170 0.359570 0.130100 -0.545356
C5    C     C_R   0.364620 0.477311 0.996976 0.675696
C6    C     C_R   0.635252 0.522917 0.002249 0.678714
C7    C     C_R   0.135358 0.977296 0.002881 0.679970
C8    C     C_R   0.864727 0.022865 0.997563 0.678667
O17   O     O_3   0.232630 0.472410 0.044750 -0.372094
O18   O     O_3   0.767370 0.527590 0.955250 -0.371159
O19   O     O_3   0.267370 0.972410 0.955250 -0.369702
O20   O     O_3   0.732630 0.027590 0.044750 -0.372462
V1    V     V_3+5 0.253220 0.196620 0.991700 1.557871
V2    V     V_3+5 0.746780 0.803380 0.008300 1.552039
V3    V     V_3+5 0.246780 0.696620 0.008300 1.551362
V4    V     V_3+5 0.753220 0.303380 0.991700 1.549932
C9    C     C_R   0.018514 0.869720 0.943011 0.374976
C10   C     C_R   0.981456 0.132498 0.056927 0.394088
C11   C     C_R   0.481827 0.373430 0.058596 0.371729
C12   C     C_R   0.518136 0.628410 0.940444 0.393816
C13   C     C_R   0.953315 0.880952 0.941147 0.384911
C14   C     C_R   0.046849 0.119397 0.059651 0.387339
C15   C     C_R   0.547054 0.385046 0.060600 0.382633
C16   C     C_R   0.452773 0.615810 0.938076 0.386870
C17   C     C_R   0.933757 0.012774 0.998080 -0.395486
C18   C     C_R   0.066331 0.987863 0.002543 -0.397709
C19   C     C_R   0.566208 0.512882 0.001544 -0.393454
C20   C     C_R   0.433647 0.487913 0.997195 -0.397366
C21   C     C_R   0.679061 0.013363 0.722261 -0.207281
C22   C     C_R   0.319427 0.975891 0.278362 -0.207160
C23   C     C_R   0.822134 0.513192 0.277663 -0.209308
C24   C     C_R   0.181921 0.476163 0.721507 -0.207950
C25   C     C_R   0.693815 0.992460 0.566910 0.399673
C26   C     C_R   0.313092 0.854271 0.427738 0.394728
C27   C     C_R   0.810314 0.504482 0.434826 0.399695
C28   C     C_R   0.190463 0.351625 0.573419 0.404294
C29   C     C_R   0.720708 0.009346 0.665543 0.216904
C30   C     C_R   0.282355 0.898925 0.332427 0.225673
C31   C     C_R   0.781937 0.520082 0.336443 0.217787
C32   C     C_R   0.219633 0.394985 0.669391 0.234836
C33   C     C_R   0.611546 0.001836 0.681277 0.293000
C34   C     C_R   0.384972 0.018668 0.321375 0.302311
C35   C     C_R   0.889763 0.500037 0.316941 0.293516
C36   C     C_R   0.116520 0.518789 0.677132 0.305102
C37   C     C_R   0.584700 0.961670 0.583756 -0.122855
C38   C     C_R   0.418971 0.936754 0.409516 -0.124920
C39   C     C_R   0.917668 0.454013 0.413720 -0.120430
C40   C     C_R   0.084076 0.442802 0.587022 -0.125975
C41   C     C_R   0.625285 0.978759 0.525255 -0.184213
C42   C     C_R   0.382012 0.858611 0.464240 -0.192524
C43   C     C_R   0.877565 0.462049 0.473335 -0.191599
C44   C     C_R   0.122330 0.375973 0.531493 -0.179078
C45   C     C_R   0.518294 0.907780 0.542738 -0.140133
C46   C     C_R   0.488490 0.932294 0.445285 -0.150443
C47   C     C_R   0.984927 0.407101 0.453595 -0.144797
C48   C     C_R   0.014691 0.429891 0.551148 -0.143075
C49   C     C_R   0.529644 0.938867 0.387172 0.373421
C50   C     C_R   0.482279 0.811250 0.593418 0.381342
C51   C     C_R   0.973875 0.416775 0.609679 0.378998
C52   C     C_R   0.022818 0.327247 0.400931 0.376779
C53   C     C_R   0.596301 0.971069 0.426251 0.414229
C54   C     C_R   0.415315 0.784794 0.554143 0.428151
C55   C     C_R   0.906281 0.428373 0.570901 0.426375
C56   C     C_R   0.090529 0.322890 0.437076 0.414112
O21   O     O_3   0.032716 0.745497 0.881638 -0.559684
H1    H     H_    0.070024 0.793691 0.863616 0.322716
O22   O     O_3   0.966960 0.261398 0.116111 -0.550871
H2    H     H_    0.928935 0.218078 0.133918 0.318697
O23   O     O_3   0.467957 0.252665 0.121638 -0.560313
H3    H     H_    0.429750 0.299919 0.137633 0.322386
O24   O     O_3   0.532195 0.752444 0.878730 -0.550112
H4    H     H_    0.571310 0.710204 0.863446 0.320636
O25   O     O_3   0.909938 0.764147 0.879001 -0.563689
H5    H     H_    0.865954 0.819217 0.861090 0.304844
O26   O     O_3   0.090469 0.234732 0.122338 -0.568671
H6    H     H_    0.134197 0.177694 0.140698 0.290300
O27   O     O_3   0.590839 0.272656 0.124855 -0.568368
H7    H     H_    0.634781 0.327761 0.141135 0.296852
O28   O     O_3   0.408904 0.727969 0.873819 -0.563651
H8    H     H_    0.364902 0.673369 0.858126 0.293381
O29   O     O_3   0.631543 0.996022 0.364527 -0.558145
H9    H     H_    0.654637 0.116547 0.381112 0.338387
O30   O     O_3   0.384811 0.676472 0.604132 -0.562646
H10   H     H_    0.357512 0.584726 0.559741 0.322172
O31   O     O_3   0.869811 0.397581 0.630631 -0.559554
H11   H     H_    0.834887 0.308729 0.598881 0.335445
O32   O     O_3   0.124001 0.262249 0.377732 -0.563365
H12   H     H_    0.154473 0.363801 0.374973 0.337480
O33   O     O_3   0.413761 0.142756 0.276141 -0.619586
H13   H     H_    0.448399 0.210057 0.324278 0.311798
O34   O     O_3   0.573167 0.039958 0.737923 -0.606246
H14   H     H_    0.531677 0.094597 0.698497 0.327691
O35   O     O_3   0.085722 0.633885 0.723895 -0.617228
H15   H     H_    0.049976 0.699409 0.676714 0.316758
O36   O     O_3   0.927073 0.544749 0.259706 -0.607822
H16   H     H_    0.967486 0.605424 0.298811 0.322658
O37   O     O_3   0.216382 0.864945 0.294840 -0.623622
H17   H     H_    0.199432 0.925155 0.232660 0.282613
O38   O     O_3   0.787605 0.023371 0.703327 -0.633299
H18   H     H_    0.799625 0.063249 0.769654 0.282963
O39   O     O_3   0.284741 0.352648 0.710197 -0.619606
H19   H     H_    0.301639 0.415982 0.771559 0.283367
O40   O     O_3   0.715271 0.544919 0.301219 -0.627096
H20   H     H_    0.702213 0.573086 0.233357 0.284886
O41   O     O_3   0.733706 0.979705 0.510191 -0.621965
H21   H     H_    0.780085 0.984245 0.547964 0.345968
O42   O     O_3   0.276918 0.806082 0.486301 -0.613738
H22   H     H_    0.229985 0.824629 0.453988 0.356781
O43   O     O_3   0.773782 0.536006 0.494990 -0.615257
H23   H     H_    0.729105 0.575327 0.459632 0.360581
O44   O     O_3   0.226671 0.270857 0.521688 -0.618753
H24   H     H_    0.273626 0.274959 0.556634 0.348531
O45   O     O_3   0.507692 0.899703 0.292280 -0.565071
H25   H     H_    0.470622 0.812122 0.280655 0.304638
O46   O     O_3   0.511910 0.718284 0.676246 -0.580956
H26   H     H_    0.556195 0.681118 0.676831 0.295099
O47   O     O_3   0.997259 0.367462 0.703272 -0.569844
H27   H     H_    0.035994 0.287251 0.712093 0.301597
O48   O     O_3   0.995320 0.237230 0.316622 -0.577103
H28   H     H_    0.952047 0.189579 0.315525 0.296589

loop_
_geom_bond_atom_site_label_1
_geom_bond_atom_site_label_2
_ccdc_geom_bond_type
C34   C38   A    
O24   H4    S    
O17   V3    S    
O27   H7    S    
O19   V1    S    
O28   H8    S    
O13   V1    S    
C32   O39   S    
O3    C7    A    
O36   H16   S    
O15   V3    S    
O29   H9    S    
O42   H22   S    
C31   O40   S    
O23   H3    S    
O1    C5    A    
C21   C33   A    
O31   H11   S    
C7    C18   S    
C25   C41   A    
C9    C18   A    
C40   C44   A    
O9    V1    S    
C14   C18   A    
C47   C52   A    
O4    C8    A    
O38   H18   S    
C30   O37   S    
O1    V3    S    
C38   C46   A    
O2    V4    S    
O3    V1    S    
C15   O27   S    
C36   O35   S    
O32   H12   S    
C1    O15   A    
O30   H10   S    
C2    O16   A    
O2    C6    A    
C35   O36   S    
O34   H14   S    
C53   O29   S    
O14   V2    S    
O48   H28   S    
C28   C44   A    
O11   C7    A    
C21   C29   A    
O12   C8    A    
C50   O46   S    
C22   C34   A    
C8    C17   S    
C10   C17   A    
O10   V2    S    
C48   C51   A    
C28   O44   S    
C24   C36   A    
O5    V1    S    
C12   O24   S    
C42   C54   A    
C39   C43   A    
C41   C53   A    
C38   C42   A    
C56   O32   S    
O8    V4    S    
C12   C16   A    
O7    V3    S    
O26   H6    S    
O18   V4    S    
C15   C19   A    
C14   O26   S    
O21   H1    S    
C27   O43   S    
C11   C15   A    
O5    C1    A    
C37   C41   A    
C5    C20   S    
O7    C3    A    
O22   H2    S    
O8    C4    A    
C25   O41   S    
C22   C30   A    
C46   C49   A    
O9    C5    A    
C45   C50   A    
C27   C43   A    
C33   C37   A    
C11   C20   A    
C26   C42   A    
O41   H21   S    
C33   O34   S    
C39   C47   A    
O43   H23   S    
C10   O22   S    
C16   O28   S    
O46   H26   S    
C2    C23   S    
C23   C31   A    
O37   H17   S    
O16   V4    S    
C37   C45   A    
C24   C32   A    
C3    O13   A    
O6    V2    S    
C10   C14   A    
C26   O42   S    
C52   C56   A    
C4    C21   S    
C12   C19   A    
C6    C19   S    
O6    C2    A    
C29   O38   S    
O40   H20   S    
C51   O47   S    
O11   V3    S    
O12   V4    S    
O33   H13   S    
C35   C39   A    
C13   O25   S    
C36   C40   A    
C34   O33   S    
O10   C6    A    
O20   V2    S    
O45   H25   S    
C47   C48   A    
C26   C30   A    
O35   H15   S    
C44   C56   A    
C11   O23   S    
O47   H27   S    
C51   C55   A    
C49   O45   S    
C25   C29   A    
C27   C31   A    
C40   C48   A    
C13   C17   A    
C45   C46   A    
C9    C13   A    
C23   C35   A    
C28   C32   A    
C16   C20   A    
C52   O48   S    
C1    C24   S    
C50   C54   A    
C4    O14   A    
C54   O30   S    
C49   C53   A    
C55   O31   S    
C3    C22   S    
O25   H5    S    
O39   H19   S    
C9    O21   S    
C43   C55   A    
O4    V2    S    
O44   H24   S    
