data_mof_unit_25069.cif
_audit_creation_date              2012-12-10T18:11:05-0500
_audit_creation_method            fapswitch 2.2
_symmetry_space_group_name_H-M    P1
_symmetry_Int_Tables_number       1
_space_group_crystal_system       triclinic
_cell_length_a                    10.726031
_cell_length_b                    9.418217
_cell_length_c                    10.646702
_cell_angle_alpha                 89.510833
_cell_angle_beta                  90.094554
_cell_angle_gamma                 90.02364
_cell_volume                      1075.49002021

loop_
_atom_site_label
_atom_site_type_symbol
_atom_type_description
_atom_site_fract_x
_atom_site_fract_y
_atom_site_fract_z
_atom_type_partial_charge
C1    C     C_R   0.259676 0.499769 0.499955 0.757448
C2    C     C_3   0.499513 0.502134 0.123267 -0.009231
C3    C     C_3   0.072066 0.575095 0.618261 -0.384139
C4    C     C_3   0.071194 0.344289 0.500230 -0.376731
C5    C     C_3   0.928183 0.574678 0.618357 -0.358319
C6    C     C_3   0.928486 0.344294 0.499843 -0.378382
C7    C     C_3   0.071712 0.576724 0.381116 -0.379773
C8    C     C_3   0.121732 0.498994 0.499881 0.166183
C9    C     C_3   0.878065 0.499002 0.499802 0.151745
C10   C     C_3   0.927781 0.577009 0.381215 -0.378610
C11   C     C_3   0.615109 0.083243 0.561075 -0.186612
C12   C     C_3   0.614892 0.915742 0.561618 -0.177899
C13   C     C_3   0.392796 0.083061 0.573696 -0.186872
C14   C     C_3   0.392938 0.915521 0.574001 -0.186070
C15   C     C_3   0.492792 0.084668 0.373672 -0.178852
C16   C     C_3   0.492864 0.917508 0.373701 -0.188449
C17   C     C_R   0.499357 0.500696 0.259552 0.805632
C18   C     C_R   0.740096 0.499798 0.499901 0.763740
C19   C     C_R   0.500426 0.499252 0.740730 0.796187
C20   C     C_3   0.491054 0.635720 0.039566 -0.151042
C21   C     C_3   0.401698 0.424744 0.043731 -0.197171
C22   C     C_3   0.393694 0.557867 0.957105 -0.199561
C23   C     C_3   0.500761 0.497578 0.877604 -0.067100
C24   C     C_3   0.596766 0.573962 0.959185 0.024581
C25   C     C_3   0.509011 0.366449 0.963465 0.050876
C26   C     C_3   0.607114 0.441860 0.045131 -0.255885
Cu1   Cu    Cu3+1 0.499860 0.642410 0.500060 0.898359
Cu2   Cu    Cu3+1 0.499860 0.357590 0.500060 0.895666
H1    H     H_    0.306581 0.604947 0.918707 0.131706
H2    H     H_    0.893638 0.688603 0.378825 0.162594
H3    H     H_    0.892592 0.524069 0.295037 0.149297
H4    H     H_    0.625538 0.122873 0.658514 0.168287
H5    H     H_    0.624125 0.875399 0.659700 0.170284
H6    H     H_    0.698689 0.120261 0.508683 0.133900
H7    H     H_    0.698854 0.878893 0.510324 0.136492
H8    H     H_    0.393878 0.122162 0.671833 0.165013
H9    H     H_    0.394826 0.875378 0.672529 0.156159
H10   H     H_    0.406852 0.123946 0.326111 0.140513
H11   H     H_    0.407003 0.878807 0.326177 0.139291
H12   H     H_    0.573038 0.123491 0.316850 0.146718
H13   H     H_    0.573144 0.879638 0.317050 0.143977
H14   H     H_    0.303734 0.120444 0.531542 0.133479
H15   H     H_    0.303706 0.878302 0.532560 0.135740
H16   H     H_    0.484376 0.746680 0.073374 0.137366
H17   H     H_    0.321665 0.362996 0.081457 0.121144
H18   H     H_    0.694357 0.394914 0.083452 0.125229
H19   H     H_    0.106200 0.686690 0.620376 0.161963
H20   H     H_    0.105402 0.286674 0.416124 0.158758
H21   H     H_    0.107253 0.520842 0.704595 0.148119
H22   H     H_    0.105182 0.285868 0.584980 0.159182
H23   H     H_    0.893743 0.519422 0.704375 0.164230
H24   H     H_    0.894298 0.285397 0.584164 0.160928
H25   H     H_    0.893650 0.686049 0.621051 0.177136
H26   H     H_    0.894393 0.287158 0.415305 0.159862
H27   H     H_    0.106246 0.688181 0.378274 0.161745
H28   H     H_    0.106284 0.523262 0.295075 0.147311
N1    N     N_3   0.500250 0.143650 0.502780 -0.120107
N2    N     N_3   0.500250 0.856350 0.502780 -0.120476
O1    O     O_R   0.317570 0.620260 0.500070 -0.598296
O2    O     O_R   0.317570 0.379740 0.500070 -0.599294
O3    O     O_R   0.499850 0.620240 0.316900 -0.597530
O4    O     O_R   0.499850 0.379760 0.316900 -0.594439
O5    O     O_R   0.682190 0.620260 0.500030 -0.595034
O6    O     O_R   0.682190 0.379740 0.500030 -0.599251
O7    O     O_R   0.499910 0.620280 0.683200 -0.582118
O8    O     O_R   0.499910 0.379720 0.683200 -0.586911
C27   C     C_1   0.702904 0.657154 0.912474 0.199073
N3    N     N_1   0.786429 0.723236 0.875870 -0.332639
C28   C     C_1   0.518749 0.217215 0.926219 0.204702
N4    N     N_1   0.526459 0.099213 0.897890 -0.343822

loop_
_geom_bond_atom_site_label_1
_geom_bond_atom_site_label_2
_ccdc_geom_bond_type
C7    C10   S    
Cu2   O8    S    
C23   C24   S    
C15   H10   S    
C5    C9    S    
Cu1   O7    S    
C22   H1    S    
C17   O4    A    
C1    C8    S    
C9    C10   S    
C10   H2    S    
C19   C23   S    
C11   H6    S    
C7    H27   S    
C4    C8    S    
C12   N2    S    
C19   O8    A    
C3    C5    S    
C2    C21   S    
Cu2   O2    S    
C3    H21   S    
C7    C8    S    
C2    C26   S    
Cu1   O1    S    
C13   C14   S    
C2    C17   S    
C15   N1    S    
C18   O6    A    
Cu1   O5    S    
C7    H28   S    
C6    C9    S    
Cu2   O6    S    
C21   C22   S    
C13   H14   S    
C20   H16   S    
C24   C26   S    
C11   H4    S    
C19   O7    A    
C16   N2    S    
C21   H17   S    
C1    O1    A    
C12   H5    S    
C20   C22   S    
C28   N4    T    
C14   N2    S    
C12   H7    S    
C15   H12   S    
C3    C8    S    
C13   N1    S    
C17   O3    A    
C26   H18   S    
C16   H11   S    
C2    C20   S    
C15   C16   S    
C20   C24   S    
C9    C18   S    
C23   C25   S    
C25   C28   S    
Cu2   N1    S    
C13   H8    S    
C4    C6    S    
C18   O5    A    
C4    H20   S    
C1    O2    A    
C3    H19   S    
Cu1   Cu2   S    
C16   H13   S    
C21   C25   S    
C22   C23   S    
C5    H23   S    
C5    H25   S    
Cu1   O3    S    
C24   C27   S    
C6    H24   S    
C25   C26   S    
C11   N1    S    
C10   H3    S    
C6    H26   S    
C27   N3    T    
C11   C12   S    
C4    H22   S    
C14   H15   S    
C14   H9    S    
Cu1   N2    S    
Cu2   O4    S    
