data_mof_unit_68491.cif
_audit_creation_date              2012-10-26T21:06:57-0400
_audit_creation_method            fapswitch 2.2
_symmetry_space_group_name_H-M    P1
_symmetry_Int_Tables_number       1
_space_group_crystal_system       triclinic
_cell_length_a                    10.787541
_cell_length_b                    8.823315
_cell_length_c                    7.460104
_cell_angle_alpha                 102.339012
_cell_angle_beta                  94.192621
_cell_angle_gamma                 95.08787
_cell_volume                      687.831930716

loop_
_atom_site_label
_atom_site_type_symbol
_atom_type_description
_atom_site_fract_x
_atom_site_fract_y
_atom_site_fract_z
_atom_type_partial_charge
C1    C     C_R   0.496407 0.200528 0.454840 0.560189
C2    C     C_3   0.070569 0.420616 0.656228 -0.087395
C3    C     C_3   0.930407 0.438012 0.662679 -0.281285
C4    C     C_3   0.091517 0.669412 0.531905 0.393983
C5    C     C_3   0.053087 0.398141 0.306189 0.421558
C6    C     C_3   0.121627 0.493767 0.498425 0.123744
C7    C     C_3   0.878356 0.503375 0.497214 -0.070263
C8    C     C_3   0.944149 0.673434 0.514337 0.154667
C9    C     C_3   0.909227 0.391876 0.318030 -0.221459
C10   C     C_2   0.512541 0.038122 0.432746 0.053834
C11   C     C_2   0.487783 0.961458 0.566628 0.079013
C12   C     C_R   0.259688 0.491789 0.500070 0.661236
C13   C     C_R   0.503851 0.799351 0.545004 0.588357
C14   C     C_R   0.740098 0.501587 0.498466 0.563567
Cu1   Cu    Cu3+1 0.514070 0.517380 0.684380 1.137106
Cu2   Cu    Cu3+1 0.485930 0.482620 0.315620 1.123355
H1    H     H_    0.120417 0.480083 0.791704 0.188641
H2    H     H_    0.031721 0.536966 0.129479 0.343023
H3    H     H_    0.048379 0.191561 0.145013 0.375497
H4    H     H_    0.861349 0.417573 0.192618 0.139847
H5    H     H_    0.615373 0.596229 0.042033 0.226013
H6    H     H_    0.877159 0.323765 0.661217 0.186417
H7    H     H_    0.916393 0.516648 0.795818 0.154370
H8    H     H_    0.870141 0.270851 0.319076 0.172692
H9    H     H_    0.149228 0.852981 0.440401 0.397394
H10   H     H_    0.306774 0.349538 0.025250 0.383916
H11   H     H_    0.104654 0.720991 0.805585 0.335506
I1    I     I_    0.881447 0.767702 0.281552 -0.295886
I2    I     I_    0.599197 0.948350 0.189528 -0.210133
I3    I     I_    0.399777 0.048782 0.808318 -0.100602
I4    I     I_    0.102581 0.182708 0.650628 -0.207568
I5    I     I_    0.879289 0.839618 0.740209 -0.246106
N1    N     N_2   0.464720 0.456420 0.038520 0.016990
N2    N     N_2   0.535280 0.543580 0.961480 -0.153322
O1    O     O_R   0.509140 0.286130 0.619770 -0.481964
O2    O     O_3   0.354579 0.401025 0.942666 -0.513881
O3    O     O_3   0.148412 0.753691 0.706056 -0.640000
O4    O     O_3   0.090690 0.464714 0.159255 -0.641188
O5    O     O_3   0.086873 0.244952 0.270243 -0.631535
O6    O     O_R   0.485380 0.256770 0.308360 -0.490226
O7    O     O_R   0.329570 0.514650 0.655700 -0.446617
O8    O     O_R   0.305810 0.485300 0.344290 -0.441725
O9    O     O_R   0.514620 0.743230 0.691640 -0.463249
O10   O     O_R   0.490860 0.713870 0.380230 -0.496259
O11   O     O_R   0.694190 0.514700 0.655710 -0.512938
O12   O     O_R   0.670430 0.485350 0.344300 -0.529490
O13   O     O_3   0.145971 0.738042 0.398237 -0.617826

loop_
_geom_bond_atom_site_label_1
_geom_bond_atom_site_label_2
_ccdc_geom_bond_type
C9    H8    S    
C5    C9    S    
C12   O7    A    
Cu2   N1    S    
C7    C14   S    
H9    O13   S    
C9    H4    S    
C3    H7    S    
C4    C8    S    
C2    C3    S    
H2    O4    S    
Cu1   O9    S    
C7    C8    S    
C14   O12   A    
C5    O4    S    
C2    H1    S    
C11   C13   S    
C10   I2    S    
Cu1   O7    S    
C2    C6    S    
H3    O5    S    
Cu2   O6    S    
H10   O2    S    
H11   O3    S    
N1    N2    D    
C14   O11   A    
C3    C7    S    
C5    O5    S    
C6    C12   S    
C5    C6    S    
C8    I1    S    
Cu1   O1    S    
C10   C11   D    
Cu1   O11   S    
Cu1   Cu2   S    
C8    I5    S    
Cu2   O8    S    
C13   O9    A    
N1    O2    S    
C4    O3    S    
C1    O1    A    
C4    C6    S    
Cu2   O12   S    
C7    C9    S    
Cu2   O10   S    
C3    H6    S    
C12   O8    A    
H5    N2    S    
Cu1   N2    S    
C1    O6    A    
C13   O10   A    
C1    C10   S    
C11   I3    S    
C2    I4    S    
C4    O13   S    
