data_mof_unit_12992.cif
_audit_creation_date              2012-10-26T19:36:58-0400
_audit_creation_method            fapswitch 2.2
_symmetry_space_group_name_H-M    P1
_symmetry_Int_Tables_number       1
_space_group_crystal_system       triclinic
_cell_length_a                    10.814074
_cell_length_b                    17.740467
_cell_length_c                    16.527551
_cell_angle_alpha                 91.640281
_cell_angle_beta                  90.871606
_cell_angle_gamma                 90.889145
_cell_volume                      3168.6867866

loop_
_atom_site_label
_atom_site_type_symbol
_atom_type_description
_atom_site_fract_x
_atom_site_fract_y
_atom_site_fract_z
_atom_type_partial_charge
C1    C     C_R   0.502366 0.355395 0.498841 0.616473
C2    C     C_R   0.550605 0.231529 0.428963 0.087859
C3    C     C_R   0.496526 0.727428 0.504241 -0.037542
C4    C     C_R   0.502691 0.272347 0.495898 0.020752
C5    C     C_R   0.555836 0.765813 0.442697 -0.129564
C6    C     C_R   0.453286 0.233976 0.560988 -0.110269
C7    C     C_R   0.557192 0.844446 0.441806 0.089565
C8    C     C_R   0.448532 0.155399 0.560562 0.078808
C9    C     C_R   0.497918 0.885426 0.503578 -0.016326
C10   C     C_R   0.495391 0.114344 0.494211 0.000796
C11   C     C_1   0.497139 0.966162 0.500197 -0.017026
C12   C     C_R   0.497749 0.644535 0.501214 0.518466
C13   C     C_1   0.496004 0.033568 0.497387 -0.008633
C14   C     C_R   0.575229 0.549575 0.832516 -0.051330
C15   C     C_R   0.428939 0.447971 0.167726 -0.039254
C16   C     C_R   0.262293 0.501226 0.499306 0.603192
C17   C     C_R   0.737625 0.499443 0.500627 0.547392
C18   C     C_R   0.578128 0.547355 0.746187 0.139520
C19   C     C_R   0.424223 0.451349 0.253796 0.108878
C20   C     C_R   0.419193 0.453918 0.739602 0.001701
C21   C     C_R   0.578276 0.547625 0.260361 0.013519
C22   C     C_R   0.411617 0.454081 0.825055 -0.013848
C23   C     C_R   0.871483 0.501154 0.502068 -0.004554
C24   C     C_R   0.584933 0.548106 0.174858 -0.030489
C25   C     C_R   0.492412 0.501682 0.873046 -0.007905
C26   C     C_R   0.507548 0.498315 0.126864 0.038249
C27   C     C_1   0.496302 0.500265 0.962860 0.096005
C28   C     C_1   0.502639 0.500122 0.037117 0.137587
C29   C     C_R   0.188224 0.755551 0.422568 -0.000515
C30   C     C_R   0.803451 0.248003 0.580229 -0.017637
C31   C     C_R   0.133517 0.692881 0.459435 -0.065633
C32   C     C_R   0.857895 0.309748 0.541503 -0.074489
C33   C     C_R   0.132617 0.621257 0.421534 0.028175
C34   C     C_R   0.128305 0.499545 0.497242 0.014823
C35   C     C_R   0.867372 0.380931 0.580113 -0.021752
C36   C     C_R   0.186888 0.611868 0.345785 -0.040977
C37   C     C_R   0.821345 0.391072 0.658092 -0.095298
C38   C     C_R   0.246640 0.672264 0.310047 -0.063067
C39   C     C_R   0.761982 0.331764 0.695964 -0.073519
C40   C     C_R   0.248825 0.744627 0.347419 0.002447
C41   C     C_R   0.751854 0.259679 0.658243 -0.007130
C42   C     C_R   0.934360 0.558214 0.460462 0.002038
C43   C     C_R   0.064730 0.441731 0.537416 0.002994
C44   C     C_2   0.315493 0.806747 0.306954 0.236571
C45   C     C_R   0.935481 0.443399 0.541035 -0.050791
C46   C     C_2   0.686876 0.198666 0.701608 0.227578
C47   C     C_2   0.653020 0.604692 0.881188 0.264352
C48   C     C_2   0.354351 0.389367 0.121833 0.262645
C49   C     C_2   0.660832 0.600176 0.704820 0.351426
C50   C     C_2   0.339942 0.399162 0.294764 0.278010
C51   C     C_2   0.315310 0.405112 0.860233 0.273300
C52   C     C_2   0.676588 0.600343 0.139756 0.244795
C53   C     C_2   0.175456 0.831400 0.462102 0.220147
C54   C     C_2   0.806956 0.172264 0.539234 0.218757
C55   C     C_2   0.862798 0.619365 0.421711 0.242952
C56   C     C_R   0.064240 0.557626 0.458376 -0.031249
C57   C     C_2   0.131559 0.378145 0.574699 0.230898
C58   C     C_2   0.378036 0.893211 0.632983 0.325819
C59   C     C_2   0.593172 0.105334 0.357421 0.274535
C60   C     C_R   0.438694 0.848213 0.567234 0.040744
C61   C     C_R   0.546278 0.151434 0.427409 0.018774
C62   C     C_R   0.436229 0.768512 0.566665 0.101362
Cu1   Cu    Cu3+1 0.499990 0.499980 0.580420 0.970043
Cu2   Cu    Cu3+1 0.500010 0.500020 0.419580 0.990188
H1    H     H_    0.357586 0.417644 0.703193 0.132668
H2    H     H_    0.416840 0.265425 0.612255 0.154819
H3    H     H_    0.332768 0.860776 0.337243 0.115237
H4    H     H_    0.665553 0.144601 0.672547 0.123806
H5    H     H_    0.649143 0.844798 0.333870 0.257144
H6    H     H_    0.695295 0.911134 0.402597 0.255004
H7    H     H_    0.376939 0.154829 0.675046 0.253400
H8    H     H_    0.312994 0.092278 0.608258 0.246514
H9    H     H_    0.616112 0.630817 0.935578 0.156036
H10   H     H_    0.262705 0.373542 0.141775 0.158909
H11   H     H_    0.626688 0.653866 0.685393 0.098565
H12   H     H_    0.637849 0.585156 0.296759 0.141337
H13   H     H_    0.373896 0.346546 0.317343 0.138331
H14   H     H_    0.273632 0.359361 0.823691 0.103023
H15   H     H_    0.716309 0.646273 0.176969 0.139896
H16   H     H_    0.204629 0.882166 0.432671 0.097478
H17   H     H_    0.775498 0.122025 0.568676 0.105627
H18   H     H_    0.777593 0.638819 0.448475 0.106064
H19   H     H_    0.098550 0.354249 0.630250 0.108895
H20   H     H_    0.361039 0.952699 0.625960 0.119678
H21   H     H_    0.564821 0.046679 0.349223 0.140452
H22   H     H_    0.424676 0.702316 0.664995 0.245197
H23   H     H_    0.087317 0.699878 0.516834 0.168802
H24   H     H_    0.304057 0.691755 0.597459 0.236971
H25   H     H_    0.699167 0.260247 0.361695 0.301485
H26   H     H_    0.560505 0.256654 0.309771 0.264763
H27   H     H_    0.897188 0.302285 0.481928 0.184300
H28   H     H_    0.182873 0.557631 0.314200 0.182296
H29   H     H_    0.831540 0.445043 0.689746 0.188726
H30   H     H_    0.290604 0.662224 0.252368 0.163670
H31   H     H_    0.724813 0.342385 0.755628 0.177754
H32   H     H_    0.601750 0.734281 0.395045 0.138069
N1    N     N_R   0.499970 0.499970 0.701220 -0.265012
N2    N     N_R   0.500030 0.500030 0.298780 -0.251765
N3    N     N_3   0.617211 0.883246 0.377600 -0.602359
N4    N     N_3   0.397227 0.116662 0.627892 -0.610729
N5    N     N_3   0.365112 0.730461 0.626311 -0.515170
N6    N     N_3   0.605046 0.272363 0.364383 -0.587451
O1    O     O_R   0.499990 0.391240 0.567930 -0.497316
O2    O     O_2   0.653956 0.208544 0.771427 -0.465180
O3    O     O_2   0.758849 0.620333 0.862367 -0.408487
O4    O     O_2   0.397136 0.355590 0.063558 -0.429828
O5    O     O_2   0.769933 0.585848 0.696267 -0.474466
O6    O     O_2   0.229844 0.412561 0.298900 -0.513616
O7    O     O_2   0.277331 0.416859 0.928478 -0.437260
O8    O     O_2   0.712747 0.591418 0.070677 -0.481136
O9    O     O_2   0.129523 0.838462 0.528900 -0.470169
O10   O     O_2   0.847616 0.164601 0.470998 -0.467328
O11   O     O_2   0.895819 0.646821 0.358517 -0.503095
O12   O     O_R   0.500010 0.608760 0.432070 -0.517564
O13   O     O_2   0.220379 0.349695 0.541798 -0.508740
O14   O     O_2   0.347859 0.865110 0.696436 -0.415277
O15   O     O_2   0.665194 0.130988 0.308816 -0.456678
O16   O     O_R   0.500000 0.391270 0.432120 -0.478213
O17   O     O_R   0.500000 0.608730 0.567880 -0.539229
O18   O     O_R   0.319640 0.499990 0.567910 -0.497817
O19   O     O_R   0.680360 0.500010 0.432090 -0.505478
O20   O     O_R   0.319650 0.500020 0.432090 -0.472271
O21   O     O_R   0.680350 0.499980 0.567910 -0.475603
O22   O     O_2   0.354645 0.797826 0.238470 -0.471013

loop_
_geom_bond_atom_site_label_1
_geom_bond_atom_site_label_2
_ccdc_geom_bond_type
C24   C52   S    
C50   O6    D    
C34   C56   A    
C23   C45   A    
H25   N6    S    
C14   C18   A    
H24   N5    S    
C49   O5    D    
C15   C19   A    
C30   C54   S    
C21   H12   S    
C17   C23   S    
C23   C42   A    
C7    N3    S    
C35   C37   A    
C24   C26   A    
C16   O18   A    
C32   H27   S    
C2    N6    S    
C58   C60   S    
Cu2   O19   S    
C33   C36   A    
Cu2   O16   S    
C60   C62   A    
C16   O20   A    
H26   N6    S    
C3    C12   S    
C16   C34   S    
C17   O21   A    
C48   O4    D    
C20   N1    A    
C47   O3    D    
C22   C25   A    
C41   C46   S    
C49   H11   S    
C30   C41   A    
C21   N2    A    
C18   N1    A    
C52   H15   S    
C1    O1    A    
C40   C44   S    
C2    C61   A    
C62   N5    S    
C42   C56   A    
C36   H28   S    
C33   C56   S    
Cu2   N2    S    
C51   O7    D    
C38   C40   A    
C58   O14   D    
C15   C48   S    
C19   N2    A    
C12   O12   A    
C37   C39   A    
C59   C61   S    
C31   H23   S    
C37   H29   S    
C32   C35   A    
C48   H10   S    
C20   H1    S    
C53   H16   S    
Cu2   O12   S    
C47   H9    S    
C57   O13   D    
C57   H19   S    
C5    C7    A    
C15   C26   A    
C6    C8    A    
C55   O11   D    
C46   O2    D    
C44   O22   D    
C2    C4    A    
C59   H21   S    
C46   H4    S    
C58   H20   S    
C42   C55   S    
C12   O17   A    
C43   C45   A    
C52   O8    D    
C38   H30   S    
C31   C33   A    
C54   O10   D    
C55   H18   S    
C9    C11   S    
C39   H31   S    
H5    N3    S    
Cu1   O1    S    
C20   C22   A    
C4    C6    A    
C35   C45   S    
C50   H13   S    
C5    H32   S    
H6    N3    S    
H8    N4    S    
C3    C62   A    
C17   O19   A    
C7    C9    A    
C8    C10   A    
C34   C43   A    
Cu1   N1    S    
C3    C5    A    
C10   C13   S    
Cu1   O21   S    
C14   C47   S    
C25   C27   S    
H7    N4    S    
C26   C28   S    
C9    C60   A    
C1    C4    S    
C36   C38   A    
C8    N4    S    
C51   H14   S    
C29   C31   A    
C30   C32   A    
Cu1   O18   S    
C11   C13   T    
C19   C50   S    
C53   O9    D    
C29   C53   S    
Cu2   O20   S    
C29   C40   A    
C1    O16   A    
C14   C25   A    
C43   C57   S    
Cu1   Cu2   S    
C10   C61   A    
C6    H2    S    
C39   C41   A    
C59   O15   D    
Cu1   O17   S    
C21   C24   A    
C27   C28   T    
C44   H3    S    
H22   N5    S    
C54   H17   S    
C18   C49   S    
C22   C51   S    
