data_mof_unit_13522.cif
_audit_creation_date              2012-10-26T20:38:53-0400
_audit_creation_method            fapswitch 2.2
_symmetry_space_group_name_H-M    P1
_symmetry_Int_Tables_number       1
_space_group_crystal_system       triclinic
_cell_length_a                    23.558785
_cell_length_b                    12.996005
_cell_length_c                    11.648954
_cell_angle_alpha                 100.068972
_cell_angle_beta                  94.189179
_cell_angle_gamma                 89.597104
_cell_volume                      3502.18722521

loop_
_atom_site_label
_atom_site_type_symbol
_atom_type_description
_atom_site_fract_x
_atom_site_fract_y
_atom_site_fract_z
_atom_type_partial_charge
Br1   Br    Br    0.319079 0.541134 0.254437 -0.496610
Br2   Br    Br    0.682694 0.472880 0.749182 -0.510489
Br3   Br    Br    0.211982 0.485921 0.752672 -0.469764
Br4   Br    Br    0.785991 0.500977 0.239471 -0.473157
C1    C     C_R   0.498539 0.299047 0.478408 0.550234
C2    C     C_R   0.696569 0.499705 0.393138 -0.153756
C3    C     C_R   0.243750 0.497920 0.608759 0.211913
C4    C     C_R   0.755405 0.496474 0.386515 0.207519
C5    C     C_R   0.208913 0.509994 0.509241 0.222971
C6    C     C_R   0.790945 0.489101 0.486539 0.223616
C7    C     C_R   0.502191 0.814354 0.534252 -0.007763
C8    C     C_R   0.496412 0.185671 0.465456 -0.014946
C9    C     C_R   0.484454 0.014899 0.341432 0.000530
C10   C     C_R   0.511916 0.984986 0.657559 0.001263
C11   C     C_R   0.486942 0.124003 0.354852 -0.109463
C12   C     C_R   0.501158 0.700968 0.521551 0.553231
C13   C     C_R   0.510907 0.876332 0.644738 -0.120265
C14   C     C_R   0.503260 0.139870 0.564836 -0.139389
C15   C     C_R   0.494300 0.860129 0.434788 -0.136090
C16   C     C_R   0.390720 0.501986 0.499961 0.574042
C17   C     C_R   0.609303 0.498335 0.500005 0.573546
C18   C     C_R   0.503269 0.031697 0.556078 0.045836
C19   C     C_R   0.494066 0.968545 0.443214 0.035129
C20   C     C_R   0.452292 0.391048 0.020364 -0.039945
C21   C     C_R   0.548111 0.608326 0.979649 -0.036586
C22   C     C_R   0.456507 0.404008 0.143409 0.084979
C23   C     C_R   0.233353 0.521427 0.406559 -0.061351
C24   C     C_R   0.543714 0.595659 0.856604 0.085986
C25   C     C_R   0.519473 0.547407 0.158637 0.040135
C26   C     C_R   0.480587 0.452465 0.841349 0.037380
C27   C     C_R   0.517262 0.539507 0.035130 0.008082
C28   C     C_R   0.482965 0.460097 0.964843 0.004357
C29   C     C_R   0.878612 0.583065 0.487765 0.434393
C30   C     C_R   0.121134 0.414187 0.499050 0.434735
C31   C     C_R   0.880974 0.398439 0.480769 0.415990
C32   C     C_R   0.118630 0.599536 0.513185 0.414345
C33   C     C_R   0.941307 0.397521 0.481246 0.038010
C34   C     C_R   0.767322 0.483350 0.591750 -0.058306
C35   C     C_R   0.058222 0.598857 0.501170 0.035457
C36   C     C_R   0.969690 0.495221 0.488302 -0.039780
C37   C     C_R   0.029877 0.501182 0.494173 -0.039689
C38   C     C_R   0.937936 0.587556 0.490034 0.021734
C39   C     C_R   0.061702 0.409014 0.492868 0.021348
C40   C     C_R   0.974637 0.304584 0.475669 -0.009497
C41   C     C_R   0.024836 0.690330 0.495674 -0.009736
C42   C     C_R   0.034035 0.312771 0.483204 -0.108827
C43   C     C_R   0.965540 0.682945 0.492921 -0.107728
C44   C     C_3   0.950590 0.194358 0.459833 -0.219366
C45   C     C_R   0.292244 0.519952 0.400798 0.135068
C46   C     C_3   0.939180 0.164531 0.577882 -0.276852
C47   C     C_3   0.913948 0.054657 0.561845 -0.428953
C48   C     C_3   0.048603 0.796799 0.486703 -0.221389
C49   C     C_3   0.060873 0.863858 0.608024 -0.275509
C50   C     C_3   0.085924 0.969892 0.598974 -0.429114
C51   C     C_3   0.415543 0.302596 0.952467 -0.292471
C52   C     C_3   0.357478 0.342702 0.911480 -0.275937
C53   C     C_3   0.322663 0.255354 0.833671 -0.426013
C54   C     C_3   0.585433 0.695926 0.047678 -0.290621
C55   C     C_3   0.642922 0.654189 0.089765 -0.277603
C56   C     C_R   0.708484 0.485589 0.599245 0.134534
C57   C     C_3   0.678039 0.740360 0.168791 -0.424258
C58   C     C_3   0.471214 0.947353 0.221085 -0.255326
C59   C     C_3   0.455706 0.005592 0.119012 -0.311386
C60   C     C_3   0.439029 0.928886 0.006772 -0.444010
C61   C     C_3   0.520957 0.047490 0.780512 -0.270272
C62   C     C_3   0.581422 0.093084 0.805652 -0.292727
C63   C     C_3   0.587173 0.166994 0.923204 -0.430325
C64   C     C_R   0.327937 0.505612 0.500323 -0.019616
C65   C     C_R   0.672099 0.494910 0.498896 -0.019377
C66   C     C_R   0.302748 0.495485 0.603837 -0.152350
Cu1   Cu    Cu3+1 0.504210 0.507730 0.615930 0.971478
Cu2   Cu    Cu3+1 0.495790 0.492270 0.384070 0.971314
H1    H     H_    0.454571 0.393834 0.784630 0.123431
H2    H     H_    0.670026 0.506039 0.314822 0.150894
H3    H     H_    0.488251 0.809769 0.350596 0.124933
H4    H     H_    0.509139 0.190005 0.649111 0.132533
H5    H     H_    0.517322 0.839833 0.721511 0.119554
H6    H     H_    0.481163 0.162350 0.279763 0.123125
H7    H     H_    0.872518 0.050511 0.509161 0.188339
H8    H     H_    0.943502 0.996446 0.517331 0.143638
H9    H     H_    0.906865 0.034754 0.648603 0.158450
H10   H     H_    0.979843 0.167157 0.633205 0.157612
H11   H     H_    0.909483 0.220808 0.624867 0.216269
H12   H     H_    0.545362 0.606227 0.215377 0.123166
H13   H     H_    0.912660 0.183399 0.396792 0.208462
H14   H     H_    0.981676 0.137516 0.417882 0.117704
H15   H     H_    0.127040 0.959462 0.557482 0.188377
H16   H     H_    0.056005 0.012868 0.546439 0.145016
H17   H     H_    0.093580 0.017212 0.687783 0.159506
H18   H     H_    0.020608 0.876660 0.652606 0.155296
H19   H     H_    0.091066 0.823374 0.662636 0.223212
H20   H     H_    0.086163 0.790123 0.433977 0.203092
H21   H     H_    0.017013 0.838797 0.436275 0.119204
H22   H     H_    0.344990 0.225207 0.753917 0.153872
H23   H     H_    0.567029 0.647304 0.813257 0.137839
H24   H     H_    0.315832 0.190362 0.881785 0.160282
H25   H     H_    0.280576 0.285891 0.806707 0.204237
H26   H     H_    0.333615 0.373860 0.988886 0.217674
H27   H     H_    0.362894 0.407041 0.861736 0.173659
H28   H     H_    0.437944 0.261362 0.877375 0.124781
H29   H     H_    0.408471 0.243010 0.007996 0.131596
H30   H     H_    0.685880 0.805346 0.121300 0.161466
H31   H     H_    0.655398 0.770874 0.248016 0.153229
H32   H     H_    0.719654 0.708520 0.196596 0.204753
H33   H     H_    0.636654 0.589718 0.138863 0.171497
H34   H     H_    0.433285 0.352226 0.186754 0.134846
H35   H     H_    0.667058 0.622694 0.012877 0.221022
H36   H     H_    0.593500 0.754813 0.991889 0.133304
H37   H     H_    0.562985 0.738391 0.122160 0.127340
H38   H     H_    0.475475 0.877500 0.980615 0.145599
H39   H     H_    0.402342 0.879820 0.019336 0.178091
H40   H     H_    0.426366 0.972870 0.935488 0.141772
H41   H     H_    0.419051 0.058217 0.139801 0.165828
H42   H     H_    0.492712 0.052647 0.103478 0.152187
H43   H     H_    0.508733 0.897443 0.199009 0.132624
H44   H     H_    0.434451 0.895931 0.227446 0.162862
H45   H     H_    0.059047 0.242206 0.481285 0.159133
H46   H     H_    0.557647 0.233985 0.922423 0.160467
H47   H     H_    0.577441 0.125039 0.994800 0.145794
H48   H     H_    0.631406 0.197730 0.940230 0.180078
H49   H     H_    0.612328 0.028224 0.807336 0.170892
H50   H     H_    0.592667 0.136565 0.736453 0.185049
H51   H     H_    0.488306 0.109462 0.794408 0.129774
H52   H     H_    0.514479 0.996965 0.846163 0.135438
H53   H     H_    0.940593 0.753246 0.491662 0.158698
H54   H     H_    0.206041 0.531304 0.330356 0.161918
H55   H     H_    0.795189 0.477204 0.668420 0.162825
H56   H     H_    0.328849 0.485254 0.681430 0.149953
N1    N     N_R   0.851664 0.489909 0.483353 -0.373560
N2    N     N_R   0.148082 0.508154 0.509633 -0.373204
N3    N     N_R   0.510550 0.519360 0.790130 -0.234406
N4    N     N_R   0.489450 0.480640 0.209870 -0.234029
O1    O     O_R   0.502990 0.354470 0.582000 -0.508819
O2    O     O_2   0.152043 0.325805 0.493988 -0.483092
O3    O     O_2   0.851244 0.310098 0.479337 -0.511322
O4    O     O_2   0.148304 0.689764 0.530491 -0.506832
O5    O     O_R   0.497010 0.645530 0.418000 -0.506905
O6    O     O_R   0.495870 0.341410 0.386200 -0.519453
O7    O     O_R   0.504130 0.658590 0.613800 -0.517779
O8    O     O_R   0.421440 0.506500 0.597920 -0.518986
O9    O     O_R   0.578560 0.493500 0.402080 -0.520934
O10   O     O_R   0.414320 0.493440 0.402120 -0.445095
O11   O     O_R   0.585680 0.506560 0.597880 -0.444664
O12   O     O_2   0.847802 0.671430 0.491047 -0.485651

loop_
_geom_bond_atom_site_label_1
_geom_bond_atom_site_label_2
_ccdc_geom_bond_type
C21   C27   A    
C2    C65   A    
C26   C28   A    
C51   C52   S    
C36   C37   A    
C45   C64   A    
C54   H37   S    
Cu2   O10   S    
C12   O5    A    
C52   H26   S    
Br4   C4    S    
C22   H34   S    
C3    C66   A    
C34   H55   S    
C1    O6    A    
C35   C37   A    
C5    N2    S    
C21   C24   A    
C1    O1    A    
C7    C15   A    
C55   H33   S    
C24   H23   S    
C29   C38   A    
Cu2   O6    S    
C31   C33   A    
C20   C22   A    
C33   C36   A    
Br3   C3    S    
C50   H15   S    
C23   H54   S    
Br2   C56   S    
C60   H40   S    
C25   N4    A    
C30   O2    S    
C66   H56   S    
C26   N3    A    
C52   C53   S    
C9    C19   A    
C61   H52   S    
C47   H8    S    
C59   H42   S    
C9    C58   S    
C53   H24   S    
C51   H28   S    
C49   H19   S    
C62   H50   S    
C43   H53   S    
C2    H2    S    
C63   H48   S    
C31   N1    A    
C5    C23   A    
C35   C41   A    
C44   C46   S    
C62   C63   S    
C37   C39   A    
C10   C13   A    
C32   O4    S    
C63   H46   S    
C40   C42   A    
C46   H11   S    
Cu2   N4    S    
C41   C43   A    
C29   O12   S    
Cu2   O9    S    
C55   C57   S    
C16   O10   A    
C57   H32   S    
C44   H13   S    
C17   O11   A    
C1    C8    S    
C31   O3    S    
C26   H1    S    
C60   H39   S    
C2    C4    A    
C41   C48   S    
C54   C55   S    
C49   C50   S    
C55   H35   S    
C42   H45   S    
C17   C65   S    
C20   C51   S    
C59   H41   S    
C15   C19   A    
C20   C28   A    
C58   H44   S    
C58   C59   S    
C32   N2    A    
C7    C12   S    
C60   H38   S    
C27   C28   A    
C8    C11   A    
C53   H25   S    
C13   H5    S    
C46   C47   S    
C62   H49   S    
C48   H21   S    
C25   H12   S    
C34   C56   A    
C4    C6    A    
Cu2   O5    S    
C53   H22   S    
C9    C11   A    
C44   H14   S    
C48   H20   S    
C12   O7    A    
C21   C54   S    
C22   N4    A    
C48   C49   S    
C46   H10   S    
Cu1   O11   S    
C29   N1    A    
C3    C5    A    
C47   H9    S    
C7    C13   A    
C14   H4    S    
C57   H31   S    
C14   C18   A    
C16   C64   S    
C32   C35   A    
C30   C39   A    
Cu1   O1    S    
Cu1   O7    S    
Cu1   O8    S    
C51   H29   S    
C6    C34   A    
C24   N3    A    
C10   C18   A    
C33   C40   A    
C15   H3    S    
C57   H30   S    
C6    N1    S    
C17   O9    A    
Cu1   Cu2   S    
C25   C27   A    
C50   H16   S    
C16   O8    A    
C63   H47   S    
C56   C65   A    
C36   C38   A    
C10   C61   S    
C50   H17   S    
C54   H36   S    
C38   C43   A    
C61   H51   S    
C39   C42   A    
C47   H7    S    
Cu1   N3    S    
C59   C60   S    
C11   H6    S    
C40   C44   S    
C58   H43   S    
C30   N2    A    
C64   C66   A    
C61   C62   S    
C8    C14   A    
C49   H18   S    
C18   C19   A    
C52   H27   S    
Br1   C45   S    
C23   C45   A    
