data_mof_unit_67710.cif
_audit_creation_date              2012-12-10T19:48:32-0500
_audit_creation_method            fapswitch 2.2
_symmetry_space_group_name_H-M    P1
_symmetry_Int_Tables_number       1
_space_group_crystal_system       triclinic
_cell_length_a                    10.909407
_cell_length_b                    10.72984
_cell_length_c                    9.530567
_cell_angle_alpha                 86.925283
_cell_angle_beta                  92.646964
_cell_angle_gamma                 86.590633
_cell_volume                      1110.6693277

loop_
_atom_site_label
_atom_site_type_symbol
_atom_type_description
_atom_site_fract_x
_atom_site_fract_y
_atom_site_fract_z
_atom_type_partial_charge
C1    C     C_R   0.501748 0.260086 0.503199 0.824604
C2    C     C_3   0.390244 0.055581 0.450306 0.019238
C3    C     C_3   0.492366 0.876257 0.493020 -0.314094
C4    C     C_3   0.500140 0.124068 0.507892 -0.278078
C5    C     C_3   0.404856 0.959707 0.577325 0.659758
C6    C     C_3   0.587782 0.040264 0.424218 0.631265
C7    C     C_3   0.531048 0.606066 0.045083 0.643716
C8    C     C_3   0.468882 0.394047 0.954233 0.658960
C9    C     C_3   0.424286 0.585567 0.940822 0.046110
C10   C     C_3   0.575726 0.414463 0.057892 0.053538
C11   C     C_3   0.606518 0.519725 0.955493 0.059962
C12   C     C_R   0.495414 0.739967 0.496865 0.853544
C13   C     C_3   0.393226 0.480336 0.044024 -0.017119
C14   C     C_R   0.262513 0.502747 0.496901 0.757571
C15   C     C_R   0.737359 0.496448 0.503340 0.800415
C16   C     C_R   0.154090 0.875325 0.216163 -0.182686
C17   C     C_R   0.837825 0.124984 0.782942 -0.219577
C18   C     C_R   0.137336 0.786199 0.325210 0.023246
C19   C     C_R   0.860788 0.211681 0.673726 0.056661
C20   C     C_R   0.097378 0.668135 0.292885 -0.143434
C21   C     C_R   0.901365 0.329387 0.706094 -0.123618
C22   C     C_R   0.071249 0.643925 0.151780 0.564469
C23   C     C_R   0.871422 0.498826 0.507731 -0.106934
C24   C     C_R   0.924709 0.354600 0.847403 0.591488
C25   C     C_R   0.084550 0.734719 0.043881 0.494073
C26   C     C_R   0.901824 0.267600 0.955881 0.566790
C27   C     C_R   0.128279 0.850960 0.075594 -0.067789
C28   C     C_R   0.855339 0.152597 0.923996 -0.035608
C29   C     C_R   0.922578 0.584010 0.413899 0.139095
C30   C     C_R   0.076191 0.415094 0.588649 0.132159
C31   C     C_R   0.128288 0.499636 0.493228 -0.127202
C32   C     C_R   0.948417 0.415053 0.596700 0.062131
C33   C     C_R   0.050804 0.582432 0.402682 0.051068
C34   C     C_3   0.515290 0.027668 0.634150 0.034680
C35   C     C_3   0.476980 0.972937 0.367142 0.042388
C36   C     C_3   0.602001 0.944742 0.551285 -0.023483
Cu1   Cu    Cu3+1 0.500030 0.499990 0.643150 1.021195
Cu2   Cu    Cu3+1 0.499970 0.500010 0.356850 1.003450
F1    F     F_    0.568064 0.716796 0.094867 -0.684509
F2    F     F_    0.433582 0.282607 0.903977 -0.635983
F3    F     F_    0.022604 0.534833 0.121134 -0.573908
F4    F     F_    0.976516 0.461980 0.878428 -0.575424
F5    F     F_    0.051169 0.710552 0.909596 -0.629895
F6    F     F_    0.928482 0.294186 0.091111 -0.619847
F7    F     F_    0.312159 0.921640 0.660621 -0.637256
F8    F     F_    0.682728 0.076408 0.343518 -0.677018
H1    H     H_    0.183390 0.966033 0.240056 0.247987
H2    H     H_    0.713171 0.350355 0.200875 0.290241
H3    H     H_    0.715842 0.632944 0.848298 0.247266
H4    H     H_    0.783110 0.559405 0.993411 0.292609
H5    H     H_    0.216496 0.440858 0.006206 0.286017
H6    H     H_    0.283936 0.366916 0.150961 0.262124
H7    H     H_    0.216190 0.755757 0.520467 0.252489
H8    H     H_    0.068655 0.814526 0.515102 0.254638
H9    H     H_    0.789253 0.241031 0.475036 0.239334
H10   H     H_    0.935867 0.179329 0.488252 0.253802
H11   H     H_    0.873487 0.764939 0.345929 0.219887
H12   H     H_    0.808337 0.034304 0.758966 0.229626
H13   H     H_    0.841574 0.656871 0.227241 0.273703
H14   H     H_    0.192825 0.371371 0.759911 0.289219
H15   H     H_    0.219714 0.282829 0.620071 0.226679
H16   H     H_    0.748449 0.822764 0.530377 0.249952
H17   H     H_    0.700084 0.826916 0.694328 0.227361
H18   H     H_    0.214004 0.121216 0.476961 0.250603
H19   H     H_    0.287054 0.205120 0.355612 0.233162
H20   H     H_    0.567945 0.974038 0.837217 0.249637
H21   H     H_    0.596664 0.122227 0.788905 0.268098
H22   H     H_    0.540564 0.929608 0.177836 0.309945
H23   H     H_    0.093637 0.024950 0.984901 0.233343
H24   H     H_    0.405641 0.869987 0.213343 0.267601
H25   H     H_    0.120842 0.916191 0.868408 0.305775
H26   H     H_    0.880272 0.980463 0.021979 0.223924
H27   H     H_    0.847985 0.093333 0.131869 0.313524
H28   H     H_    0.262806 0.642776 0.836950 0.280201
H29   H     H_    0.320605 0.747660 0.943847 0.257979
H30   H     H_    0.607100 0.246473 0.165291 0.297466
N1    N     N_3   0.500090 0.499970 0.858290 -0.236836
N2    N     N_3   0.849771 0.175639 0.531630 -0.478516
N3    N     N_3   0.842236 0.675799 0.333518 -0.555369
N4    N     N_3   0.151672 0.325513 0.677861 -0.553407
N5    N     N_3   0.718190 0.882956 0.605612 -0.549307
N6    N     N_3   0.273070 0.114492 0.394303 -0.555626
N7    N     N_3   0.531552 0.055405 0.781464 -0.418394
N8    N     N_3   0.455173 0.949916 0.219197 -0.477274
N9    N     N_3   0.499910 0.500030 0.141710 -0.248593
N10   N     N_3   0.148709 0.944853 0.967342 -0.487271
N11   N     N_3   0.825676 0.062510 0.032278 -0.513733
N12   N     N_3   0.343095 0.683465 0.869492 -0.453295
N13   N     N_3   0.659892 0.314697 0.120742 -0.494470
N14   N     N_3   0.726059 0.546598 0.904940 -0.478859
N15   N     N_3   0.273685 0.453426 0.094599 -0.482752
N16   N     N_3   0.152720 0.820526 0.467542 -0.492965
O1    O     O_R   0.500060 0.316850 0.620870 -0.527654
O2    O     O_R   0.499940 0.683150 0.379130 -0.533430
O3    O     O_R   0.500000 0.316860 0.379090 -0.596758
O4    O     O_R   0.500000 0.683140 0.620910 -0.550076
O5    O     O_R   0.319670 0.500010 0.620890 -0.577689
O6    O     O_R   0.680330 0.499990 0.379110 -0.558876
O7    O     O_R   0.319620 0.500010 0.379110 -0.559053
O8    O     O_R   0.680380 0.499990 0.620890 -0.572101

loop_
_geom_bond_atom_site_label_1
_geom_bond_atom_site_label_2
_ccdc_geom_bond_type
C2    C35   S    
C10   N9    S    
H21   N7    S    
C8    C13   S    
C19   N2    S    
C24   F4    S    
H11   N3    S    
C15   O8    A    
Cu2   O6    S    
C25   F5    S    
Cu1   O5    S    
C26   F6    S    
C14   O7    A    
C7    C11   S    
H17   N5    S    
C23   C29   A    
C19   C21   A    
C24   C26   A    
C9    N12   S    
C30   C31   A    
C22   F3    S    
H15   N4    S    
C29   C33   A    
H10   N2    S    
C6    C35   S    
C9    C13   S    
H27   N11   S    
C3    C12   S    
C11   N1    S    
H5    N15   S    
H20   N7    S    
H4    N14   S    
C10   N13   S    
C22   C25   A    
Cu2   O3    S    
C31   C33   A    
H24   N8    S    
C14   C31   S    
C18   C20   A    
H30   N13   S    
C30   N4    S    
C16   C27   A    
C15   C23   S    
C13   N15   S    
C12   O2    A    
C28   N11   S    
C16   H1    S    
C21   C32   S    
C4    C34   S    
Cu2   N9    S    
H22   N8    S    
C4    C6    S    
H13   N3    S    
H9    N2    S    
C5    F7    S    
Cu1   O4    S    
C27   N10   S    
C2    C4    S    
H8    N16   S    
Cu1   Cu2   S    
H25   N10   S    
C29   N3    S    
C3    C35   S    
C36   N5    S    
C1    O3    A    
C5    C34   S    
Cu2   O2    S    
H7    N16   S    
Cu1   O1    S    
C16   C18   A    
C9    N1    S    
H18   N6    S    
C20   C33   S    
C8    C10   S    
H16   N5    S    
C20   C22   A    
H2    N13   S    
C8    N1    S    
C2    N6    S    
C2    C5    S    
C34   N7    S    
C15   O6    A    
H26   N11   S    
C14   O5    A    
C7    C9    S    
H14   N4    S    
C6    F8    S    
C17   C28   A    
Cu2   O7    S    
C3    C5    S    
C35   N8    S    
C25   C27   A    
C17   H12   S    
C26   C28   A    
C1    C4    S    
C18   N16   S    
C23   C32   A    
C30   C32   A    
C11   N14   S    
H19   N6    S    
C7    N9    S    
Cu1   N1    S    
C3    C36   S    
C17   C19   A    
C6    C36   S    
C34   C36   S    
Cu1   O8    S    
C10   C11   S    
H29   N12   S    
C1    O1    A    
C21   C24   A    
C13   N9    S    
C7    F1    S    
C12   O4    A    
H6    N15   S    
C8    F2    S    
H28   N12   S    
H3    N14   S    
H23   N10   S    
