data_mof_unit_5190.cif
_audit_creation_date              2012-10-26T19:15:01-0400
_audit_creation_method            fapswitch 2.2
_symmetry_space_group_name_H-M    P1
_symmetry_Int_Tables_number       1
_space_group_crystal_system       triclinic
_cell_length_a                    10.914695
_cell_length_b                    10.886348
_cell_length_c                    9.607103
_cell_angle_alpha                 89.574173
_cell_angle_beta                  92.060295
_cell_angle_gamma                 93.011138
_cell_volume                      1139.19664174

loop_
_atom_site_label
_atom_site_type_symbol
_atom_type_description
_atom_site_fract_x
_atom_site_fract_y
_atom_site_fract_z
_atom_type_partial_charge
C1    C     C_R   0.505183 0.262483 0.500375 0.563540
C2    C     C_R   0.507253 0.934930 0.621202 -0.003907
C3    C     C_3   0.416180 0.927897 0.733165 0.133594
C4    C     C_R   0.262504 0.498416 0.497165 0.567686
C5    C     C_3   0.438518 0.066343 0.747699 0.198570
C6    C     C_R   0.531856 0.604271 0.073646 0.040402
C7    C     C_R   0.445962 0.404603 0.072601 0.384005
C8    C     C_R   0.445608 0.404809 0.925222 0.359739
C9    C     C_R   0.526064 0.606318 0.927272 0.147427
C10   C     C_3   0.635918 0.692920 0.923783 0.099686
C11   C     C_3   0.648563 0.681268 0.081566 -0.182419
C12   C     C_R   0.945990 0.548616 0.611348 -0.010932
C13   C     C_R   0.499863 0.737271 0.499247 0.574435
C14   C     C_R   0.737543 0.498223 0.502182 0.540085
C15   C     C_R   0.072059 0.551127 0.603966 0.028866
C16   C     C_R   0.129525 0.504222 0.490309 -0.008122
C17   C     C_R   0.054964 0.462810 0.373957 0.189651
C18   C     C_R   0.927358 0.458250 0.382743 -0.095688
C19   C     C_R   0.871126 0.496573 0.503465 -0.028221
C20   C     C_3   0.614447 0.149613 0.881425 0.051440
C21   C     C_3   0.711453 0.053198 0.898321 -0.312865
C22   C     C_3   0.840979 0.113039 0.905402 -0.441897
C23   C     C_3   0.956808 0.524203 0.765789 0.123247
C24   C     C_3   0.170970 0.625644 0.959053 -0.000486
C25   C     C_3   0.214815 0.749900 0.021112 -0.267678
C26   C     C_3   0.232946 0.743280 0.178896 -0.466317
C27   C     C_3   0.095400 0.531854 0.755755 0.197577
C28   C     C_R   0.520135 0.061333 0.624495 -0.088183
C29   C     C_R   0.520899 0.129497 0.499921 0.024690
C30   C     C_R   0.536712 0.065868 0.373726 0.236832
C31   C     C_R   0.530121 0.936400 0.374263 -0.157597
C32   C     C_R   0.508754 0.870520 0.497609 0.007831
Cu1   Cu    Cu3+1 0.499990 0.499980 0.640670 0.985716
Cu2   Cu    Cu3+1 0.500010 0.500020 0.359330 0.961397
H1    H     H_    0.444256 0.872743 0.825024 0.127478
H2    H     H_    0.158453 0.480119 0.218058 0.324113
H3    H     H_    0.624225 0.211749 0.972728 0.188634
H4    H     H_    0.631417 0.209543 0.789535 0.164624
H5    H     H_    0.695860 0.999254 0.995296 0.157988
H6    H     H_    0.704128 0.988683 0.809274 0.156478
H7    H     H_    0.860867 0.160938 0.805669 0.197897
H8    H     H_    0.908471 0.041163 0.923025 0.160127
H9    H     H_    0.851287 0.179888 0.992393 0.188539
H10   H     H_    0.340336 0.342993 0.214306 0.366270
H11   H     H_    0.341405 0.342858 0.774084 0.343380
H12   H     H_    0.354377 0.117402 0.726344 0.184623
H13   H     H_    0.742485 0.692172 0.769636 0.326716
H14   H     H_    0.825698 0.412816 0.825894 0.360098
H15   H     H_    0.242364 0.558108 0.980251 0.130670
H16   H     H_    0.084769 0.593682 0.009868 0.146886
H17   H     H_    0.303453 0.780258 0.975790 0.166175
H18   H     H_    0.146375 0.819225 0.994432 0.180784
H19   H     H_    0.145498 0.714097 0.228093 0.151987
H20   H     H_    0.264527 0.835224 0.219572 0.178067
H21   H     H_    0.303817 0.677387 0.206691 0.189934
H22   H     H_    0.559803 0.071343 0.173664 0.334321
H23   H     H_    0.615523 0.787280 0.888663 0.076797
H24   H     H_    0.242230 0.902828 0.757814 0.337661
H25   H     H_    0.727897 0.628340 0.118998 0.174748
H26   H     H_    0.639387 0.769958 0.134803 0.078451
H27   H     H_    0.872243 0.422049 0.294758 0.172231
H28   H     H_    0.928322 0.597847 0.833652 0.190415
H29   H     H_    0.142137 0.445617 0.781939 0.153165
H30   H     H_    0.536455 0.887984 0.277367 0.109565
N1    N     N_R   0.500790 0.500930 0.147930 -0.293088
N2    N     N_R   0.500790 0.500890 0.852020 -0.254402
O1    O     O_R   0.500000 0.319640 0.618810 -0.536323
O2    O     O_3   0.494719 0.092162 0.881786 -0.539766
O3    O     O_3   0.382424 0.308586 0.135636 -0.583868
O4    O     O_3   0.378605 0.310581 0.860293 -0.652838
O5    O     O_3   0.731020 0.642485 0.855720 -0.720590
O6    O     O_3   0.912556 0.405451 0.801724 -0.732694
O7    O     O_3   0.151287 0.640640 0.814124 -0.561585
O8    O     O_3   0.554483 0.130244 0.251054 -0.634294
O9    O     O_3   0.297920 0.895024 0.679414 -0.684986
O10   O     O_R   0.500010 0.319680 0.381230 -0.419777
O11   O     O_R   0.319650 0.499970 0.618810 -0.516734
O12   O     O_R   0.319660 0.500010 0.381230 -0.545865
O13   O     O_R   0.499990 0.680320 0.618770 -0.484025
O14   O     O_R   0.500000 0.680360 0.381190 -0.528993
O15   O     O_R   0.680340 0.499990 0.618770 -0.476567
O16   O     O_R   0.680350 0.500030 0.381190 -0.514266
O17   O     O_3   0.102059 0.415449 0.256168 -0.690263

loop_
_geom_bond_atom_site_label_1
_geom_bond_atom_site_label_2
_ccdc_geom_bond_type
C13   O13   A    
C8    N2    A    
C13   C32   S    
C26   H21   S    
C6    C9    A    
C7    C8    A    
C12   C23   S    
C28   C29   A    
C30   C31   A    
C30   O8    S    
C24   O7    S    
C22   H7    S    
H2    O17   S    
C15   C16   A    
C2    C32   A    
C18   C19   A    
C9    N2    A    
C23   O6    S    
Cu2   O14   S    
C23   H28   S    
C31   C32   A    
C16   C17   A    
H24   O9    S    
C23   C27   S    
C3    O9    S    
C9    C10   S    
C10   O5    S    
C13   O14   A    
C21   C22   S    
H14   O6    S    
C5    O2    S    
C11   H25   S    
C26   H20   S    
Cu2   N1    S    
Cu1   N2    S    
Cu1   Cu2   S    
C6    N1    A    
C24   H16   S    
H22   O8    S    
C10   H23   S    
C24   C25   S    
C6    C11   S    
C14   C19   S    
C25   C26   S    
C17   O17   S    
C4    C16   S    
C25   H17   S    
C4    O12   A    
C29   C30   A    
C7    N1    A    
C5    C28   S    
C20   H4    S    
C15   C27   S    
C22   H9    S    
C21   H5    S    
C12   C15   A    
C3    H1    S    
C1    C29   S    
C17   C18   A    
H10   O3    S    
H13   O5    S    
C27   H29   S    
C14   O16   A    
C11   H26   S    
C26   H19   S    
Cu1   O1    S    
C24   H15   S    
H11   O4    S    
C1    O10   A    
C31   H30   S    
C20   O2    S    
Cu1   O13   S    
C3    C5    S    
C7    O3    S    
C18   H27   S    
C5    H12   S    
C8    O4    S    
C2    C3    S    
C25   H18   S    
C4    O11   A    
Cu2   O12   S    
C20   H3    S    
Cu1   O11   S    
C22   H8    S    
C21   H6    S    
C12   C19   A    
C1    O1    A    
C10   C11   S    
C20   C21   S    
C2    C28   A    
Cu2   O16   S    
C14   O15   A    
C27   O7    S    
Cu1   O15   S    
Cu2   O10   S    
