data_mof_unit_54827.cif
_audit_creation_date              2012-12-11T15:12:44-0500
_audit_creation_method            fapswitch 2.2
_symmetry_space_group_name_H-M    P1
_symmetry_Int_Tables_number       1
_space_group_crystal_system       triclinic
_cell_length_a                    22.335237
_cell_length_b                    6.940299
_cell_length_c                    19.345642
_cell_angle_alpha                 90.002616
_cell_angle_beta                  99.331114
_cell_angle_gamma                 89.995816
_cell_volume                      2959.1492254

loop_
_atom_site_label
_atom_site_type_symbol
_atom_type_description
_atom_site_fract_x
_atom_site_fract_y
_atom_site_fract_z
_atom_type_partial_charge
O1    O     O_R   0.448420 0.506120 0.415750 -0.536152
O2    O     O_R   0.551580 0.006120 0.584250 -0.536173
O3    O     O_R   0.436490 0.174470 0.555610 -0.533473
O4    O     O_R   0.563510 0.674470 0.444390 -0.533471
C1    C     C_R   0.421086 0.344683 0.575772 0.713311
C2    C     C_R   0.578915 0.844671 0.424228 0.713317
O5    O     O_R   0.441310 0.176330 0.414520 -0.536562
O6    O     O_R   0.558690 0.676330 0.585480 -0.536548
O7    O     O_R   0.556430 0.007110 0.442150 -0.535673
O8    O     O_R   0.443570 0.507110 0.557850 -0.535670
C3    C     C_R   0.426626 0.345197 0.388322 0.690529
C4    C     C_R   0.573372 0.845188 0.611679 0.690534
O9    O     O_3   0.537770 0.339560 0.509230 -0.364359
O10   O     O_3   0.462230 0.839560 0.490770 -0.364353
V1    V     V_3+5 0.492990 0.064280 0.498290 1.452227
V2    V     V_3+5 0.507010 0.564280 0.501710 1.452264
C5    C     C_R   0.871887 0.896850 0.693934 -0.014506
C6    C     C_R   0.128083 0.395635 0.306031 -0.014711
H1    H     H_    0.958393 0.920777 0.762156 0.144550
H2    H     H_    0.041582 0.419462 0.237781 0.144734
H3    H     H_    0.784690 0.900166 0.577235 0.118157
H4    H     H_    0.215276 0.398742 0.422756 0.118116
C7    C     C_R   0.885161 0.935695 0.820597 -0.081657
C8    C     C_R   0.114832 0.435611 0.179408 -0.081750
C9    C     C_R   0.590267 0.832924 0.740244 -0.214026
C10   C     C_R   0.409756 0.333566 0.259748 -0.214053
C11   C     C_R   0.627092 0.807491 0.804629 -0.088813
C12   C     C_R   0.372951 0.308485 0.195331 -0.088822
C13   C     C_R   0.690582 0.804345 0.810458 -0.004856
C14   C     C_R   0.309461 0.305156 0.189477 -0.004815
C15   C     C_R   0.718276 0.852933 0.750954 -0.003033
C16   C     C_R   0.281737 0.353165 0.249019 -0.003054
C17   C     C_R   0.679663 0.863398 0.684143 0.067545
C18   C     C_R   0.320334 0.363263 0.315848 0.067535
C19   C     C_R   0.782543 0.884994 0.754296 0.072226
C20   C     C_R   0.217459 0.384974 0.245692 0.072289
C21   C     C_R   0.807764 0.887100 0.691038 0.060336
C22   C     C_R   0.192219 0.386387 0.308941 0.060309
C23   C     C_R   0.768266 0.886918 0.626508 -0.186009
C24   C     C_R   0.231708 0.385938 0.373477 -0.186087
C25   C     C_R   0.705781 0.880971 0.623302 -0.155430
C26   C     C_R   0.294197 0.380279 0.376693 -0.155369
C27   C     C_R   0.822160 0.925310 0.817905 -0.238431
C28   C     C_R   0.177842 0.425640 0.182116 -0.238466
C29   C     C_R   0.909482 0.918072 0.759047 -0.143887
C30   C     C_R   0.090498 0.417168 0.240922 -0.143727
C31   C     C_R   0.615505 0.851979 0.679294 -0.084511
C32   C     C_R   0.384498 0.352062 0.320705 -0.084499
H5    H     H_    0.541454 0.825266 0.737404 0.118226
H6    H     H_    0.458573 0.326116 0.262594 0.118234
H7    H     H_    0.605400 0.775912 0.849536 0.163826
H8    H     H_    0.394663 0.277351 0.150401 0.163828
C33   C     C_3   0.796912 0.714547 0.245307 -0.415048
C34   C     C_3   0.203093 0.214546 0.754677 -0.415079
C35   C     C_3   0.800454 0.070712 0.264711 -0.297569
C36   C     C_3   0.199543 0.570720 0.735304 -0.297653
C37   C     C_3   0.750733 0.058432 0.312294 -0.297209
C38   C     C_3   0.249264 0.558458 0.687721 -0.297197
H9    H     H_    0.843937 0.698224 0.274411 0.157232
H10   H     H_    0.156068 0.198242 0.725571 0.157247
H11   H     H_    0.800200 0.216448 0.240891 0.182776
H12   H     H_    0.199793 0.716446 0.759136 0.182756
H13   H     H_    0.772400 0.052619 0.368193 0.154584
H14   H     H_    0.227598 0.552669 0.631821 0.154568
H15   H     H_    0.722870 0.192114 0.305895 0.193607
H16   H     H_    0.277123 0.692136 0.694131 0.193580
C39   C     C_1   0.624764 0.854707 0.378958 -0.157328
C40   C     C_1   0.375238 0.354740 0.621043 -0.157329
C41   C     C_3   0.790906 0.912416 0.207114 0.202690
C42   C     C_3   0.209094 0.412398 0.792887 0.202741
C43   C     C_3   0.748884 0.694080 0.295467 -0.119590
C44   C     C_3   0.251123 0.194099 0.704518 -0.119537
C45   C     C_3   0.709093 0.880380 0.293084 0.148492
C46   C     C_3   0.290908 0.380396 0.706917 0.148512
C47   C     C_3   0.677180 0.908353 0.216198 -0.338238
C48   C     C_3   0.322820 0.408335 0.783805 -0.338264
C49   C     C_3   0.724849 0.925990 0.165412 -0.100307
C50   C     C_3   0.275150 0.425947 0.834592 -0.100258
C51   C     C_1   0.662745 0.865464 0.340592 -0.049250
C52   C     C_1   0.337257 0.365496 0.659409 -0.049261
C53   C     C_1   0.837398 0.928390 0.159823 -0.070541
C54   C     C_1   0.162602 0.428356 0.840178 -0.070565
C55   C     C_1   0.875337 0.939617 0.121414 -0.165110
C56   C     C_1   0.124662 0.439583 0.878587 -0.165144
H17   H     H_    0.717953 0.801041 0.128826 0.118497
H18   H     H_    0.282049 0.300980 0.871166 0.118549
H19   H     H_    0.646898 0.783347 0.200028 0.141114
H20   H     H_    0.353106 0.283322 0.799965 0.141107
H21   H     H_    0.790331 0.596058 0.206014 0.177529
H22   H     H_    0.209675 0.096039 0.793960 0.177498
H23   H     H_    0.718395 0.571498 0.276286 0.161223
H24   H     H_    0.281614 0.071509 0.723691 0.161185
H25   H     H_    0.647204 0.037306 0.212983 0.178483
H26   H     H_    0.352792 0.537286 0.787031 0.178491
O11   O     O_R   0.056480 0.288780 0.942210 -0.534421
O12   O     O_R   0.943520 0.788780 0.057790 -0.534407
O13   O     O_R   0.058700 0.616820 0.085490 -0.537142
O14   O     O_R   0.941300 0.116820 0.914510 -0.537139
C57   C     C_R   0.073343 0.447953 0.111775 0.702516
C58   C     C_R   0.926658 0.947963 0.888225 0.702540
O15   O     O_R   0.063520 0.618570 0.944410 -0.537803
O16   O     O_R   0.936480 0.118570 0.055590 -0.537797
O17   O     O_R   0.948420 0.787670 0.915740 -0.536468
O18   O     O_R   0.051580 0.287670 0.084260 -0.536467
C59   C     C_R   0.078935 0.449777 0.924019 0.728909
C60   C     C_R   0.921064 0.949788 0.075981 0.728923
O19   O     O_3   0.962260 0.453430 0.990800 -0.366745
O20   O     O_3   0.037740 0.953430 0.009200 -0.366764
V3    V     V_3+5 0.007000 0.728750 0.001710 1.444324
V4    V     V_3+5 0.993000 0.228750 0.998290 1.444359
H27   H     H_    0.845864 0.052534 0.297521 0.150623
H28   H     H_    0.154133 0.552561 0.702492 0.150517
C61   C     C_2   0.714637 0.104514 0.120056 0.358829
H29   H     H_    0.714688 0.092670 0.064124 0.085140
O21   O     O_2   0.707893 0.262743 0.145348 -0.543223
C62   C     C_2   0.285357 0.604447 0.879965 0.358772
H30   H     H_    0.285310 0.592572 0.935896 0.085364
O22   O     O_2   0.292094 0.762691 0.854688 -0.543250
C63   C     C_2   0.901354 0.877497 0.630517 0.387234
H31   H     H_    0.877814 0.812208 0.582938 0.052552
O23   O     O_2   0.953465 0.931661 0.631106 -0.517485
C64   C     C_2   0.098592 0.375288 0.369404 0.387221
H32   H     H_    0.122267 0.310593 0.417029 0.052556
O24   O     O_2   0.046285 0.427773 0.368715 -0.517506
H33   H     H_    0.805004 0.953494 0.865938 0.113132
H34   H     H_    0.195001 0.454336 0.134122 0.113154
C65   C     C_2   0.724720 0.716979 0.875167 0.330097
H35   H     H_    0.767042 0.641611 0.873623 0.062567
O25   O     O_2   0.705378 0.724635 0.930660 -0.532395
C66   C     C_2   0.275359 0.218206 0.124666 0.330024
H36   H     H_    0.233056 0.142663 0.126114 0.062551
O26   O     O_2   0.294714 0.226407 0.069191 -0.532516
H37   H     H_    0.677894 0.887592 0.572044 0.105283
H38   H     H_    0.322072 0.386645 0.427962 0.105250
C67   C     C_2   0.779490 0.646025 0.368969 0.369420
H39   H     H_    0.814053 0.740670 0.396466 0.067189
O27   O     O_2   0.765938 0.499841 0.397935 -0.537562
C68   C     C_2   0.220520 0.146071 0.631011 0.369327
H40   H     H_    0.185961 0.240740 0.603517 0.067182
O28   O     O_2   0.234070 0.999882 0.602040 -0.537595

loop_
_geom_bond_atom_site_label_1
_geom_bond_atom_site_label_2
_ccdc_geom_bond_type
C40   C52   T    
O18   V4    S    
C7    C29   A    
C11   C13   A    
C8    C57   S    
C45   C47   S    
C41   C49   S    
C18   C26   A    
O2    C4    A    
C27   H33   S    
C2    O7    A    
C25   H37   S    
C33   H9    S    
C67   H39   S    
C23   C25   A    
C34   H10   S    
C62   H30   S    
O5    C3    A    
C28   H34   S    
C46   C48   S    
O14   V4    S    
C16   C20   A    
C19   C21   A    
C5    C29   A    
C34   H22   S    
C10   H6    S    
C43   C67   S    
C44   H24   S    
C42   C50   S    
O15   V3    S    
C7    C27   A    
O20   V3    S    
C37   C45   S    
O12   C60   A    
O11   C59   A    
O13   C57   A    
C38   H16   S    
C13   C65   S    
O20   V4    S    
H3    C23   S    
C15   C17   A    
O16   C60   A    
C36   C38   S    
C19   C27   A    
C9    C31   A    
C10   C32   A    
C48   H26   S    
C50   H18   S    
C44   C68   S    
C57   O18   A    
C49   H17   S    
O6    V2    S    
C22   C24   A    
C46   C52   S    
C38   H14   S    
O19   V3    S    
C3    C32   S    
C4    C31   S    
C49   C61   S    
C6    C30   A    
C53   C55   T    
C11   H7    S    
C37   H13   S    
C63   O23   D    
O15   C59   A    
C48   C50   S    
C39   C51   T    
C44   C46   S    
C43   C45   S    
O5    V1    S    
C33   C41   S    
C14   C66   S    
C58   O17   A    
C16   C18   A    
O4    V2    S    
C66   O26   D    
C65   O25   D    
O13   V3    S    
C34   C42   S    
O6    C4    A    
H4    C24   S    
C56   C59   S    
C45   C51   S    
C43   H23   S    
O1    V2    S    
C5    C21   A    
O2    V1    S    
C47   C49   S    
C35   C41   S    
C68   O28   D    
C6    C64   S    
C41   C53   S    
C47   H19   S    
C2    C39   S    
C54   C56   T    
O9    V1    S    
C33   H21   S    
C17   C31   A    
O19   V4    S    
C36   H12   S    
C20   C28   A    
O4    C2    A    
C18   C32   A    
C64   O24   D    
C65   H35   S    
C33   C43   S    
C1    C40   S    
O3    V1    S    
C38   C46   S    
C61   H29   S    
C67   O27   D    
C48   H20   S    
C35   H27   S    
C10   C12   A    
C50   C62   S    
C37   H15   S    
O3    C1    A    
O11   V4    S    
C63   H31   S    
H1    C29   S    
C9    C11   A    
O12   V3    S    
C36   C42   S    
C55   C60   S    
O17   V3    S    
C26   H38   S    
C8    C30   A    
C35   C37   S    
C66   H36   S    
C6    C22   A    
C17   C25   A    
C12   C14   A    
C21   C23   A    
O8    V2    S    
C20   C22   A    
C14   C16   A    
C12   H8    S    
C47   H25   S    
C8    C28   A    
C35   H11   S    
C15   C19   A    
C24   C26   A    
C62   O22   D    
C7    C58   S    
O10   V2    S    
O7    V1    S    
C42   C54   S    
O14   C58   A    
C9    H5    S    
O16   V4    S    
C68   H40   S    
C5    C63   S    
C1    O8    A    
C34   C44   S    
C13   C15   A    
O9    V2    S    
O10   V1    S    
O1    C3    A    
C64   H32   S    
C36   H28   S    
H2    C30   S    
C61   O21   D    
