data_mof_unit_33626.cif
_audit_creation_date              2012-12-11T15:55:40-0500
_audit_creation_method            fapswitch 2.2
_symmetry_space_group_name_H-M    P1
_symmetry_Int_Tables_number       1
_space_group_crystal_system       triclinic
_cell_length_a                    6.936374
_cell_length_b                    14.538607
_cell_length_c                    16.101928
_cell_angle_alpha                 90.049455
_cell_angle_beta                  90.139372
_cell_angle_gamma                 90.012174
_cell_volume                      1623.79695425

loop_
_atom_site_label
_atom_site_type_symbol
_atom_type_description
_atom_site_fract_x
_atom_site_fract_y
_atom_site_fract_z
_atom_type_partial_charge
O1    O     O_R   0.505680 0.583900 0.413320 -0.540081
O2    O     O_R   0.176010 0.594950 0.586080 -0.541788
O3    O     O_R   0.005680 0.416100 0.586680 -0.537876
C1    C     C_R   0.345189 0.617422 0.614829 0.684298
O4    O     O_R   0.175960 0.594930 0.413930 -0.530445
O5    O     O_R   0.005640 0.416080 0.413300 -0.544791
C2    C     C_R   0.344448 0.618366 0.385803 0.719313
O6    O     O_R   0.505720 0.583920 0.586700 -0.544037
O7    O     O_3   0.339190 0.441320 0.500000 -0.365330
V1    V     V_3+5 0.064350 0.510890 0.500000 1.420020
O8    O     O_R   0.675920 0.405050 0.413920 -0.515562
C3    C     C_R   0.844295 0.383706 0.384211 0.705159
O9    O     O_R   0.675960 0.405070 0.586070 -0.547183
C4    C     C_R   0.844916 0.383182 0.614757 0.693319
V2    V     V_3+5 0.564340 0.489110 0.500000 1.424444
O10   O     O_3   0.839370 0.558680 0.500000 -0.370300
C5    C     C_R   0.015691 0.262564 0.699128 0.046807
C6    C     C_R   0.854544 0.317462 0.684571 -0.088642
C7    C     C_R   0.702102 0.308186 0.742458 -0.185880
H1    H     H_    0.574887 0.350848 0.737013 0.119819
C8    C     C_R   0.713764 0.244004 0.808897 -0.187831
H2    H     H_    0.594855 0.239223 0.852081 0.123413
C9    C     C_R   0.878181 0.187295 0.819437 -0.119011
C10   C     C_R   0.026829 0.201200 0.762923 0.054723
C11   C     C_3   0.212294 0.161516 0.733199 0.139114
C12   C     C_3   0.198714 0.230600 0.660316 -0.453934
H3    H     H_    0.332504 0.173426 0.777515 0.121995
H4    H     H_    0.173767 0.198382 0.598562 0.170681
H5    H     H_    0.311816 0.284546 0.661545 0.162801
C13   C     C_R   0.036760 0.202024 0.235858 -0.172912
H6    H     H_    0.169758 0.164024 0.227905 0.123182
C14   C     C_R   0.023192 0.265620 0.300992 -0.227885
H7    H     H_    0.145888 0.274273 0.341970 0.145637
C15   C     C_R   0.853348 0.316578 0.314045 -0.073687
C16   C     C_R   0.695453 0.302438 0.259266 0.296173
C17   C     C_R   0.708762 0.236202 0.195800 -0.223821
H8    H     H_    0.586593 0.226031 0.154721 0.123632
C18   C     C_R   0.879127 0.186068 0.182949 -0.071138
C19   C     C_R   0.188223 0.725286 0.716862 -0.163304
H9    H     H_    0.047555 0.706794 0.692803 0.118596
C20   C     C_R   0.199182 0.788787 0.782143 -0.144704
H10   H     H_    0.066484 0.817499 0.806133 0.123054
C21   C     C_R   0.378624 0.814888 0.815810 -0.047301
C22   C     C_R   0.546846 0.776147 0.781999 -0.168543
H11   H     H_    0.687533 0.794806 0.805930 0.119059
C23   C     C_R   0.535886 0.712618 0.716745 -0.156117
H12   H     H_    0.668631 0.684088 0.692623 0.119671
C24   C     C_R   0.356398 0.686119 0.683377 -0.046396
C25   C     C_R   0.197405 0.748808 0.300441 0.289451
C26   C     C_R   0.211168 0.810580 0.233223 -0.191101
H13   H     H_    0.090337 0.854753 0.218580 0.130756
C27   C     C_R   0.379201 0.816424 0.184973 -0.094137
C28   C     C_R   0.534739 0.758634 0.204286 -0.163702
H14   H     H_    0.666305 0.761300 0.168276 0.130188
C29   C     C_R   0.520887 0.694990 0.269091 -0.205105
H15   H     H_    0.641350 0.649559 0.280247 0.121584
C30   C     C_R   0.353208 0.688356 0.317801 -0.108817
O11   O     O_R   0.229200 0.915950 0.913350 -0.534114
O12   O     O_R   0.559090 0.905000 0.086080 -0.543521
O13   O     O_R   0.729280 0.083880 0.086680 -0.541222
C31   C     C_R   0.390325 0.883201 0.115234 0.698461
O14   O     O_R   0.558920 0.904980 0.913920 -0.546534
O15   O     O_R   0.729110 0.083860 0.913300 -0.543088
C32   C     C_R   0.389783 0.882909 0.884869 0.704495
O16   O     O_R   0.229360 0.915970 0.086730 -0.542588
O17   O     O_3   0.395680 0.058580 0.000030 -0.371218
V3    V     V_3+5 0.670570 0.989070 0.999990 1.393781
O18   O     O_R   0.058820 0.094950 0.913870 -0.535344
C33   C     C_R   0.889656 0.117278 0.885620 0.716708
O19   O     O_R   0.058990 0.094970 0.086020 -0.545289
C34   C     C_R   0.890200 0.117114 0.114893 0.694002
V4    V     V_3+5 0.170560 0.010930 0.999930 1.411783
O20   O     O_3   0.895590 0.941310 0.999960 -0.371487
N1    N     N_2   0.026746 0.745637 0.349597 -0.506852
H16   H     H_    0.934637 0.692955 0.333679 0.255732
C35   C     C_3   0.931123 0.831306 0.369565 -0.554077
H17   H     H_    0.829966 0.819706 0.421842 0.203566
H18   H     H_    0.846507 0.856333 0.315493 0.187449
H19   H     H_    0.038081 0.884094 0.388947 0.199697
N2    N     N_2   0.191120 0.066250 0.707638 -0.502361
H20   H     H_    0.075727 0.053073 0.668779 0.259987
C36   C     C_3   0.367974 0.022374 0.681688 -0.538472
H21   H     H_    0.339788 0.948773 0.667787 0.202408
H22   H     H_    0.477610 0.026219 0.732038 0.198427
H23   H     H_    0.424647 0.056106 0.624867 0.192655
N3    N     N_2   0.524310 0.355902 0.265751 -0.511562
H24   H     H_    0.402085 0.321482 0.246631 0.247885
C37   C     C_3   0.537956 0.445703 0.227656 -0.521742
H25   H     H_    0.556920 0.438709 0.159414 0.179902
H26   H     H_    0.661286 0.484858 0.253907 0.180964
H27   H     H_    0.403557 0.484894 0.239774 0.186043

loop_
_geom_bond_atom_site_label_1
_geom_bond_atom_site_label_2
_ccdc_geom_bond_type
C29   H15   S    
C11   N2    S    
C20   H10   S    
C4    C6    S    
C16   C17   A    
C35   H19   S    
C1    O6    A    
C19   C20   A    
C28   H14   S    
C22   H11   S    
N1    C35   S    
O14   V3    S    
C36   H23   S    
C5    C12   S    
C17   H8    S    
C7    C8    A    
C35   H18   S    
C6    C7    A    
C27   C31   S    
O5    C3    A    
C13   H6    S    
C16   N3    S    
N3    C37   S    
V2    O10   S    
C25   C30   A    
C13   C18   A    
C15   C16   A    
C9    C33   S    
O14   C32   A    
O12   V3    S    
C18   C34   S    
O8    V2    S    
O17   V4    S    
O15   C33   A    
O13   V3    S    
O18   C33   A    
C26   C27   A    
C9    C10   A    
O19   C34   A    
V3    O20   S    
O7    V1    S    
O17   V3    S    
O9    C4    A    
C20   C21   A    
C22   C23   A    
C21   C32   S    
C26   H13   S    
C23   C24   A    
C28   C29   A    
O11   C32   A    
O15   V3    S    
O12   C31   A    
C5    C10   A    
N1    H16   S    
C10   C11   S    
N2    C36   S    
C19   H9    S    
O4    C2    A    
N3    H24   S    
N2    H20   S    
O13   C34   A    
C11   C12   S    
C14   C15   A    
O2    C1    A    
C21   C22   A    
C37   H27   S    
O18   V4    S    
C5    C6    A    
C35   H17   S    
O3    C4    A    
O1    V2    S    
C37   H26   S    
C36   H21   S    
O6    V2    S    
C36   H22   S    
C29   C30   A    
O9    V2    S    
C3    C15   S    
O2    V1    S    
C27   C28   A    
C1    C24   S    
C23   H12   S    
O1    C2    A    
V4    O20   S    
O5    V1    S    
O8    C3    A    
C11   H3    S    
O16   V4    S    
C12   H4    S    
C14   H7    S    
C7    H1    S    
C8    C9    A    
O7    V2    S    
O4    V1    S    
O3    V1    S    
V1    O10   S    
C13   C14   A    
O11   V4    S    
C17   C18   A    
C31   O16   A    
C37   H25   S    
C12   H5    S    
C25   C26   A    
C25   N1    S    
O19   V4    S    
C8    H2    S    
C2    C30   S    
C19   C24   A    
