data_mof_unit_26871.cif
_audit_creation_date              2012-12-11T17:14:12-0500
_audit_creation_method            fapswitch 2.2
_symmetry_space_group_name_H-M    P1
_symmetry_Int_Tables_number       1
_space_group_crystal_system       triclinic
_cell_length_a                    18.254414
_cell_length_b                    7.169277
_cell_length_c                    12.948954
_cell_angle_alpha                 89.999845
_cell_angle_beta                  71.902863
_cell_angle_gamma                 90.000068
_cell_volume                      1610.81010755

loop_
_atom_site_label
_atom_site_type_symbol
_atom_type_description
_atom_site_fract_x
_atom_site_fract_y
_atom_site_fract_z
_atom_type_partial_charge
O1    O     O_R   0.453880 0.506200 0.150010 -0.537776
O2    O     O_R   0.546120 0.006200 0.849990 -0.537778
O3    O     O_R   0.604080 0.177770 0.007280 -0.543437
O4    O     O_R   0.395920 0.677770 0.992720 -0.543438
C1    C     C_R   0.635664 0.344521 0.002438 0.728618
C2    C     C_R   0.364335 0.844521 0.997564 0.728625
O5    O     O_R   0.458010 0.176640 0.159130 -0.547052
O6    O     O_R   0.541990 0.676640 0.840870 -0.547048
O7    O     O_R   0.399010 0.004010 0.002930 -0.531065
O8    O     O_R   0.600990 0.504010 0.997070 -0.531063
C3    C     C_R   0.440622 0.344750 0.202098 0.695972
C4    C     C_R   0.559379 0.844751 0.797902 0.695972
O9    O     O_3   0.480810 0.338440 0.948570 -0.380504
O10   O     O_3   0.519190 0.838440 0.051430 -0.380505
V1    V     V_3+5 0.503560 0.064490 0.009540 1.347669
V2    V     V_3+5 0.496440 0.564490 0.990460 1.347674
C5    C     C_R   0.581774 0.843955 0.494395 0.042316
C6    C     C_R   0.418223 0.343956 0.505605 0.042318
C7    C     C_R   0.594862 0.851547 0.677916 -0.178467
C8    C     C_R   0.405137 0.351545 0.322083 -0.178460
C9    C     C_R   0.953746 0.800268 0.384969 -0.226457
C10   C     C_R   0.046252 0.300268 0.615032 -0.226456
C11   C     C_R   0.918417 0.740970 0.492276 0.391857
C12   C     C_R   0.081580 0.240970 0.507725 0.391850
C13   C     C_R   0.838033 0.742909 0.534753 -0.178912
C14   C     C_R   0.161965 0.242914 0.465247 -0.178928
C15   C     C_R   0.791845 0.814259 0.474403 0.019066
C16   C     C_R   0.208152 0.314268 0.525595 0.019085
C17   C     C_R   0.827633 0.851474 0.363377 0.018095
C18   C     C_R   0.172365 0.351484 0.636621 0.018100
C19   C     C_R   0.710495 0.838589 0.519661 0.029663
C20   C     C_R   0.289503 0.338593 0.480337 0.029656
C21   C     C_R   0.663953 0.834251 0.448201 -0.011544
C22   C     C_R   0.336044 0.334255 0.551797 -0.011548
C23   C     C_R   0.703195 0.830180 0.333442 0.090406
C24   C     C_R   0.296802 0.330189 0.666557 0.090404
C25   C     C_R   0.781919 0.866715 0.295571 -0.184750
C26   C     C_R   0.218079 0.366727 0.704427 -0.184754
C27   C     C_R   0.675291 0.879890 0.632167 -0.017619
C28   C     C_R   0.324708 0.379886 0.367829 -0.017621
C29   C     C_R   0.548367 0.830285 0.608732 0.250410
C30   C     C_R   0.451631 0.330284 0.391268 0.250406
C31   C     C_R   0.908811 0.851824 0.319638 -0.103069
C32   C     C_R   0.091187 0.351827 0.680361 -0.103066
H1    H     H_    0.015920 0.794616 0.350168 0.123451
H2    H     H_    0.984078 0.294612 0.649834 0.123449
H3    H     H_    0.812042 0.681627 0.613612 0.134275
H4    H     H_    0.187956 0.181634 0.386388 0.134280
H5    H     H_    0.808783 0.881592 0.209034 0.133345
H6    H     H_    0.191215 0.381608 0.790964 0.133347
C33   C     C_1   0.216506 0.858977 0.999290 -0.185211
C34   C     C_1   0.783494 0.358976 0.000712 -0.185183
C35   C     C_1   0.283885 0.852707 0.997924 -0.223147
C36   C     C_1   0.716114 0.352707 0.002078 -0.223167
O11   O     O_R   0.899030 0.205490 0.002790 -0.537368
O12   O     O_R   0.100970 0.705490 0.997210 -0.537368
O13   O     O_R   0.042000 0.536370 0.840840 -0.534703
O14   O     O_R   0.958000 0.036370 0.159160 -0.534703
C37   C     C_R   0.053908 0.367185 0.797984 0.702865
C38   C     C_R   0.946091 0.867184 0.202016 0.702869
O15   O     O_R   0.895930 0.535070 0.992690 -0.541030
O16   O     O_R   0.104070 0.035070 0.007310 -0.541029
O17   O     O_R   0.953870 0.707520 0.150040 -0.538107
O18   O     O_R   0.046130 0.207520 0.849960 -0.538107
C39   C     C_R   0.864204 0.366847 0.999061 0.728175
C40   C     C_R   0.135795 0.866847 0.000940 0.728175
O19   O     O_3   0.019200 0.374340 0.051340 -0.375187
O20   O     O_3   0.980800 0.874340 0.948660 -0.375188
V3    V     V_3+5 0.996440 0.648350 0.990470 1.427527
V4    V     V_3+5 0.003560 0.148350 0.009530 1.427527
O21   O     O_3   0.468598 0.822173 0.649524 -0.681588
H7    H     H_    0.450799 0.815358 0.729645 0.267418
O22   O     O_3   0.531400 0.322173 0.350478 -0.681586
H8    H     H_    0.549200 0.315354 0.270356 0.267418
C41   C     C_3   0.670982 0.758812 0.246012 -0.373880
C42   C     C_3   0.670454 0.909812 0.160949 -0.309193
C43   C     C_3   0.723786 0.860198 0.047438 -0.680684
H9    H     H_    0.723225 0.971708 0.988670 0.217316
H10   H     H_    0.784029 0.841413 0.047625 0.218848
H11   H     H_    0.704005 0.730569 0.018487 0.232696
H12   H     H_    0.611019 0.925095 0.157058 0.212542
H13   H     H_    0.687562 0.048329 0.184632 0.192213
H14   H     H_    0.706987 0.638057 0.205749 0.186518
H15   H     H_    0.614233 0.695454 0.279414 0.176664
C44   C     C_3   0.329014 0.258817 0.753988 -0.373878
C45   C     C_3   0.329543 0.409814 0.839051 -0.309195
C46   C     C_3   0.276211 0.360200 0.952562 -0.680688
H16   H     H_    0.276773 0.471708 0.011330 0.217310
H17   H     H_    0.215967 0.341417 0.952375 0.218852
H18   H     H_    0.295991 0.230568 0.981512 0.232697
H19   H     H_    0.388978 0.425095 0.842942 0.212539
H20   H     H_    0.312435 0.548332 0.815368 0.192214
H21   H     H_    0.293007 0.138064 0.794251 0.186517
H22   H     H_    0.385762 0.195456 0.720587 0.176665
C47   C     C_3   0.529753 0.917002 0.430083 -0.318326
C48   C     C_3   0.470674 0.781669 0.410403 -0.375587
C49   C     C_3   0.429954 0.862859 0.334936 -0.720549
H23   H     H_    0.391850 0.979395 0.374895 0.226226
H24   H     H_    0.473408 0.908744 0.259223 0.257412
H25   H     H_    0.394299 0.754430 0.313325 0.227629
H26   H     H_    0.500024 0.656275 0.371115 0.225406
H27   H     H_    0.425915 0.745523 0.487811 0.242483
H28   H     H_    0.494126 0.029133 0.476639 0.227237
H29   H     H_    0.564196 0.983315 0.353668 0.197813
C50   C     C_3   0.470244 0.417003 0.569917 -0.318327
C51   C     C_3   0.529321 0.281669 0.589602 -0.375594
C52   C     C_3   0.570035 0.362857 0.665076 -0.720530
H30   H     H_    0.608143 0.479387 0.625119 0.226218
H31   H     H_    0.526577 0.408751 0.740783 0.257409
H32   H     H_    0.605683 0.254424 0.686698 0.227621
H33   H     H_    0.499969 0.156272 0.628886 0.225407
H34   H     H_    0.574083 0.245525 0.512196 0.242480
H35   H     H_    0.505873 0.529130 0.523360 0.227236
H36   H     H_    0.435800 0.483320 0.646330 0.197815
C53   C     C_3   0.719954 0.979319 0.699934 -0.349448
C54   C     C_3   0.768801 0.146359 0.640690 -0.295911
C55   C     C_3   0.791615 0.274374 0.719733 -0.787785
H37   H     H_    0.740147 0.349582 0.771562 0.225436
H38   H     H_    0.818221 0.192473 0.771602 0.234206
H39   H     H_    0.834322 0.378387 0.673716 0.231095
H40   H     H_    0.822859 0.098276 0.580398 0.208000
H41   H     H_    0.736612 0.228939 0.596457 0.201293
H42   H     H_    0.680064 0.036707 0.775554 0.192967
H43   H     H_    0.755608 0.881525 0.729743 0.160493
C56   C     C_3   0.280046 0.479311 0.300059 -0.349467
C57   C     C_3   0.231195 0.646343 0.359301 -0.295894
C58   C     C_3   0.208429 0.774439 0.280247 -0.787722
H44   H     H_    0.259914 0.849692 0.228485 0.225412
H45   H     H_    0.181864 0.692590 0.228302 0.234194
H46   H     H_    0.165701 0.878413 0.326261 0.231086
H47   H     H_    0.177117 0.598248 0.419548 0.207982
H48   H     H_    0.263364 0.728869 0.403589 0.201298
H49   H     H_    0.319938 0.536701 0.224441 0.192984
H50   H     H_    0.244396 0.381513 0.270246 0.160475
O23   O     O_3   0.960586 0.676426 0.556730 -0.650945
H51   H     H_    0.016214 0.683879 0.515167 0.293673
O24   O     O_3   0.039411 0.176423 0.443272 -0.650945
H52   H     H_    0.983784 0.183872 0.484836 0.293680

loop_
_geom_bond_atom_site_label_1
_geom_bond_atom_site_label_2
_ccdc_geom_bond_type
C56   H50   S    
C33   C35   T    
C46   H16   S    
C57   C58   S    
C48   H27   S    
C15   C17   A    
O22   H8    S    
C47   C48   S    
O1    C3    A    
O2    C4    A    
C2    O7    A    
C49   H23   S    
O23   H51   S    
C51   H34   S    
C43   H9    S    
O5    C3    A    
C23   C41   S    
C37   O18   A    
C54   H41   S    
C38   O17   A    
C50   H35   S    
C23   C25   A    
C12   C14   A    
C45   H19   S    
C6    C30   A    
C8    C28   A    
C41   H15   S    
O13   C37   A    
C51   C52   S    
C32   C37   S    
O15   V3    S    
C53   C54   S    
C54   C55   S    
O16   V4    S    
C49   H24   S    
C9    C31   A    
C44   H21   S    
C10   C32   A    
O17   V3    S    
C47   H28   S    
O20   V3    S    
C52   H30   S    
C19   C21   A    
C5    C47   S    
O18   V4    S    
C13   H3    S    
C14   H4    S    
C29   O21   S    
O5    V1    S    
O6    V2    S    
C48   H26   S    
C17   C31   A    
C52   H31   S    
C18   C32   A    
C5    C21   A    
O11   C39   A    
C34   C36   T    
C9    H1    S    
C51   H33   S    
C43   H10   S    
C3    C8    S    
C53   H42   S    
C54   H40   S    
O16   C40   A    
C15   C19   A    
C50   H36   S    
C16   C20   A    
C42   C43   S    
O4    C2    A    
C55   H39   S    
C42   H13   S    
C45   C46   S    
O14   V4    S    
C44   C45   S    
O19   V3    S    
C33   C40   S    
C20   C22   A    
O4    V2    S    
C41   C42   S    
C58   H45   S    
C25   H5    S    
C44   H22   S    
C1    C36   S    
C57   H48   S    
O6    C4    A    
C48   C49   S    
O1    V2    S    
O2    V1    S    
C6    C22   A    
C7    C27   A    
C31   C38   S    
C10   H2    S    
C27   C53   S    
C9    C11   A    
C56   C57   S    
C24   C44   S    
C52   H32   S    
C10   C12   A    
C46   H18   S    
C2    C35   S    
C58   H44   S    
C49   H25   S    
O3    V1    S    
C47   H29   S    
O24   H52   S    
C43   H11   S    
C56   H49   S    
C30   O22   S    
C53   H43   S    
O3    C1    A    
C42   H12   S    
C8    C30   A    
C26   H6    S    
C12   O24   S    
C13   C15   A    
C50   C51   S    
C14   C16   A    
C11   O23   S    
O19   V4    S    
C55   H38   S    
O7    V1    S    
C6    C50   S    
C1    O8    A    
O8    V2    S    
C55   H37   S    
C41   H14   S    
C57   H47   S    
O12   C40   A    
C28   C56   S    
C4    C7    S    
C24   C26   A    
C21   C23   A    
C16   C18   A    
C22   C24   A    
C20   C28   A    
C5    C29   A    
C58   H46   S    
O11   V4    S    
O15   C39   A    
O21   H7    S    
C11   C13   A    
O20   V4    S    
O12   V3    S    
O9    V2    S    
C17   C25   A    
C19   C27   A    
C46   H17   S    
O10   V1    S    
C45   H20   S    
C18   C26   A    
O13   V3    S    
O14   C38   A    
C34   C39   S    
C7    C29   A    
