data_mof_unit_61223.cif
_audit_creation_date              2013-03-05T16:14:00-0500
_audit_creation_method            fapswitch 2.2
_symmetry_space_group_name_H-M    P1
_symmetry_Int_Tables_number       1
_space_group_crystal_system       triclinic
_cell_length_a                    27.792032
_cell_length_b                    14.653377
_cell_length_c                    15.91051
_cell_angle_alpha                 90.011203
_cell_angle_beta                  90.072425
_cell_angle_gamma                 90.083324
_cell_volume                      6479.49726026

loop_
_atom_site_label
_atom_site_type_symbol
_atom_site_description
_atom_site_fract_x
_atom_site_fract_y
_atom_site_fract_z
_atom_type_partial_charge
O1    O     O_R   0.500050 0.424030 0.620640 -0.568164
O2    O     O_R   0.500050 0.575970 0.620640 -0.567448
C1    C     C_R   0.500126 0.500008 0.660230 0.830002
O3    O     O_R   0.569790 0.424080 0.500060 -0.582216
O4    O     O_R   0.569790 0.575920 0.500060 -0.580966
C2    C     C_R   0.592887 0.500099 0.500002 0.814619
Cu1   Cu    Cu3+1 0.500060 0.410080 0.500090 1.015720
Cu2   Cu    Cu3+1 0.500060 0.589920 0.500090 1.018603
O5    O     O_R   0.500050 0.424100 0.379510 -0.560006
O6    O     O_R   0.500050 0.575900 0.379510 -0.559810
O7    O     O_R   0.430320 0.424060 0.500090 -0.569025
O8    O     O_R   0.430320 0.575940 0.500090 -0.568651
C3    C     C_R   0.499995 0.499993 0.339923 0.831798
C4    C     C_R   0.407238 0.499959 0.500164 0.827456
C5    C     C_R   0.822326 0.500055 0.575052 0.567352
O9    O     O_2   0.797316 0.495987 0.647612 -0.516096
N1    N     N_R   0.798377 0.502230 0.499987 -0.464894
C6    C     C_R   0.822491 0.506551 0.425253 0.588621
C7    C     C_R   0.721331 0.584934 0.500281 0.205900
C8    C     C_R   0.671127 0.583826 0.500290 -0.219873
C9    C     C_R   0.671727 0.418299 0.499276 -0.193292
C10   C     C_R   0.721901 0.419261 0.499236 -0.129039
C11   C     C_R   0.746842 0.502290 0.499743 0.308412
C12   C     C_R   0.898450 0.506622 0.500599 -0.043646
C13   C     C_R   0.872802 0.502777 0.576843 -0.015070
C14   C     C_R   0.897949 0.502290 0.652959 -0.123298
C15   C     C_R   0.872995 0.509150 0.424166 -0.066801
C16   C     C_R   0.645889 0.500634 0.499838 -0.074035
H1    H     H_    0.653220 0.353213 0.498899 0.169958
H2    H     H_    0.879084 0.498387 0.712399 0.195160
C17   C     C_R   0.354260 0.500038 0.500390 -0.090921
C18   C     C_R   0.025544 0.519405 0.578368 0.043345
C19   C     C_R   0.025399 0.494565 0.425371 0.048379
C20   C     C_R   0.050739 0.506197 0.501984 0.079143
C21   C     C_R   0.052354 0.538193 0.651977 -0.190064
C22   C     C_R   0.102418 0.539251 0.650920 -0.116288
C23   C     C_R   0.127513 0.520323 0.576824 -0.027558
C24   C     C_R   0.101733 0.502840 0.502319 -0.043547
C25   C     C_R   0.126928 0.481060 0.428256 -0.028948
C26   C     C_R   0.177411 0.479970 0.429489 0.570534
N2    N     N_R   0.201757 0.499835 0.501993 -0.466094
C27   C     C_R   0.177998 0.518716 0.575197 0.575982
C28   C     C_R   0.278420 0.418133 0.507347 -0.113971
C29   C     C_R   0.328574 0.417706 0.506818 -0.173074
C30   C     C_R   0.328903 0.582667 0.494147 -0.206827
C31   C     C_R   0.278692 0.583238 0.494337 0.211453
C32   C     C_R   0.253307 0.500606 0.501291 0.290587
O10   O     O_2   0.203200 0.535919 0.646022 -0.500077
C33   C     C_R   0.974621 0.512158 0.578592 0.056094
C34   C     C_R   0.949461 0.508559 0.500833 0.052437
C35   C     C_R   0.974865 0.507940 0.423367 -0.012935
C36   C     C_R   0.947893 0.507352 0.653992 -0.189110
H3    H     H_    0.347189 0.353048 0.511736 0.194446
H4    H     H_    0.258955 0.354319 0.512576 0.166346
H5    H     H_    0.121395 0.554274 0.708822 0.197615
H6    H     H_    0.035530 0.554719 0.711068 0.152657
H7    H     H_    0.964743 0.504575 0.715007 0.150573
O11   O     O_2   0.797615 0.508901 0.352380 -0.501383
C37   C     C_R   0.898222 0.519216 0.348827 -0.138269
H8    H     H_    0.878901 0.529029 0.290357 0.213080
C38   C     C_R   0.051174 0.463447 0.354808 -0.155813
C39   C     C_R   0.101164 0.458654 0.355534 -0.117173
O12   O     O_2   0.202018 0.459971 0.358793 -0.507059
C40   C     C_R   0.948354 0.522344 0.347822 0.126308
H9    H     H_    0.032904 0.438555 0.299518 0.179541
H10   H     H_    0.347975 0.646879 0.488686 0.199351
H11   H     H_    0.119474 0.436477 0.299061 0.198772
C41   C     C_3   0.477032 0.409077 0.951933 -0.005139
C42   C     C_3   0.473485 0.587294 0.951958 -0.004644
C43   C     C_3   0.469144 0.582032 0.048935 -0.073880
C44   C     C_3   0.472474 0.413698 0.048906 -0.072484
H12   H     H_    0.433671 0.421135 0.064340 0.176729
H13   H     H_    0.430750 0.568904 0.064396 0.176489
C45   C     C_1   0.499825 0.499983 0.250545 -0.087991
C46   C     C_3   0.499101 0.499959 0.917060 0.051315
C47   C     C_3   0.499840 0.500009 0.083274 0.012816
C48   C     C_3   0.553062 0.503946 0.047148 0.323721
C49   C     C_3   0.551695 0.503872 0.949293 -0.520684
C50   C     C_1   0.499743 0.499990 0.175191 0.068862
C51   C     C_1   0.499647 0.500001 0.825034 0.036420
C52   C     C_1   0.499974 0.500019 0.749656 -0.121507
H14   H     H_    0.572213 0.444938 0.923809 0.206737
H15   H     H_    0.569801 0.565700 0.923854 0.207014
C53   C     C_3   0.499390 0.946697 0.407330 -0.329246
C54   C     C_3   0.499406 0.053259 0.407334 -0.329001
C55   C     C_3   0.540374 0.946916 0.547453 -0.408813
C56   C     C_3   0.540368 0.053312 0.547474 -0.412258
H16   H     H_    0.532725 0.078368 0.376204 0.179646
H17   H     H_    0.532692 0.921728 0.376166 0.180926
H18   H     H_    0.539612 0.921707 0.613412 0.178627
H19   H     H_    0.539586 0.078511 0.613443 0.178338
H20   H     H_    0.574432 0.921912 0.518884 0.194453
H21   H     H_    0.574430 0.078516 0.518941 0.191039
N3    N     N_1   0.499020 0.275030 0.498610 -0.139863
N4    N     N_1   0.499020 0.724970 0.498610 -0.139127
C57   C     C_3   0.496644 0.908015 0.498135 0.096222
C58   C     C_3   0.496645 0.091958 0.498142 0.100228
C59   C     C_3   0.449960 0.053935 0.540349 0.020486
C60   C     C_3   0.449964 0.945784 0.540365 0.023931
C61   C     C_1   0.498112 0.195115 0.498275 0.154260
C62   C     C_1   0.498113 0.804876 0.498268 0.156149
H22   H     H_    0.450244 0.923269 0.607184 0.123443
H23   H     H_    0.450214 0.076508 0.607161 0.124061
H24   H     H_    0.468549 0.921326 0.369354 0.210230
H25   H     H_    0.468586 0.078482 0.369328 0.210694
I1    I     I_    0.757246 0.712526 0.501496 -0.267466
I2    I     I_    0.242700 0.709926 0.482459 -0.193790
I3    I     I_    0.977164 0.576711 0.233780 -0.292439
I4    I     I_    0.410222 0.365848 0.894635 -0.236146
I5    I     I_    0.405139 0.620437 0.894701 -0.225345
H26   H     H_    0.496201 0.647429 0.936101 0.177658
H27   H     H_    0.502081 0.352497 0.936091 0.177909
H28   H     H_    0.741502 0.355452 0.498857 0.153906
I6    I     I_    0.476373 0.714316 0.108050 -0.250218
I7    I     I_    0.484879 0.282871 0.108014 -0.254249
I8    I     I_    0.599078 0.394336 0.089526 -0.241060
I9    I     I_    0.594629 0.619986 0.089615 -0.235519
I10   I     I_    0.385817 0.879196 0.491357 -0.251384
I11   I     I_    0.385828 0.120073 0.491234 -0.278346
H29   H     H_    0.651974 0.648124 0.500760 0.179490

loop_
_geom_bond_atom_site_label_1
_geom_bond_atom_site_label_2
_geom_bond_distance
_ccdc_geom_bond_type
C56   H19   1.112839 S    
N2    C27   1.368017 A    
C21   C22   1.391581 A    
C12   C15   1.406646 A    
C4    C17   1.472380 S    
C58   C59   1.563677 S    
Cu1   Cu2   2.635262 S    
C48   C49   1.557335 S    
C43   I6    2.163348 S    
C41   C46   1.567264 S    
Cu1   O7    1.949311 S    
C37   C40   1.394094 A    
N1    C11   1.432256 S    
C26   O12   1.349505 S    
C39   H11   1.083242 S    
C22   C23   1.398458 A    
C48   I9    2.161994 S    
C41   H27   1.112477 S    
O4    C2    1.283948 A    
O7    C4    1.284733 A    
C5    C13   1.403573 A    
C59   H23   1.113218 S    
C59   C60   1.584778 S    
C57   C60   1.563629 S    
N1    C6    1.367083 A    
C53   C57   1.554004 S    
C23   C27   1.403584 A    
Cu1   N3    1.979243 S    
O5    C3    1.278180 A    
C49   H15   1.112298 S    
C6    O11   1.349636 S    
C10   H28   1.082838 S    
C2    C16   1.473040 S    
C7    C8    1.395342 A    
C1    C52   1.422834 S    
C47   C50   1.462462 S    
C48   I8    2.161977 S    
C46   C51   1.464288 S    
C37   H8    1.083252 S    
O1    Cu1   1.928835 S    
C57   C62   1.511951 S    
C38   C39   1.391217 A    
Cu2   N4    1.979336 S    
O3    Cu1   1.948470 S    
C54   H25   1.111600 S    
C29   H3    1.082945 S    
C40   I3    2.137866 S    
C12   C34   1.417926 A    
C17   C29   1.404740 A    
C6    C15   1.404207 A    
C18   C21   1.414084 A    
C59   I11   2.174507 S    
C53   C54   1.561487 S    
C12   C13   1.408877 A    
O3    C2    1.284841 A    
C55   H18   1.112844 S    
C25   C26   1.403243 A    
C55   C56   1.559068 S    
C8    C16   1.405554 A    
C34   C35   1.421232 A    
C13   C14   1.397506 A    
C30   C31   1.395521 A    
C9    H1    1.082931 S    
O1    C1    1.279057 A    
C18   C20   1.416756 A    
C7    C11   1.404213 A    
C28   C29   1.393952 A    
C23   C24   1.407624 A    
C14   C36   1.389981 A    
C42   I5    2.161541 S    
C49   H14   1.112299 S    
C28   H4    1.082879 S    
N3    C61   1.171272 T    
Cu2   O8    1.948718 S    
C33   C36   1.413526 A    
C31   I2    2.118384 S    
C43   H13   1.111829 S    
C19   C20   1.417133 A    
N2    C32   1.432773 S    
C44   I7    2.163375 S    
C27   O10   1.349565 S    
C47   C48   1.588555 S    
C55   C57   1.553420 S    
C19   C38   1.408650 A    
C26   N2    1.367694 A    
C9    C16   1.404958 A    
O8    C4    1.284154 A    
C14   H2    1.083397 S    
C45   C50   1.198923 T    
C43   C47   1.572554 S    
C53   H24   1.111608 S    
C53   H17   1.112832 S    
C44   C47   1.572541 S    
C8    H29   1.082857 S    
C58   C61   1.512086 S    
C54   H16   1.112837 S    
Cu1   O5    1.929499 S    
C25   C39   1.398695 A    
C31   C32   1.404943 A    
C21   H6    1.078216 S    
C20   C24   1.418152 A    
O2    Cu2   1.928914 S    
C35   C40   1.424933 A    
C51   C52   1.199337 T    
O6    C3    1.278134 A    
O4    Cu2   1.949064 S    
C5    N1    1.366945 A    
C19   C35   1.418636 A    
O2    C1    1.279079 A    
C44   H12   1.111833 S    
C22   H5    1.083359 S    
C15   C37   1.397145 A    
C60   I10   2.174759 S    
C42   H26   1.112477 S    
C24   C25   1.408306 A    
C41   C44   1.549707 S    
C5    O9    1.349607 S    
C56   H21   1.112997 S    
C42   C46   1.567247 S    
C41   I4    2.161518 S    
C42   C43   1.549748 S    
C46   C49   1.549414 S    
C18   C33   1.419092 A    
C54   C58   1.554014 S    
C36   H7    1.078095 S    
C7    I1    2.118215 S    
C38   H9    1.078396 S    
C60   H22   1.113220 S    
C3    C45   1.422040 S    
Cu2   O6    1.929419 S    
C33   C34   1.421287 A    
C17   C30   1.405294 A    
C30   H10   1.082839 S    
C10   C11   1.399396 A    
C55   H20   1.113012 S    
C9    C10   1.394495 A    
C28   C32   1.399726 A    
N4    C62   1.171217 T    
C56   C58   1.553429 S    
