data_mof_unit_66712.cif
_audit_creation_date              2013-03-05T15:39:23-0500
_audit_creation_method            fapswitch 2.2
_symmetry_space_group_name_H-M    P1
_symmetry_Int_Tables_number       1
_space_group_crystal_system       triclinic
_cell_length_a                    21.190434
_cell_length_b                    23.221299
_cell_length_c                    9.162941
_cell_angle_alpha                 90.226974
_cell_angle_beta                  105.351213
_cell_angle_gamma                 90.166139
_cell_volume                      4347.86355843

loop_
_atom_site_label
_atom_site_type_symbol
_atom_site_description
_atom_site_fract_x
_atom_site_fract_y
_atom_site_fract_z
_atom_type_partial_charge
P1    P     P_3+3 0.859590 0.433890 0.993820 0.479496
P2    P     P_3+3 0.859590 0.566110 0.493820 0.438934
P3    P     P_3+3 0.359590 0.933890 0.993820 0.486494
P4    P     P_3+3 0.359590 0.066110 0.493820 0.477712
O1    O     O_2   0.866180 0.413660 0.823810 -0.352720
O2    O     O_2   0.866180 0.586340 0.323810 -0.347324
O3    O     O_2   0.366180 0.913660 0.823810 -0.341616
O4    O     O_2   0.366180 0.086340 0.323810 -0.341511
O5    O     O_3   0.922050 0.469730 0.097400 -0.442661
O6    O     O_3   0.922050 0.530270 0.597400 -0.444715
O7    O     O_3   0.422050 0.969730 0.097400 -0.438209
O8    O     O_3   0.422050 0.030270 0.597400 -0.445317
O9    O     O_3   0.976760 0.360270 0.628090 -0.356254
O10   O     O_3   0.976760 0.639730 0.128090 -0.357150
O11   O     O_3   0.476760 0.860270 0.628090 -0.348943
O12   O     O_3   0.476760 0.139730 0.128090 -0.378358
O13   O     O_2   0.867392 0.316486 0.674471 -0.361654
O14   O     O_2   0.863979 0.682541 0.158805 -0.335546
O15   O     O_2   0.371069 0.811697 0.684208 -0.326511
O16   O     O_2   0.359539 0.176049 0.149951 -0.320027
O17   O     O_3   0.796348 0.485141 0.954995 -0.540540
O18   O     O_3   0.794946 0.515345 0.455372 -0.621976
O19   O     O_3   0.297856 0.986212 0.961428 -0.570672
O20   O     O_3   0.299465 0.011598 0.462086 -0.566143
O21   O     O_3   0.935581 0.236701 0.570053 -0.485416
O22   O     O_3   0.933497 0.758326 0.056008 -0.475194
O23   O     O_3   0.440449 0.737321 0.566730 -0.495665
O24   O     O_3   0.430125 0.260559 0.081824 -0.486929
C1    C     C_3   0.020164 0.158465 0.662233 0.379784
C2    C     C_3   0.994952 0.841261 0.190403 0.385902
C3    C     C_3   0.534137 0.663803 0.633813 0.399039
C4    C     C_3   0.490973 0.339828 0.242938 0.379022
P5    P     P_3+3 0.140130 0.433190 0.695710 0.693241
P6    P     P_3+3 0.140130 0.566810 0.195710 0.687821
P7    P     P_3+3 0.640130 0.933190 0.695710 0.742440
P8    P     P_3+3 0.640130 0.066810 0.195710 0.743094
P9    P     P_3+3 0.087803 0.309998 0.130677 0.615599
P10   P     P_3+3 0.089059 0.686884 0.642517 0.626046
P11   P     P_3+3 0.585954 0.807419 0.120853 0.606998
P12   P     P_3+3 0.584685 0.191988 0.637425 0.597956
O25   O     O_2   0.133470 0.412980 0.865660 -0.200006
O26   O     O_2   0.133470 0.587020 0.365660 -0.217449
O27   O     O_2   0.633470 0.912980 0.865660 -0.214279
O28   O     O_2   0.633470 0.087020 0.365660 -0.234121
O29   O     O_3   0.022720 0.360150 0.061220 -0.224667
O30   O     O_3   0.022720 0.639850 0.561220 -0.238644
O31   O     O_3   0.522720 0.860150 0.061220 -0.232041
O32   O     O_3   0.522720 0.139850 0.561220 -0.224513
O33   O     O_2   0.130253 0.318247 0.019735 -0.214999
O34   O     O_2   0.134473 0.680362 0.537251 -0.332306
O35   O     O_2   0.632630 0.818672 0.019761 -0.254936
O36   O     O_2   0.629969 0.185914 0.530885 -0.349462
O37   O     O_3   0.204221 0.483301 0.777635 -0.580074
O38   O     O_3   0.219064 0.533374 0.259174 -0.501305
O39   O     O_3   0.719376 0.964893 0.764450 -0.513476
O40   O     O_3   0.718227 0.035485 0.224343 -0.500236
O41   O     O_3   0.053261 0.238952 0.078049 -0.564986
O42   O     O_3   0.058262 0.758401 0.614984 -0.557610
O43   O     O_3   0.549336 0.737694 0.055911 -0.557907
O44   O     O_3   0.549424 0.262680 0.601535 -0.577726
C5    C     C_3   0.003990 0.221767 0.150052 0.647336
C6    C     C_3   0.026574 0.775182 0.728159 0.660786
C7    C     C_3   0.491957 0.725131 0.105128 0.649972
C8    C     C_3   0.520460 0.280023 0.719002 0.736706
H1    H     H_    0.030946 0.211222 0.265651 0.028728
H2    H     H_    0.064775 0.786807 0.831436 -0.077067
H3    H     H_    0.511105 0.722221 0.225667 0.034300
H4    H     H_    0.561145 0.284373 0.821554 -0.055948
C9    C     C_3   0.962880 0.165056 0.089804 0.419542
C10   C     C_3   0.982109 0.829449 0.683247 0.443918
C11   C     C_3   0.458893 0.663260 0.073006 0.375061
C12   C     C_3   0.482861 0.340254 0.701774 0.375298
C13   C     C_3   0.233577 0.479720 0.203790 0.963861
C14   C     C_3   0.236771 0.512349 0.683461 0.938806
C15   C     C_3   0.731076 0.981271 0.287083 0.961734
C16   C     C_3   0.731196 0.024602 0.771384 0.937814
C17   C     C_3   0.274977 0.490492 0.095751 0.617349
C18   C     C_3   0.309508 0.494847 0.702725 0.539470
C19   C     C_3   0.805481 0.970998 0.325079 0.492488
C20   C     C_3   0.797173 0.035231 0.732948 0.576582
H5    H     H_    0.250360 0.522654 0.011693 0.033295
H6    H     H_    0.313251 0.447499 0.690010 0.085572
H7    H     H_    0.819558 0.957540 0.221560 0.163238
H8    H     H_    0.802566 0.007798 0.640068 0.160734
Ba1   Ba    Ba6+2 0.999900 0.456810 0.844860 1.749754
Ba2   Ba    Ba6+2 0.999900 0.543190 0.344860 1.752509
Ba3   Ba    Ba6+2 0.499900 0.956810 0.844860 1.774378
Ba4   Ba    Ba6+2 0.499900 0.043190 0.344860 1.759479
C21   C     C_3   0.766383 0.491684 0.798721 0.726864
C22   C     C_3   0.767826 0.502721 0.300045 0.684063
C23   C     C_3   0.266431 0.994935 0.807593 0.715278
C24   C     C_3   0.266049 0.002413 0.309174 0.701578
H9    H     H_    0.801811 0.493472 0.729830 0.056091
H10   H     H_    0.803424 0.504086 0.231681 0.087487
H11   H     H_    0.299450 0.992613 0.732822 0.077860
H12   H     H_    0.297700 0.005961 0.231400 0.073426
C25   C     C_3   0.712739 0.446538 0.733423 0.506008
C26   C     C_3   0.709902 0.542432 0.229581 0.546024
C27   C     C_3   0.207005 0.955332 0.749154 0.485970
C28   C     C_3   0.206409 0.041403 0.258963 0.493990
H13   H     H_    0.670066 0.466729 0.652822 0.072385
H14   H     H_    0.683093 0.553163 0.314571 0.022267
H15   H     H_    0.168058 0.977680 0.663187 0.117318
H16   H     H_    0.167117 0.017937 0.175771 0.111890
O45   O     O_3   0.077880 0.530130 0.092320 -0.325370
O46   O     O_3   0.077880 0.469870 0.592320 -0.299240
O47   O     O_3   0.577880 0.030130 0.092320 -0.315424
O48   O     O_3   0.577880 0.969870 0.592320 -0.313121
P13   P     P_3+3 0.907361 0.685283 0.047931 0.588478
P14   P     P_3+3 0.908291 0.311030 0.559495 0.537803
P15   P     P_3+3 0.407431 0.186598 0.051586 0.568147
P16   P     P_3+3 0.408917 0.810445 0.561997 0.560260
C29   C     C_3   0.004954 0.225220 0.624637 0.813916
C30   C     C_3   0.989578 0.772452 0.174846 0.874065
C31   C     C_3   0.511018 0.730243 0.605674 0.787619
C32   C     C_3   0.476910 0.272101 0.221498 0.903547
C33   C     C_R   0.129492 0.635053 0.930800 0.127778
C34   C     C_R   0.140809 0.369023 0.419499 0.223064
C35   C     C_R   0.623779 0.139861 0.931874 0.125399
C36   C     C_R   0.628233 0.861488 0.421719 0.137183
C37   C     C_R   0.139233 0.681551 0.844430 0.202802
C38   C     C_R   0.149865 0.322099 0.327550 0.104821
C39   C     C_R   0.635730 0.185235 0.842159 0.171768
C40   C     C_R   0.638465 0.814691 0.330731 0.109426
C41   C     C_R   0.184064 0.726421 0.908691 -0.090244
C42   C     C_R   0.195973 0.278612 0.391872 -0.104436
C43   C     C_R   0.683802 0.227806 0.905950 -0.073695
C44   C     C_R   0.684639 0.771556 0.397317 -0.092915
C45   C     C_R   0.222058 0.726182 0.064591 -0.070196
C46   C     C_R   0.225432 0.274659 0.553435 -0.060259
C47   C     C_R   0.721164 0.227338 0.062938 -0.086023
C48   C     C_R   0.719745 0.771025 0.557146 -0.086516
C49   C     C_R   0.211415 0.674495 0.148109 0.288593
C50   C     C_R   0.206188 0.320620 0.644157 0.284860
C51   C     C_R   0.707698 0.177134 0.148464 0.308582
C52   C     C_R   0.705996 0.821334 0.643998 0.305058
C53   C     C_R   0.159190 0.633126 0.087073 -0.023844
C54   C     C_R   0.167233 0.369774 0.579326 -0.003763
C55   C     C_R   0.655170 0.136033 0.088028 0.097516
C56   C     C_R   0.656332 0.864123 0.581535 0.111155
C57   C     C_R   0.800542 0.283619 0.293927 -0.107071
C58   C     C_R   0.801664 0.715695 0.786892 -0.140373
C59   C     C_R   0.300060 0.782923 0.295836 -0.148849
C60   C     C_R   0.313439 0.225627 0.778439 -0.179624
C61   C     C_R   0.852990 0.321740 0.358227 0.301188
C62   C     C_R   0.853073 0.676653 0.848889 0.324554
C63   C     C_R   0.351490 0.821913 0.360783 0.249360
C64   C     C_R   0.355220 0.180664 0.848437 0.346785
C65   C     C_R   0.839490 0.368005 0.108889 0.317610
C66   C     C_R   0.839745 0.631912 0.602205 0.269812
C67   C     C_R   0.337612 0.868488 0.109999 0.325610
C68   C     C_R   0.337365 0.131536 0.603747 0.294709
C69   C     C_R   0.792778 0.324066 0.046207 -0.168512
C70   C     C_R   0.788320 0.672197 0.541383 -0.324302
C71   C     C_R   0.288955 0.825894 0.048676 -0.136787
C72   C     C_R   0.286344 0.172213 0.542578 -0.182967
C73   C     C_R   0.772057 0.278303 0.133573 0.167079
C74   C     C_R   0.770423 0.719849 0.627620 0.107636
C75   C     C_R   0.270930 0.778386 0.135475 0.147785
C76   C     C_R   0.273911 0.223106 0.625017 0.079810
C77   C     C_R   0.870701 0.362936 0.264551 -0.151749
C78   C     C_R   0.872130 0.637119 0.755516 -0.111162
C79   C     C_R   0.369490 0.862517 0.264911 -0.177311
C80   C     C_R   0.369095 0.137145 0.758276 -0.132661
H17   H     H_    0.783108 0.259083 0.373881 0.180817
H18   H     H_    0.786401 0.740653 0.869129 0.194566
H19   H     H_    0.283785 0.756920 0.375009 0.187800
H20   H     H_    0.319002 0.264439 0.843583 0.250047
H21   H     H_    0.776222 0.328046 0.927671 0.194730
H22   H     H_    0.762930 0.662674 0.428072 0.207438
H23   H     H_    0.268318 0.832671 0.932111 0.189829
H24   H     H_    0.257946 0.162245 0.431308 0.220980
Cl1   Cl    Cl    0.037874 0.268023 0.785645 -0.575352
Cl2   Cl    Cl    0.978744 0.740728 0.341195 -0.557229
Cl3   Cl    Cl    0.544861 0.772128 0.768294 -0.576322
Cl4   Cl    Cl    0.443133 0.245578 0.366820 -0.580073
Cl5   Cl    Cl    0.351090 0.522308 0.198264 -0.353026
Cl6   Cl    Cl    0.364796 0.516674 0.873738 -0.597565
Cl7   Cl    Cl    0.852820 0.033650 0.394286 -0.385325
Cl8   Cl    Cl    0.867284 0.015694 0.881078 -0.532193
Cl9   Cl    Cl    0.290645 0.424395 0.011453 -0.423950
Cl10  Cl    Cl    0.343441 0.530475 0.568224 -0.355558
Cl11  Cl    Cl    0.829312 0.916302 0.462445 -0.654641
Cl12  Cl    Cl    0.804083 0.106996 0.675278 -0.507175
Cl13  Cl    Cl    0.731379 0.560857 0.775782 -0.724880
Cl14  Cl    Cl    0.740540 0.429693 0.291279 -0.624504
Cl15  Cl    Cl    0.240019 0.066737 0.793533 -0.699406
Cl16  Cl    Cl    0.237802 0.929796 0.293962 -0.680040
Cl17  Cl    Cl    0.742278 0.393754 0.628520 -0.663626
Cl18  Cl    Cl    0.654565 0.510504 0.069246 -0.582971
Cl19  Cl    Cl    0.230259 0.895597 0.655556 -0.683860
Cl20  Cl    Cl    0.225060 0.103347 0.164717 -0.671164
Cl21  Cl    Cl    0.683676 0.411330 0.874486 -0.626414
Cl22  Cl    Cl    0.736272 0.606767 0.160442 -0.675225
Cl23  Cl    Cl    0.172433 0.931478 0.896085 -0.702227
Cl24  Cl    Cl    0.175748 0.062104 0.414972 -0.724998
N1    N     N_2   0.039325 0.239532 0.514462 -0.165877
H25   H     H_    0.087721 0.227458 0.542080 0.111210
C81   C     C_3   0.036104 0.296673 0.465372 -0.797766
H26   H     H_    0.052669 0.296708 0.369135 0.198192
H27   H     H_    0.062786 0.325194 0.555719 0.269977
H28   H     H_    0.988024 0.309842 0.412406 0.282335
N2    N     N_2   0.047020 0.747230 0.142349 -0.141252
H29   H     H_    0.052933 0.752358 0.036537 0.157153
C82   C     C_3   0.107399 0.743267 0.259156 -0.915106
H30   H     H_    0.146495 0.767781 0.227261 0.224716
H31   H     H_    0.120353 0.697611 0.275056 0.305324
H32   H     H_    0.102819 0.759664 0.367995 0.313102
N3    N     N_2   0.539187 0.751313 0.489204 -0.165941
H33   H     H_    0.588945 0.756707 0.525022 0.090245
C83   C     C_3   0.506063 0.796485 0.397323 -0.843924
H34   H     H_    0.522556 0.804788 0.303532 0.204142
H35   H     H_    0.518838 0.837221 0.452898 0.266959
H36   H     H_    0.456219 0.782822 0.341656 0.270408
N4    N     N_2   0.536352 0.240658 0.231079 -0.112690
H37   H     H_    0.569593 0.239290 0.334124 0.226750
C84   C     C_3   0.562627 0.242215 0.102780 -1.027221
H38   H     H_    0.614311 0.256182 0.137054 0.233065
H39   H     H_    0.534721 0.271784 0.018565 0.294356
H40   H     H_    0.555327 0.199957 0.048687 0.289667
N5    N     N_2   0.030877 0.125167 0.533875 -0.067295
H41   H     H_    0.064477 0.140634 0.480777 0.170950
C85   C     C_3   0.038055 0.063359 0.552606 -0.537678
H42   H     H_    0.048139 0.043292 0.451618 0.226974
H43   H     H_    0.991803 0.044135 0.562848 0.291728
H44   H     H_    0.079047 0.053011 0.652472 0.234597
N6    N     N_2   0.024196 0.867333 0.078108 -0.089442
H45   H     H_    0.066307 0.848740 0.064477 0.161092
C86   C     C_3   0.025434 0.929876 0.069940 -0.573005
H46   H     H_    0.053834 0.943415 0.990488 0.252896
H47   H     H_    0.049054 0.949761 0.181150 0.213996
H48   H     H_    0.975201 0.946939 0.028133 0.310606
N7    N     N_2   0.558201 0.639373 0.510230 -0.081072
H49   H     H_    0.593897 0.662504 0.478653 0.121233
C87   C     C_3   0.571695 0.577803 0.514224 -0.596038
H50   H     H_    0.608266 0.568068 0.451001 0.187007
H51   H     H_    0.526287 0.553514 0.460251 0.292976
H52   H     H_    0.591449 0.562345 0.631889 0.270819
N8    N     N_2   0.519328 0.366769 0.130171 -0.090498
H53   H     H_    0.564747 0.352372 0.127100 0.193279
C88   C     C_3   0.517416 0.429313 0.119485 -0.479117
H54   H     H_    0.544948 0.443311 0.038918 0.260001
H55   H     H_    0.539737 0.449962 0.230600 0.189714
H56   H     H_    0.466605 0.444807 0.074566 0.320449
N9    N     N_2   0.076705 0.150782 0.793167 -0.127312
H57   H     H_    0.069032 0.163157 0.894325 0.264430
C89   C     C_3   0.141157 0.168083 0.782868 -0.791552
H58   H     H_    0.178023 0.154024 0.885634 0.335880
H59   H     H_    0.145990 0.215215 0.780654 0.277715
H60   H     H_    0.152491 0.149560 0.681368 0.287187
N10   N     N_2   0.030185 0.860819 0.342679 -0.144359
H61   H     H_    0.008936 0.896459 0.376392 0.195847
C90   C     C_3   0.100614 0.868974 0.386586 -0.857477
H62   H     H_    0.112916 0.914961 0.415137 0.294506
H63   H     H_    0.124573 0.856650 0.298252 0.290592
H64   H     H_    0.121394 0.843370 0.489084 0.292834
N11   N     N_2   0.585048 0.656913 0.775616 -0.103578
H65   H     H_    0.570001 0.666180 0.870287 0.249729
C91   C     C_3   0.651185 0.676745 0.786085 -0.809818
H66   H     H_    0.684125 0.661725 0.893472 0.325318
H67   H     H_    0.654973 0.724128 0.785349 0.243305
H68   H     H_    0.669422 0.659577 0.692701 0.272397
N12   N     N_2   0.532665 0.353445 0.393088 -0.140717
H69   H     H_    0.520060 0.392026 0.432787 0.189501
C92   C     C_3   0.603302 0.352086 0.418753 -0.879500
H70   H     H_    0.625692 0.341636 0.537866 0.292996
H71   H     H_    0.621591 0.394840 0.394277 0.304333
H72   H     H_    0.620505 0.319672 0.350226 0.250791
Cl25  Cl    Cl    0.935838 0.135970 0.243932 -0.514056
Cl26  Cl    Cl    0.928363 0.839426 0.804732 -0.502147
Cl27  Cl    Cl    0.443211 0.637115 0.245172 -0.513115
Cl28  Cl    Cl    0.438841 0.346761 0.844002 -0.606260
N13   N     N_2   0.191919 0.770919 0.810195 -0.117528
H73   H     H_    0.162409 0.806661 0.797007 0.219668
C93   C     C_3   0.227077 0.758674 0.698447 -0.616814
H74   H     H_    0.271217 0.785291 0.722555 0.269319
H75   H     H_    0.197239 0.770466 0.584220 0.254007
H76   H     H_    0.241448 0.712786 0.699673 0.266670
N14   N     N_2   0.209897 0.237474 0.290550 -0.128936
H77   H     H_    0.169584 0.216329 0.224611 0.221236
C94   C     C_3   0.255603 0.256256 0.208119 -0.502710
H78   H     H_    0.247590 0.231457 0.100865 0.267237
H79   H     H_    0.305721 0.247960 0.277695 0.257087
H80   H     H_    0.250404 0.302871 0.180707 0.283363
N15   N     N_2   0.694270 0.271293 0.807446 -0.111292
H81   H     H_    0.656593 0.299634 0.769363 0.215486
C95   C     C_3   0.729377 0.255186 0.697929 -0.645346
H82   H     H_    0.773712 0.280844 0.717878 0.265158
H83   H     H_    0.700952 0.266028 0.581639 0.260851
H84   H     H_    0.742943 0.209060 0.705727 0.282731
N16   N     N_2   0.697401 0.730000 0.296534 -0.125682
H85   H     H_    0.657287 0.706777 0.237590 0.201111
C96   C     C_3   0.739857 0.749184 0.206073 -0.569201
H86   H     H_    0.719939 0.735941 0.086193 0.248711
H87   H     H_    0.787309 0.728605 0.250886 0.258281
H88   H     H_    0.747412 0.796674 0.211128 0.264467
Cl29  Cl    Cl    0.267406 0.653815 0.318767 -0.451187
Cl30  Cl    Cl    0.218318 0.313881 0.838717 -0.574109
Cl31  Cl    Cl    0.762392 0.156701 0.319989 -0.420477
Cl32  Cl    Cl    0.757088 0.840698 0.822463 -0.450649
N17   N     N_2   0.927905 0.393626 0.326537 -0.156439
H89   H     H_    0.959034 0.397419 0.259328 0.255222
C97   C     C_3   0.919187 0.441685 0.414887 -0.508288
H90   H     H_    0.966773 0.452735 0.491354 0.289430
H91   H     H_    0.884787 0.431890 0.484559 0.242452
H92   H     H_    0.900509 0.477615 0.339762 0.224784
N18   N     N_2   0.928908 0.605495 0.820106 -0.129211
H93   H     H_    0.964030 0.602074 0.762279 0.256687
C98   C     C_3   0.918725 0.558067 0.909260 -0.537035
H94   H     H_    0.965726 0.547404 0.988555 0.287745
H95   H     H_    0.899912 0.521561 0.835131 0.230256
H96   H     H_    0.883208 0.568287 0.975604 0.226883
N19   N     N_2   0.426238 0.893691 0.325564 -0.160104
H97   H     H_    0.456932 0.897535 0.257406 0.246171
C99   C     C_3   0.417719 0.941832 0.413502 -0.502470
H98   H     H_    0.465780 0.953520 0.487168 0.283532
H99   H     H_    0.384897 0.931475 0.486506 0.241865
H100  H     H_    0.397353 0.977302 0.337555 0.225118
N20   N     N_2   0.426102 0.106831 0.821203 -0.132631
H101  H     H_    0.456747 0.104003 0.753159 0.262568
C100  C     C_3   0.417536 0.058414 0.908727 -0.507651
H102  H     H_    0.465304 0.047425 0.984357 0.286580
H103  H     H_    0.398007 0.022319 0.833405 0.222841
H104  H     H_    0.383699 0.068156 0.979642 0.234927
Cl33  Cl    Cl    0.091718 0.573685 0.830474 -0.541430
Cl34  Cl    Cl    0.079006 0.418144 0.337026 -0.553444
Cl35  Cl    Cl    0.573103 0.084171 0.840817 -0.553863
Cl36  Cl    Cl    0.577238 0.917272 0.328261 -0.565515
Cl37  Cl    Cl    0.951035 0.127095 0.704495 -0.537271
Cl38  Cl    Cl    0.911651 0.867351 0.155654 -0.511054
Cl39  Cl    Cl    0.466919 0.619335 0.645055 -0.522938
Cl40  Cl    Cl    0.412050 0.370668 0.223262 -0.499677
Cl41  Cl    Cl    0.946395 0.276075 0.150587 -0.762414
Cl42  Cl    Cl    0.980060 0.719367 0.777344 -0.748084
Cl43  Cl    Cl    0.430155 0.778660 0.044328 -0.679117
Cl44  Cl    Cl    0.467937 0.225770 0.749737 -0.723117
N21   N     N_2   0.901858 0.173451 0.971285 -0.101646
H105  H     H_    0.863424 0.145544 0.966561 0.278360
C101  C     C_3   0.888814 0.220616 0.866535 -0.519574
H106  H     H_    0.856027 0.251144 0.902098 0.222117
H107  H     H_    0.863751 0.205760 0.751503 0.298532
H108  H     H_    0.934149 0.242488 0.863147 0.293500
N22   N     N_2   0.941856 0.824409 0.528354 -0.093847
H109  H     H_    0.934477 0.862140 0.469837 0.237457
C102  C     C_3   0.882768 0.789376 0.494536 -0.475435
H110  H     H_    0.847043 0.805090 0.553873 0.279963
H111  H     H_    0.893836 0.743632 0.521713 0.251949
H112  H     H_    0.859400 0.792362 0.371890 0.238685
N23   N     N_2   0.393760 0.663581 0.967148 -0.120285
H113  H     H_    0.361857 0.631080 0.976844 0.276484
C103  C     C_3   0.384314 0.684679 0.816169 -0.546656
H114  H     H_    0.349181 0.719967 0.799530 0.246467
H115  H     H_    0.363140 0.650524 0.732588 0.314583
H116  H     H_    0.430597 0.702249 0.801947 0.282551
N24   N     N_2   0.435065 0.347655 0.555179 -0.094092
H117  H     H_    0.430513 0.389626 0.518951 0.241222
C104  C     C_3   0.369470 0.324327 0.532679 -0.508360
H118  H     H_    0.341249 0.349144 0.597629 0.245058
H119  H     H_    0.370854 0.278524 0.562752 0.260558
H120  H     H_    0.342630 0.327950 0.412459 0.269025
N25   N     N_2   0.000575 0.121429 0.037765 -0.120842
H121  H     H_    0.972515 0.087051 0.986241 0.282081
C105  C     C_3   0.060203 0.101135 0.138208 -0.832971
H122  H     H_    0.048787 0.070964 0.220634 0.287534
H123  H     H_    0.091396 0.137038 0.196585 0.277788
H124  H     H_    0.087076 0.077412 0.068849 0.278820
N26   N     N_2   0.025200 0.879620 0.699949 -0.141080
H125  H     H_    0.064858 0.875027 0.656148 0.190062
C106  C     C_3   0.997503 0.936943 0.679847 -0.735060
H126  H     H_    0.036615 0.968291 0.730659 0.244861
H127  H     H_    0.958154 0.942785 0.737328 0.338537
H128  H     H_    0.978007 0.946821 0.558299 0.241496
N27   N     N_2   0.500736 0.622981 0.022493 -0.116900
H129  H     H_    0.477460 0.587947 0.962012 0.275909
C107  C     C_3   0.561516 0.608371 0.130345 -0.761764
H130  H     H_    0.557572 0.564866 0.176977 0.274469
H131  H     H_    0.575243 0.639435 0.225065 0.219052
H132  H     H_    0.600688 0.610127 0.072405 0.301970
N28   N     N_2   0.531522 0.386637 0.729170 -0.135623
H133  H     H_    0.570411 0.379820 0.684840 0.184482
C108  C     C_3   0.511348 0.446635 0.721965 -0.689842
H134  H     H_    0.552245 0.473411 0.789250 0.293208
H135  H     H_    0.468441 0.453001 0.767778 0.311198
H136  H     H_    0.499680 0.462528 0.603863 0.231549
Cl45  Cl    Cl    0.281328 0.433670 0.348132 -0.586663
Cl46  Cl    Cl    0.232604 0.587684 0.715552 -0.577874
Cl47  Cl    Cl    0.703551 0.977287 0.445542 -0.614988
Cl48  Cl    Cl    0.741496 0.049659 0.955413 -0.565150
Cl49  Cl    Cl    0.165591 0.437890 0.140896 -0.488831
Cl50  Cl    Cl    0.196810 0.498988 0.502232 -0.507357
Cl51  Cl    Cl    0.693363 0.927121 0.161189 -0.515562
Cl52  Cl    Cl    0.667810 0.065850 0.659032 -0.473185

loop_
_geom_bond_atom_site_label_1
_geom_bond_atom_site_label_2
_geom_bond_distance
_ccdc_geom_bond_type
O10   P13   1.806752 S    
C27   H15   1.110146 S    
O6    Ba1   2.973068 S    
C49   C53   1.456793 A    
C104  H118  1.109790 S    
C87   H51   1.109618 S    
C58   C62   1.419005 A    
N16   H85   1.028115 S    
P6    O26   1.666169 D    
C26   Cl18  1.776867 S    
N21   H105  1.031113 S    
C85   H44   1.109826 S    
C97   H91   1.112327 S    
C41   N13   1.412749 S    
N17   H89   1.018473 S    
C94   H80   1.111373 S    
C51   C55   1.455958 A    
N2    C82   1.437847 S    
C70   C74   1.465205 A    
Ba4   O48   2.972168 S    
C10   Cl26  1.805706 S    
C27   Cl23  1.783782 S    
C28   H16   1.108722 S    
C70   H22   1.057402 S    
N12   C92   1.452855 S    
C25   Cl21  1.773520 S    
N1    C81   1.398782 S    
C65   C69   1.428005 A    
O24   C32   1.420071 S    
C6    Cl42  1.756970 S    
C44   N16   1.408477 S    
C68   C72   1.436860 A    
P2    O18   1.766933 S    
C17   Cl9   1.786613 S    
C95   H83   1.106701 S    
O26   Ba2   2.963032 S    
C67   C71   1.428300 A    
C60   C76   1.434185 A    
P14   C61   1.922829 S    
C77   N17   1.388198 S    
C52   C56   1.453974 A    
C106  H128  1.105736 S    
C82   H31   1.096499 S    
C81   H26   1.031848 S    
N9    H57   1.022796 S    
P1    Ba1   3.623760 S    
C46   C50   1.473552 A    
C58   C74   1.437826 A    
C28   Cl24  1.784604 S    
O24   P15   1.782862 S    
C9    N21   1.465965 S    
C10   N26   1.460454 S    
N10   H61   1.028061 S    
C22   Cl14  1.784717 S    
C26   H14   1.106719 S    
P7    O39   1.785419 S    
P11   C40   1.956602 S    
C12   N24   1.463600 S    
N4    H37   1.018288 S    
O22   C30   1.419613 S    
C86   H46   1.106226 S    
O16   P15   1.544958 D    
C3    N7    1.471889 S    
C18   H6    1.110434 S    
N6    H45   1.029131 S    
C16   Cl52  1.750586 S    
C98   H94   1.095860 S    
C4    C32   1.601459 S    
C102  H112  1.104135 S    
C45   C49   1.474502 A    
C57   C73   1.437710 A    
C7    C11   1.588497 S    
P6    O38   1.798570 S    
C104  H120  1.101494 S    
C41   C45   1.442226 A    
C108  H134  1.108460 S    
C19   Cl7   1.781128 S    
P8    O28   1.666169 D    
P9    O29   1.792707 S    
P11   O31   1.794600 S    
C89   H60   1.106064 S    
P12   O32   1.782183 S    
C1    C29   1.604310 S    
C4    Cl40  1.786227 S    
P5    O46   1.647502 S    
C91   H67   1.103153 S    
C107  H130  1.109952 S    
O41   C5    1.431432 S    
C35   C39   1.401995 A    
O43   C7    1.433949 S    
O44   C8    1.430100 S    
C14   Cl46  1.779074 S    
C35   C55   1.412476 A    
N15   C95   1.447153 S    
P15   C64   1.901232 S    
C8    Cl44  1.750947 S    
C61   C77   1.402766 A    
C15   Cl47  1.704712 S    
N14   C94   1.444381 S    
C43   C47   1.446827 A    
P10   C37   1.878769 S    
P3    O7    1.633237 S    
C5    H1    1.091201 S    
C30   Cl2   1.764063 S    
Ba3   O47   2.956344 S    
C100  H102  1.096101 S    
O9    Ba1   2.941748 S    
C13   C17   1.507564 S    
C18   Cl10  1.787238 S    
C34   C54   1.422717 A    
C15   C19   1.541485 S    
P9    O41   1.813808 S    
O12   P15   1.817755 S    
O23   C31   1.452537 S    
P2    C66   1.926349 S    
P11   O35   1.545996 D    
N20   C100  1.422385 S    
N23   H113  1.031438 S    
P12   O44   1.800692 S    
C43   N15   1.412620 S    
C3    Cl39  1.782062 S    
C103  H114  1.092442 S    
O14   P13   1.541391 D    
C103  H116  1.100486 S    
Ba1   Ba2   5.008607 S    
P8    Ba4   3.625642 S    
C6    C10   1.565510 S    
N5    H41   1.027601 S    
C8    H4    1.098300 S    
N16   C96   1.445808 S    
C86   H48   1.106603 S    
C12   N28   1.463124 S    
C90   H62   1.112125 S    
O5    Ba2   2.957230 S    
N19   C99   1.415126 S    
C24   H12   1.103488 S    
C2    N10   1.466958 S    
N11   H65   1.022672 S    
C50   Cl30  1.740267 S    
P5    Ba1   3.626611 S    
C31   Cl3   1.760486 S    
P7    Ba3   3.626611 S    
C81   H28   1.052753 S    
C36   C56   1.428324 A    
P7    O27   1.669411 D    
N7    H49   1.029151 S    
O1    Ba1   2.960242 S    
C25   Cl17  1.769681 S    
O40   C15   1.383599 S    
C62   C78   1.384443 A    
C78   N18   1.403093 S    
C28   Cl20  1.777150 S    
O20   C24   1.407652 S    
C3    C31   1.620949 S    
C13   Cl45  1.795975 S    
C98   H95   1.090412 S    
P4    C68   1.946214 S    
C6    H2    1.102171 S    
C71   C75   1.469980 A    
C20   H8    1.091220 S    
C64   C80   1.383446 A    
C72   C76   1.461765 A    
C93   H76   1.108372 S    
O10   Ba2   2.955874 S    
C84   H38   1.103773 S    
C72   H24   1.061922 S    
C17   Cl5   1.793014 S    
N20   H101  1.014410 S    
O4    Ba4   2.966316 S    
O31   Ba3   2.955703 S    
C37   C41   1.424097 A    
C96   H86   1.109237 S    
C51   Cl31  1.755890 S    
C58   H18   1.065335 S    
C39   C43   1.425105 A    
C48   C52   1.483359 A    
C100  H104  1.110859 S    
N3    H33   1.025105 S    
N8    C88   1.455999 S    
C7    Cl43  1.788610 S    
C92   H71   1.109812 S    
O22   P13   1.777932 S    
C59   H19   1.069832 S    
N6    C86   1.455055 S    
N22   C102  1.453357 S    
C105  H124  1.105581 S    
P4    O8    1.640962 S    
Ba1   O46   3.194424 S    
O12   Ba4   2.955874 S    
C107  H132  1.098129 S    
C83   H35   1.071983 S    
N24   H117  1.027386 S    
C23   Cl15  1.754646 S    
C99   H100  1.093861 S    
N24   C104  1.452952 S    
C21   Cl13  1.761137 S    
O11   P16   1.815481 S    
C16   C20   1.548863 S    
C90   H64   1.102930 S    
C85   H43   1.102350 S    
P4    Ba4   3.624700 S    
C4    N8    1.466876 S    
C57   C61   1.417528 A    
C94   H79   1.102315 S    
C42   N14   1.414632 S    
C57   H17   1.069218 S    
O2    Ba2   2.966316 S    
P16   C63   1.941369 S    
C88   H56   1.107669 S    
C63   C79   1.410010 A    
N13   C93   1.444715 S    
C19   Cl11  1.769837 S    
C15   Cl51  1.745012 S    
C20   Cl12  1.767587 S    
C21   H9    1.102144 S    
N1    H25   1.029156 S    
P8    C55   1.958348 S    
P10   O30   1.775983 S    
C23   H11   1.102536 S    
C83   H36   1.089925 S    
C33   Cl33  1.763513 S    
C9    N25   1.447145 S    
C23   C27   1.533150 S    
C106  H127  1.106221 S    
O42   C6    1.430095 S    
Ba3   Ba4   5.008607 S    
N8    H53   1.027110 S    
C79   N19   1.384509 S    
C87   H50   1.106762 S    
N28   H133  1.023046 S    
O17   C21   1.413350 S    
C84   H40   1.089592 S    
C1    N5    1.472378 S    
N25   C105  1.434172 S    
P1    O1    1.666331 D    
C29   Cl1   1.757994 S    
C13   Cl49  1.702626 S    
C96   H88   1.112909 S    
P3    O3    1.666331 D    
N27   C107  1.442840 S    
P4    O20   1.761175 S    
C98   H96   1.111054 S    
C42   C46   1.449754 A    
C26   Cl22  1.770753 S    
C46   C76   1.604764 S    
C47   C73   1.612300 S    
P10   O42   1.780429 S    
O3    Ba3   2.960242 S    
N26   H125  1.028305 S    
C105  H122  1.104410 S    
O32   Ba4   2.941612 S    
P1    C65   1.969926 S    
C102  H111  1.103611 S    
C60   C64   1.412574 A    
C40   C44   1.423861 A    
N17   C97   1.417094 S    
C99   H98   1.095189 S    
C104  H119  1.098302 S    
C32   N4    1.440384 S    
N21   C101  1.437647 S    
C22   H10   1.101185 S    
C97   H92   1.090333 S    
C89   H59   1.099721 S    
C66   C78   1.395250 A    
C31   N3    1.440259 S    
N18   H93   1.024597 S    
P1    O5    1.633237 S    
C85   H42   1.104958 S    
Ba4   O47   3.193593 S    
C82   H30   1.105715 S    
C48   C74   1.621344 S    
C4    N12   1.457644 S    
N15   H81   1.024548 S    
P8    O40   1.765016 S    
O21   C29   1.447865 S    
P7    C56   1.991164 S    
C80   N20   1.388028 S    
P9    O33   1.537503 D    
C101  H106  1.101067 S    
C17   H5    1.103282 S    
P5    C54   1.988066 S    
Ba2   O46   2.972168 S    
P11   O43   1.821605 S    
C24   Cl16  1.780245 S    
O18   C22   1.415798 S    
C95   H84   1.107487 S    
N26   C106  1.448965 S    
N9    C89   1.449493 S    
C65   C77   1.409956 A    
C2    C30   1.604662 S    
C18   Cl6   1.761578 S    
P6    O45   1.639647 S    
C1    N9    1.465789 S    
C2    N6    1.466164 S    
C5    Cl41  1.758403 S    
C101  H107  1.100778 S    
C103  H115  1.108177 S    
C59   C75   1.438525 A    
P5    O25   1.669411 D    
N14   H77   1.028512 S    
C86   H47   1.107709 S    
C27   Cl19  1.766567 S    
N19   H97   1.017939 S    
C35   Cl35  1.740879 S    
C10   N22   1.453520 S    
C69   C73   1.467335 A    
N28   C108  1.455149 S    
C9    Cl25  1.792447 S    
P9    C38   1.949464 S    
C96   H87   1.092589 S    
C14   C18   1.559550 S    
C69   H21   1.053831 S    
C108  H135  1.107745 S    
C49   Cl29  1.763652 S    
C1    Cl37  1.767180 S    
N22   H109  1.019686 S    
P1    O17   1.760408 S    
P3    O19   1.755593 S    
P13   C62   1.890699 S    
P4    O4    1.669578 D    
C91   H68   1.101704 S    
O13   P14   1.536255 D    
O15   P16   1.540612 D    
C59   C63   1.417126 A    
C60   H20   1.067872 S    
C20   Cl8   1.787857 S    
C93   H75   1.105951 S    
C88   H54   1.104473 S    
C47   C51   1.475938 A    
N4    C84   1.428333 S    
C34   C38   1.418979 A    
N10   C90   1.450833 S    
O38   C13   1.408642 S    
N11   C91   1.452638 S    
P6    Ba2   3.625642 S    
C33   C37   1.388064 A    
P7    O48   1.647502 S    
C36   C40   1.418769 A    
Ba3   O48   3.194424 S    
C83   H34   1.028515 S    
C19   H7    1.111032 S    
C11   N23   1.461905 S    
C92   H70   1.097176 S    
N23   C103  1.432917 S    
C97   H90   1.093874 S    
P8    O47   1.639647 S    
C105  H123  1.106424 S    
P2    O2    1.669578 D    
Ba1   O45   2.956344 S    
C14   Cl50  1.679507 S    
C16   Cl48  1.739609 S    
C107  H131  1.103800 S    
P5    O37   1.790578 S    
C7    H3    1.073580 S    
C99   H99   1.111619 S    
C32   Cl4   1.781370 S    
P3    Ba3   3.623760 S    
C90   H63   1.100623 S    
C100  H103  1.091923 S    
C94   H78   1.110346 S    
P12   O36   1.545767 D    
C21   C25   1.541811 S    
C88   H55   1.109086 S    
C38   C42   1.423828 A    
O29   Ba1   2.955703 S    
O9    P14   1.819159 S    
C87   H52   1.109724 S    
C108  H136  1.109248 S    
O7    Ba4   2.957230 S    
C101  H108  1.093121 S    
N13   H73   1.028733 S    
C3    N11   1.462248 S    
N7    C87   1.457555 S    
C68   C80   1.402815 A    
O21   P14   1.816702 S    
O39   C16   1.406433 S    
C36   Cl36  1.762381 S    
C93   H74   1.091715 S    
O23   P16   1.823041 S    
C67   C79   1.408821 A    
C95   H82   1.084418 S    
C2    Cl38  1.815054 S    
O19   C23   1.406210 S    
Ba2   O45   3.193593 S    
C91   H66   1.103435 S    
P2    O6    1.640962 S    
C45   C75   1.610665 S    
C24   C28   1.526675 S    
O11   Ba3   2.941748 S    
C106  H126  1.105936 S    
C82   H32   1.094265 S    
C5    C9    1.590870 S    
P12   C39   1.908605 S    
C44   C48   1.456607 A    
O8    Ba3   2.973068 S    
C33   C53   1.404279 A    
C50   C54   1.445106 A    
C89   H58   1.103609 S    
P10   O34   1.539670 D    
C84   H39   1.086983 S    
O25   Ba1   2.969182 S    
N25   H121  1.029263 S    
P6    C53   1.935674 S    
P3    C67   1.981891 S    
O27   Ba3   2.969182 S    
N12   H69   1.027889 S    
N18   C98   1.423367 S    
N5    C85   1.449812 S    
N27   H129  1.030346 S    
N3    C83   1.414275 S    
P2    Ba2   3.624700 S    
C8    C12   1.599244 S    
C92   H72   1.101239 S    
C81   H27   1.090555 S    
C11   N27   1.447042 S    
C34   Cl34  1.754646 S    
C71   H23   1.054138 S    
C11   Cl27  1.803239 S    
C66   C70   1.435839 A    
C12   Cl28  1.798394 S    
C29   N1    1.432003 S    
C30   N2    1.451894 S    
N2    H29   1.017378 S    
C102  H110  1.104457 S    
O28   Ba4   2.963032 S    
C22   C26   1.538011 S    
C25   H13   1.111116 S    
C52   Cl32  1.761372 S    
O30   Ba2   2.941612 S    
O37   C14   1.411534 S    
