data_mof_unit_5981.cif
_audit_creation_date              2012-12-10T18:19:06-0500
_audit_creation_method            fapswitch 2.2
_symmetry_space_group_name_H-M    P1
_symmetry_Int_Tables_number       1
_space_group_crystal_system       triclinic
_cell_length_a                    14.937562
_cell_length_b                    14.030891
_cell_length_c                    11.545889
_cell_angle_alpha                 89.972272
_cell_angle_beta                  89.82457
_cell_angle_gamma                 90.465519
_cell_volume                      2419.78022355

loop_
_atom_site_label
_atom_site_type_symbol
_atom_type_description
_atom_site_fract_x
_atom_site_fract_y
_atom_site_fract_z
_atom_type_partial_charge
C1    C     C_R   0.327144 0.499593 0.496043 0.895778
C2    C     C_R   0.432668 0.201767 0.553706 -0.049575
C3    C     C_R   0.434033 0.797023 0.556470 -0.042426
C4    C     C_R   0.567210 0.202962 0.446078 -0.042181
C5    C     C_R   0.431822 0.898130 0.559591 -0.032081
C6    C     C_R   0.570876 0.101900 0.446086 -0.033629
C7    C     C_R   0.568180 0.899358 0.440265 -0.020907
C8    C     C_R   0.428962 0.100634 0.553804 -0.019491
C9    C     C_R   0.499983 0.949515 0.499933 -0.003948
C10   C     C_R   0.499945 0.050476 0.499964 -0.003690
C11   C     C_R   0.362828 0.948163 0.619005 0.132317
C12   C     C_R   0.672856 0.500387 0.503894 0.895562
C13   C     C_R   0.642623 0.051973 0.392462 0.131178
C14   C     C_R   0.637259 0.950609 0.380763 0.136830
C15   C     C_R   0.357048 0.049431 0.607340 0.135569
C16   C     C_R   0.500040 0.500022 0.281756 0.905808
C17   C     C_R   0.499998 0.499983 0.718245 0.904999
C18   C     C_1   0.500038 0.500059 0.161396 -0.192368
C19   C     C_1   0.500128 0.499973 0.838608 -0.192861
C20   C     C_1   0.500087 0.500052 0.059286 -0.010260
C21   C     C_1   0.500155 0.500009 0.940720 -0.010523
C22   C     C_R   0.811806 0.464941 0.412443 -0.309835
C23   C     C_R   0.903866 0.464545 0.408351 0.129146
C24   C     C_R   0.188190 0.535281 0.587372 -0.309328
C25   C     C_R   0.768086 0.501337 0.508640 -0.091038
C26   C     C_R   0.231912 0.498538 0.491370 -0.089245
C27   C     C_R   0.814387 0.536836 0.606117 0.101589
C28   C     C_R   0.185604 0.462397 0.394241 0.102435
C29   C     C_R   0.908871 0.536215 0.602804 0.099132
C30   C     C_R   0.091125 0.463246 0.397435 0.098929
C31   C     C_R   0.953135 0.500194 0.502859 0.028341
C32   C     C_R   0.046864 0.499469 0.497272 0.028493
C33   C     C_3   0.763264 0.570674 0.713228 -0.425828
C34   C     C_R   0.096132 0.535388 0.591629 0.130659
C35   C     C_3   0.759717 0.493205 0.806089 -0.871695
C36   C     C_3   0.236706 0.427674 0.287542 -0.427326
C37   C     C_3   0.241159 0.504793 0.194302 -0.871627
C38   C     C_3   0.298832 0.893938 0.699223 -0.427497
C39   C     C_3   0.215746 0.858191 0.635022 -0.852799
C40   C     C_3   0.726697 0.106447 0.354572 -0.420493
C41   C     C_3   0.720503 0.140246 0.229002 -0.862031
C42   C     C_3   0.702199 0.897067 0.301534 -0.424573
C43   C     C_3   0.655304 0.861550 0.191856 -0.855934
C44   C     C_3   0.273089 0.102881 0.646464 -0.422613
C45   C     C_R   0.960587 0.570637 0.695850 -0.225262
C46   C     C_3   0.219567 0.139189 0.542734 -0.857161
C47   C     C_R   0.039410 0.428984 0.304304 -0.224820
C48   C     C_R   0.053109 0.570538 0.689821 -0.218774
C49   C     C_R   0.946889 0.429431 0.310142 -0.217249
C50   C     C_R   0.565918 0.798204 0.443416 -0.049952
H1    H     H_    0.773376 0.437860 0.339602 0.146936
H2    H     H_    0.277611 0.477355 0.117438 0.252161
H3    H     H_    0.306235 0.407120 0.307640 0.226120
H4    H     H_    0.206597 0.361148 0.252782 0.197620
H5    H     H_    0.931197 0.597920 0.774473 0.159615
H6    H     H_    0.068788 0.401723 0.225665 0.159852
H7    H     H_    0.091208 0.597791 0.762591 0.144657
H8    H     H_    0.908790 0.402423 0.237236 0.144967
H9    H     H_    0.616448 0.755807 0.401737 0.154377
H10   H     H_    0.382559 0.244055 0.596417 0.154128
H11   H     H_    0.382834 0.753710 0.596742 0.153211
H12   H     H_    0.226619 0.562742 0.660003 0.146594
H13   H     H_    0.616532 0.246108 0.401798 0.153413
H14   H     H_    0.177514 0.918669 0.598770 0.263827
H15   H     H_    0.234726 0.809871 0.563128 0.260813
H16   H     H_    0.171692 0.818268 0.695941 0.246637
H17   H     H_    0.332746 0.833138 0.741413 0.192830
H18   H     H_    0.279488 0.937374 0.775254 0.193690
H19   H     H_    0.714756 0.078810 0.169021 0.265337
H20   H     H_    0.661466 0.186637 0.216909 0.256200
H21   H     H_    0.781729 0.181608 0.206151 0.246012
H22   H     H_    0.739830 0.168366 0.411945 0.197563
H23   H     H_    0.723805 0.429374 0.772470 0.264902
H24   H     H_    0.787913 0.063768 0.367760 0.193118
H25   H     H_    0.599456 0.811707 0.212035 0.260531
H26   H     H_    0.628262 0.922832 0.142507 0.261301
H27   H     H_    0.704152 0.823691 0.136077 0.246316
H28   H     H_    0.759384 0.940531 0.271167 0.220399
H29   H     H_    0.733764 0.837200 0.348571 0.189430
H30   H     H_    0.258996 0.189814 0.488885 0.259051
H31   H     H_    0.198213 0.078311 0.487611 0.259964
H32   H     H_    0.158840 0.176510 0.574024 0.248845
H33   H     H_    0.225672 0.059086 0.697330 0.220309
H34   H     H_    0.828054 0.472330 0.833042 0.261024
H35   H     H_    0.291119 0.162374 0.705405 0.188596
H36   H     H_    0.723114 0.519995 0.883193 0.252314
H37   H     H_    0.792907 0.637354 0.748214 0.196926
H38   H     H_    0.693478 0.590531 0.693534 0.225374
H39   H     H_    0.173070 0.526313 0.167083 0.261116
H40   H     H_    0.277618 0.568347 0.227685 0.264847
N1    N     N_R   0.500000 0.750030 0.500000 -0.111390
N2    N     N_R   0.500000 0.249970 0.500000 -0.111510
O1    O     O_R   0.367850 0.580280 0.500030 -0.620732
O2    O     O_R   0.632150 0.419720 0.499970 -0.621279
O3    O     O_R   0.632150 0.580280 0.499970 -0.638944
O4    O     O_R   0.367850 0.419720 0.500030 -0.639103
O5    O     O_R   0.500010 0.580270 0.334450 -0.610267
O6    O     O_R   0.499990 0.419730 0.665550 -0.609989
O7    O     O_R   0.499990 0.580270 0.665550 -0.621915
O8    O     O_R   0.500010 0.419730 0.334450 -0.620583
Zn1   Zn    Zn3+2 0.500000 0.607200 0.500000 0.933461
Zn2   Zn    Zn3+2 0.500000 0.392800 0.500000 0.933581

loop_
_geom_bond_atom_site_label_1
_geom_bond_atom_site_label_2
_ccdc_geom_bond_type
C30   C32   A    
O4    Zn2   S    
C27   C29   A    
C44   H33   S    
C48   H7    S    
C47   C49   A    
C27   C33   S    
C39   H14   S    
C4    H13   S    
C37   H40   S    
C50   H9    S    
C36   C37   S    
C19   C21   T    
C33   H38   S    
C24   C26   A    
C15   C44   S    
C5    C11   A    
C38   C39   S    
C35   H36   S    
C2    H10   S    
C16   O5    A    
C23   C49   A    
C3    N1    A    
C13   C40   S    
C36   H3    S    
C17   C19   S    
C46   H32   S    
C11   C15   A    
C7    C14   A    
C22   C25   A    
C12   O3    A    
C17   O6    A    
N2    Zn2   S    
C41   H21   S    
C42   H29   S    
C13   C14   A    
C39   H15   S    
C12   O2    A    
N1    Zn1   S    
C44   C46   S    
C3    H11   S    
C43   H25   S    
C30   C47   A    
C4    C6    A    
O1    Zn1   S    
C37   H2    S    
C16   O8    A    
O6    Zn2   S    
C24   C34   A    
C49   H8    S    
C29   C45   A    
C32   C34   A    
C11   C38   S    
C5    C9    A    
C46   H31   S    
C31   C32   A    
O8    Zn2   S    
C16   C18   S    
C14   C42   S    
C20   C21   S    
C2    N2    A    
C17   O7    A    
C45   H5    S    
C1    O1    A    
C40   C41   S    
O7    Zn1   S    
C47   H6    S    
C38   H18   S    
C42   H28   S    
C8    C15   A    
C1    C26   S    
C39   H16   S    
C25   C27   A    
C42   C43   S    
C44   H35   S    
C41   H19   S    
C9    C10   A    
C45   C48   A    
C43   H26   S    
C7    C9    A    
C35   H23   S    
C24   H12   S    
C40   H22   S    
C2    C8    A    
C7    C50   A    
C3    C5    A    
C6    C10   A    
C35   H34   S    
C43   H27   S    
C26   C28   A    
C37   H39   S    
C12   C25   S    
C28   C30   A    
C33   H37   S    
C29   C31   A    
C6    C13   A    
C46   H30   S    
C1    O4    A    
C33   C35   S    
C40   H24   S    
C18   C20   T    
C36   H4    S    
C50   N1    A    
C34   C48   A    
C38   H17   S    
C28   C36   S    
C8    C10   A    
C22   C23   A    
C22   H1    S    
O5    Zn1   S    
O3    Zn1   S    
O2    Zn2   S    
C23   C31   A    
C41   H20   S    
C4    N2    A    
