data_mof_unit_55053.cif
_audit_creation_date              2012-12-11T16:18:05-0500
_audit_creation_method            fapswitch 2.2
_symmetry_space_group_name_H-M    P1
_symmetry_Int_Tables_number       1
_space_group_crystal_system       triclinic
_cell_length_a                    14.051761
_cell_length_b                    14.052179
_cell_length_c                    30.121679
_cell_angle_alpha                 97.385217
_cell_angle_beta                  97.429274
_cell_angle_gamma                 61.199345
_cell_volume                      5153.23576866

loop_
_atom_site_label
_atom_site_type_symbol
_atom_type_description
_atom_site_fract_x
_atom_site_fract_y
_atom_site_fract_z
_atom_type_partial_charge
C1    C     C_R   0.385675 0.710276 0.441900 0.556335
C2    C     C_R   0.708073 0.323124 0.366079 -0.141166
C3    C     C_R   0.735415 0.301972 0.321987 0.250735
C4    C     C_R   0.398720 0.381122 0.426394 0.553010
C5    C     C_R   0.812000 0.328798 0.310026 0.017645
C6    C     C_R   0.868459 0.367890 0.342902 0.070318
C7    C     C_R   0.841504 0.387703 0.387962 0.078673
C8    C     C_R   0.841116 0.401656 0.159750 -0.119190
C9    C     C_R   0.866869 0.392291 0.115798 -0.127038
C10   C     C_R   0.883123 0.211087 0.105089 -0.130918
C11   C     C_R   0.858141 0.220331 0.149292 -0.117324
C12   C     C_R   0.408588 0.261084 0.221802 -0.150556
C13   C     C_R   0.841507 0.313965 0.176981 0.040789
C14   C     C_1   0.832640 0.317707 0.223829 0.004008
C15   C     C_1   0.825637 0.321975 0.263304 0.052859
C16   C     C_R   0.710138 0.405015 0.442563 0.554298
C17   C     C_R   0.893585 0.294642 0.088805 0.025170
C18   C     C_R   0.359905 0.773135 0.402157 -0.040262
C19   C     C_R   0.435904 0.797748 0.386406 0.268720
C20   C     C_R   0.411513 0.845309 0.345239 0.069972
C21   C     C_R   0.318435 0.856472 0.318055 0.006457
C22   C     C_R   0.239945 0.839145 0.334603 0.255526
C23   C     C_R   0.416573 0.264673 0.268518 -0.088647
C24   C     C_R   0.260638 0.798640 0.376586 -0.152039
C25   C     C_R   0.234430 0.853266 0.154214 0.288618
C26   C     C_R   0.233560 0.860676 0.107862 0.249310
C27   C     C_R   0.371273 0.922926 0.123416 0.217557
C28   C     C_R   0.389995 0.711226 0.568437 0.550608
C29   C     C_R   0.376102 0.907890 0.169063 -0.171118
C30   C     C_R   0.304521 0.879839 0.184477 -0.049157
C31   C     C_1   0.307531 0.874828 0.231718 0.042810
C32   C     C_1   0.310879 0.869808 0.271308 0.068280
C33   C     C_R   0.294803 0.904738 0.093003 0.008159
C34   C     C_R   0.331420 0.345524 0.292673 0.001057
C35   C     C_R   0.370519 0.362870 0.593973 -0.012884
C36   C     C_R   0.452032 0.295926 0.625867 0.071437
C37   C     C_R   0.424633 0.294531 0.668179 -0.117960
C38   C     C_R   0.318585 0.357278 0.680052 0.008609
C39   C     C_R   0.234388 0.416019 0.648275 0.289199
C40   C     C_R   0.403445 0.383273 0.552952 0.578301
C41   C     C_R   0.260221 0.419851 0.605112 0.077183
C42   C     C_R   0.203996 0.413075 0.834036 0.287762
C43   C     C_R   0.202532 0.398018 0.878968 0.263743
C44   C     C_R   0.385924 0.245285 0.876964 -0.148713
C45   C     C_R   0.315125 0.338033 0.198882 0.048072
C46   C     C_R   0.390831 0.266445 0.833591 0.070178
C47   C     C_R   0.298242 0.347421 0.811591 0.022003
C48   C     C_1   0.297253 0.358282 0.765100 0.096429
C49   C     C_1   0.301362 0.361590 0.725982 0.076049
C50   C     C_R   0.290539 0.307167 0.899345 -0.044018
C51   C     C_1   0.764124 0.376727 0.612198 0.038508
C52   C     C_R   0.713708 0.407620 0.568364 0.557848
C53   C     C_R   0.738170 0.407985 0.727706 0.287409
C54   C     C_R   0.758058 0.391801 0.773658 0.291073
C55   C     C_R   0.941232 0.244926 0.760645 0.059902
C56   C     C_1   0.303693 0.324825 0.150776 -0.017508
C57   C     C_R   0.921025 0.260492 0.714354 0.065706
C58   C     C_R   0.819315 0.341767 0.698045 -0.028290
C59   C     C_R   0.858684 0.309087 0.789954 -0.031257
C60   C     C_1   0.879982 0.294426 0.837341 0.029049
C61   C     C_1   0.794508 0.357440 0.650782 0.032650
C62   C     C_1   0.906308 0.282722 0.876704 0.032462
C63   C     C_1   0.377184 0.755847 0.614169 0.015296
C64   C     C_1   0.365544 0.364212 0.380556 0.025782
C65   C     C_R   0.315806 0.744703 0.722552 0.306492
C66   C     C_R   0.309854 0.759656 0.769450 0.097370
C67   C     C_1   0.345894 0.354443 0.340718 -0.013062
C68   C     C_R   0.383898 0.886065 0.773723 0.274410
C69   C     C_R   0.389869 0.870746 0.727092 -0.131566
C70   C     C_R   0.356112 0.800610 0.701473 -0.029412
C71   C     C_R   0.340737 0.833030 0.794852 0.003575
C72   C     C_1   0.319432 0.862870 0.841622 0.037809
C73   C     C_1   0.367577 0.781040 0.653777 -0.011161
C74   C     C_1   0.296253 0.897060 0.879675 0.037651
C75   C     C_R   0.950285 0.273627 0.048020 0.536883
C76   C     C_R   0.238127 0.423484 0.270027 -0.064988
C77   C     C_R   0.275599 0.270453 0.065389 0.538464
C78   C     C_1   0.292250 0.305271 0.111013 -0.007931
C79   C     C_R   0.261049 0.953924 0.049130 0.579613
C80   C     C_R   0.951945 0.269245 0.922129 0.551314
C81   C     C_R   0.275705 0.267004 0.939549 0.560919
C82   C     C_R   0.261706 0.950224 0.922981 0.553882
C83   C     C_R   0.228481 0.418802 0.222887 0.306062
C84   C     C_3   0.733116 0.152364 0.284917 -0.126586
C85   C     C_3   0.069112 0.871968 0.077450 -0.053958
C86   C     C_3   0.080660 0.897315 0.188197 -0.106735
C87   C     C_3   0.060316 0.951499 0.319443 -0.126497
C88   C     C_3   0.616164 0.676332 0.392657 -0.035600
C89   C     C_R   0.757889 0.368566 0.399023 -0.055120
C90   C     C_3   0.466071 0.023347 0.136161 -0.097878
C91   C     C_3   0.052267 0.470436 0.198320 -0.109857
C92   C     C_3   0.123063 0.553022 0.923816 -0.073372
C93   C     C_3   0.041750 0.452674 0.794884 -0.084022
C94   C     C_3   0.080026 0.410313 0.658597 -0.082620
C95   C     C_3   0.638200 0.577504 0.700794 -0.097091
C96   C     C_3   0.687289 0.544567 0.821103 -0.100752
C97   C     C_3   0.179200 0.725392 0.680528 -0.051877
C98   C     C_3   0.525618 0.899410 0.813202 -0.099350
Cr1   Cr    Cr6+3 0.581000 0.584320 0.508140 1.080634
Cr2   Cr    Cr6+3 0.339110 0.576430 0.496080 1.085066
Cr3   Cr    Cr6+3 0.579910 0.339270 0.495810 1.080840
Cr4   Cr    Cr6+3 0.082090 0.079210 0.982490 1.039187
Cr5   Cr    Cr6+3 0.082460 0.324610 0.994920 1.060251
Cr6   Cr    Cr6+3 0.323630 0.087860 0.996130 1.061309
H1    H     H_    0.173519 0.488124 0.288778 0.154509
H2    H     H_    0.489702 0.205177 0.285877 0.150432
H3    H     H_    0.872956 0.458742 0.104096 0.137097
H4    H     H_    0.826589 0.474993 0.180986 0.116949
H5    H     H_    0.642888 0.309055 0.373889 0.158501
H6    H     H_    0.739699 0.116880 0.316879 0.127365
H7    H     H_    0.815257 0.121773 0.272885 0.101167
H8    H     H_    0.686383 0.123901 0.259270 0.137613
H9    H     H_    0.037609 0.959813 0.088477 0.087219
H10   H     H_    0.042278 0.832352 0.098951 0.158879
H11   H     H_    0.031714 0.867352 0.043022 0.131372
H12   H     H_    0.856601 0.152843 0.162408 0.097023
H13   H     H_    0.040026 0.970013 0.168200 0.059084
H14   H     H_    0.101022 0.921875 0.223018 0.161769
H15   H     H_    0.020673 0.868096 0.189778 0.152318
H16   H     H_    0.075599 0.019453 0.313546 0.125205
H17   H     H_    0.042085 0.957846 0.354911 0.132965
H18   H     H_    0.986969 0.960163 0.297756 0.125985
H19   H     H_    0.593954 0.609500 0.389353 0.113241
H20   H     H_    0.691384 0.651966 0.415399 0.192502
H21   H     H_    0.635682 0.685274 0.359421 0.146802
H22   H     H_    0.391945 0.088581 0.151685 0.106305
H23   H     H_    0.900368 0.136438 0.084585 0.110395
H24   H     H_    0.531752 0.980228 0.162263 0.112110
H25   H     H_    0.496668 0.063305 0.116626 0.156713
H26   H     H_    0.025349 0.477646 0.232273 0.148084
H27   H     H_    0.075681 0.387402 0.181756 0.119547
H28   H     H_    0.981692 0.529207 0.177828 0.145228
H29   H     H_    0.132683 0.601874 0.900102 0.161248
H30   H     H_    0.193523 0.523559 0.949516 0.111999
H31   H     H_    0.048922 0.607689 0.941615 0.137182
H32   H     H_    0.010499 0.431197 0.822066 0.153021
H33   H     H_    0.080913 0.380792 0.770530 0.122263
H34   H     H_    0.201068 0.780600 0.387617 0.170482
H35   H     H_    0.970656 0.516575 0.776527 0.134219
H36   H     H_    0.993846 0.461171 0.666506 0.147997
H37   H     H_    0.120669 0.348933 0.683960 0.132684
H38   H     H_    0.080234 0.369126 0.624435 0.159341
H39   H     H_    0.720255 0.573321 0.705160 0.069602
H40   H     H_    0.583443 0.648799 0.722136 0.132865
H41   H     H_    0.606406 0.592311 0.665281 0.149806
H42   H     H_    0.685787 0.594624 0.795024 0.094606
H43   H     H_    0.763249 0.519988 0.843621 0.108351
H44   H     H_    0.617599 0.596925 0.841701 0.152561
H45   H     H_    0.434562 0.919486 0.193148 0.143030
H46   H     H_    0.123240 0.764953 0.707953 0.156836
H47   H     H_    0.157354 0.665352 0.660931 0.198408
H48   H     H_    0.166562 0.786802 0.657375 0.133791
H49   H     H_    0.577840 0.867177 0.784411 0.120924
H50   H     H_    0.541069 0.831849 0.833559 0.090848
H51   H     H_    0.549433 0.955309 0.835164 0.175319
H52   H     H_    0.455093 0.177309 0.892282 0.167489
H53   H     H_    0.488137 0.247308 0.692927 0.181563
H54   H     H_    0.474958 0.197582 0.203530 0.102276
H55   H     H_    0.421645 0.913125 0.711022 0.154285
I1    I     I_    0.515289 0.899681 0.323889 -0.377560
I2    I     I_    0.127902 0.510825 0.558407 -0.240501
I3    I     I_    0.622836 0.200065 0.618480 -0.247846
I4    I     I_    0.537803 0.168940 0.801749 -0.347197
I5    I     I_    0.096766 0.126093 0.787119 -0.322452
I6    I     I_    0.041511 0.160226 0.668397 -0.365734
I7    I     I_    0.254371 0.670184 0.801089 -0.267342
I8    I     I_    0.991209 0.399061 0.323418 -0.396422
I9    I     I_    0.928179 0.442261 0.439269 -0.246761
O1    O     O_R   0.688580 0.499770 0.460490 -0.496971
O2    O     O_R   0.346150 0.177650 0.050510 -0.506345
O3    O     O_R   0.314200 0.996600 0.036060 -0.446647
O4    O     O_R   0.480400 0.672610 0.462660 -0.455476
O5    O     O_R   0.168690 0.969990 0.933130 -0.491989
O6    O     O_R   0.991920 0.175870 0.937430 -0.485223
O7    O     O_R   0.974010 0.342590 0.941330 -0.489289
O8    O     O_R   0.182630 0.317940 0.955040 -0.446168
O9    O     O_R   0.347320 0.174720 0.953250 -0.518532
O10   O     O_R   0.315290 0.993890 0.945900 -0.495299
O11   O     O_3   0.162730 0.163890 0.991180 -0.264044
O12   O     O_R   0.348600 0.476260 0.536540 -0.471304
O13   O     O_R   0.315310 0.685650 0.451800 -0.521011
O14   O     O_R   0.346220 0.474990 0.446280 -0.484291
O15   O     O_R   0.492270 0.312460 0.441630 -0.506220
O16   O     O_R   0.669740 0.350480 0.455640 -0.504615
O17   O     O_R   0.691150 0.501150 0.557860 -0.504703
O18   O     O_R   0.482790 0.673890 0.552920 -0.496719
O19   O     O_R   0.317880 0.687030 0.549170 -0.486906
O20   O     O_3   0.677248 0.267071 0.289701 -0.557061
O21   O     O_3   0.183424 0.814765 0.076140 -0.526910
O22   O     O_3   0.173848 0.811310 0.168986 -0.515645
O23   O     O_R   0.494840 0.313840 0.539010 -0.473089
O24   O     O_3   0.148510 0.849520 0.307692 -0.550115
O25   O     O_3   0.533593 0.775293 0.410984 -0.518152
O26   O     O_3   0.443661 0.948558 0.106794 -0.529354
O27   O     O_3   0.137668 0.496855 0.200361 -0.540443
O28   O     O_3   0.109550 0.465919 0.900817 -0.535395
O29   O     O_3   0.113678 0.494215 0.812447 -0.524895
O30   O     O_3   0.128563 0.478405 0.660386 -0.547662
O31   O     O_3   0.635505 0.483910 0.711763 -0.502944
O32   O     O_3   0.675842 0.453137 0.802051 -0.500114
O33   O     O_3   0.288801 0.669933 0.697777 -0.528025
O34   O     O_R   0.672120 0.351750 0.545910 -0.469843
O35   O     O_3   0.414686 0.958203 0.798272 -0.523796
O36   O     O_3   0.500010 0.500010 0.500010 -0.278054
O37   O     O_R   0.167510 0.972920 0.030390 -0.503084
O38   O     O_R   0.990840 0.178580 0.027590 -0.512216
O39   O     O_R   0.972840 0.345510 0.038590 -0.516583
O40   O     O_R   0.181550 0.320660 0.045200 -0.492246

loop_
_geom_bond_atom_site_label_1
_geom_bond_atom_site_label_2
_ccdc_geom_bond_type
C59   C60   S    
C7    I9    S    
C98   H50   S    
C2    H5    S    
C95   H39   S    
C8    C13   A    
C55   C59   A    
Cr1   O36   S    
C27   C29   A    
C94   H36   S    
C35   C36   A    
C51   C61   T    
C88   H20   S    
C93   H32   S    
C3    O20   S    
C56   C78   T    
C39   C41   A    
C38   C49   S    
C31   C32   T    
C53   C54   A    
C27   C33   A    
Cr4   O5    S    
C12   C23   A    
C1    C18   S    
C37   C38   A    
C18   C24   A    
C62   C80   S    
C36   C37   A    
Cr5   O39   S    
C55   I5    S    
Cr6   O2    S    
C41   I2    S    
Cr3   O34   S    
C30   C31   S    
C75   O38   A    
Cr6   O11   S    
C91   H27   S    
C10   C17   A    
C85   O21   S    
C65   C70   A    
C7    C89   A    
C54   O32   S    
C60   C62   T    
C18   C19   A    
C46   C47   A    
C79   O3    A    
C40   O12   A    
C90   H25   S    
C75   O39   A    
C16   O1    A    
Cr6   O9    S    
Cr6   O10   S    
C92   H29   S    
C45   C56   S    
C77   O2    A    
C95   H41   S    
C97   H46   S    
C86   H15   S    
Cr2   O13   S    
Cr2   O14   S    
C42   C43   A    
C53   O31   S    
Cr5   O11   S    
Cr3   O15   S    
C58   C61   S    
C98   H49   S    
C16   C89   S    
C13   C14   S    
C68   O35   S    
C36   I3    S    
Cr4   O11   S    
C45   C83   A    
C74   C82   S    
C88   H19   S    
C8    H4    S    
C76   C83   A    
C26   O21   S    
C44   C46   A    
C54   C59   A    
C90   H22   S    
C38   C39   A    
C96   H44   S    
C21   C32   S    
C92   H30   S    
C86   O22   S    
C84   H7    S    
C66   I7    S    
C51   C52   S    
C94   H38   S    
C64   C67   T    
C98   O35   S    
C85   H11   S    
Cr2   O19   S    
C93   H33   S    
Cr5   O40   S    
C72   C74   T    
C28   O19   A    
C91   H26   S    
C1    O13   A    
C8    C9    A    
Cr1   O4    S    
C63   C73   T    
C24   H34   S    
C25   C26   A    
C77   C78   S    
C23   H2    S    
C29   H45   S    
C84   H6    S    
C43   O28   S    
C94   O30   S    
C44   H52   S    
C2    C89   A    
C93   O29   S    
C81   O8    A    
C66   C71   A    
C29   C30   A    
C93   H35   S    
C28   O18   A    
C91   O27   S    
C26   C33   A    
C47   C48   S    
C90   O26   S    
C82   O5    A    
C23   C34   A    
C82   O10   A    
C70   C73   S    
Cr5   O7    S    
C97   H47   S    
C86   H14   S    
C27   O26   S    
C84   H8    S    
C11   H12   S    
Cr4   O38   S    
Cr2   O36   S    
Cr3   O16   S    
Cr6   O3    S    
C9    C17   A    
C48   C49   T    
C39   O30   S    
C19   O25   S    
C46   I4    S    
C55   C57   A    
C76   H1    S    
C22   C24   A    
C77   O40   A    
C92   H31   S    
Cr4   O6    S    
C52   O17   A    
C22   O24   S    
C10   H23   S    
Cr2   O12   S    
C3    C5    A    
Cr1   O17   S    
C87   H17   S    
C44   C50   A    
C25   C30   A    
C96   O32   S    
C96   H43   S    
C98   H51   S    
C85   H10   S    
C94   H37   S    
C37   H53   S    
C88   O25   S    
C68   C69   A    
C42   O29   S    
C33   C79   S    
C80   O7    A    
C97   O33   S    
C12   C45   A    
Cr3   O23   S    
Cr3   O36   S    
C34   C67   S    
C87   H18   S    
C53   C58   A    
C16   O16   A    
C43   C50   A    
C6    C7    A    
Cr1   O1    S    
C9    H3    S    
C96   H42   S    
C4    C64   S    
C1    O4    A    
C25   O22   S    
C4    O14   A    
C21   C22   A    
C19   C20   A    
C85   H9    S    
C35   C40   S    
C81   O9    A    
C71   C72   S    
C79   O37   A    
C11   C13   A    
C57   C58   A    
C5    C6    A    
C40   O23   A    
C68   C71   A    
C92   O28   S    
Cr5   O8    S    
C69   H55   S    
C97   H48   S    
C2    C3    A    
C86   H13   S    
C52   O34   A    
C42   C47   A    
C4    O15   A    
C83   O27   S    
C69   C70   A    
C35   C41   A    
Cr4   O37   S    
C5    C15   S    
C88   H21   S    
C84   O20   S    
C10   C11   A    
C80   O6    A    
C28   C63   S    
C95   H40   S    
C65   O33   S    
C20   C21   A    
C91   H28   S    
C95   O31   S    
C65   C66   A    
C20   I1    S    
C17   C75   S    
C90   H24   S    
C14   C15   T    
C57   I6    S    
C12   H54   S    
C6    I8    S    
Cr1   O18   S    
C87   H16   S    
C50   C81   S    
C34   C76   A    
C87   O24   S    
