data_mof_unit_66913.cif
_audit_creation_date              2013-03-05T15:57:27-0500
_audit_creation_method            fapswitch 2.2
_symmetry_space_group_name_H-M    P1
_symmetry_Int_Tables_number       1
_space_group_crystal_system       triclinic
_cell_length_a                    17.574464
_cell_length_b                    19.013849
_cell_length_c                    8.59159
_cell_angle_alpha                 90.13299
_cell_angle_beta                  103.286156
_cell_angle_gamma                 89.664224
_cell_volume                      2794.05828791

loop_
_atom_site_label
_atom_site_type_symbol
_atom_site_description
_atom_site_fract_x
_atom_site_fract_y
_atom_site_fract_z
_atom_type_partial_charge
P1    P     P_3+3 0.834140 0.419320 0.003900 0.963357
P2    P     P_3+3 0.834140 0.580680 0.503900 0.972998
P3    P     P_3+3 0.334140 0.919320 0.003900 0.960700
P4    P     P_3+3 0.334140 0.080680 0.503900 0.966209
O1    O     O_2   0.841960 0.394640 0.833410 -0.451328
O2    O     O_2   0.841960 0.605360 0.333410 -0.448732
O3    O     O_2   0.341960 0.894640 0.833410 -0.458046
O4    O     O_2   0.341960 0.105360 0.333410 -0.453549
O5    O     O_3   0.907950 0.463080 0.102990 -0.483003
O6    O     O_3   0.907950 0.536920 0.602990 -0.485719
O7    O     O_3   0.407950 0.963080 0.102990 -0.477732
O8    O     O_3   0.407950 0.036920 0.602990 -0.483803
O9    O     O_3   0.972780 0.329600 0.629720 -0.476738
O10   O     O_3   0.972780 0.670400 0.129720 -0.506212
O11   O     O_3   0.472780 0.829600 0.629720 -0.474228
O12   O     O_3   0.472780 0.170400 0.129720 -0.500710
O13   O     O_2   0.840429 0.284286 0.686600 -0.500076
O14   O     O_2   0.838653 0.716876 0.185740 -0.482432
O15   O     O_2   0.343274 0.781466 0.691465 -0.501749
O16   O     O_2   0.338558 0.218655 0.186283 -0.506616
O17   O     O_3   0.756892 0.478476 0.938041 -0.635345
O18   O     O_3   0.757676 0.522006 0.440205 -0.634634
O19   O     O_3   0.259580 0.980278 0.941936 -0.636555
O20   O     O_3   0.258093 0.022239 0.442654 -0.634123
O21   O     O_3   0.936991 0.188604 0.652465 -0.588440
O22   O     O_3   0.921305 0.815408 0.120541 -0.625883
O23   O     O_3   0.439782 0.687624 0.652211 -0.582088
O24   O     O_3   0.427779 0.313087 0.109451 -0.621473
H1    H     H_    0.045796 0.148883 0.662664 0.072897
H2    H     H_    0.027381 0.783446 0.264308 0.130266
H3    H     H_    0.548077 0.649641 0.656013 0.074323
H4    H     H_    0.507664 0.279816 0.973316 -0.014974
C1    C     C_3   0.961376 0.107814 0.461301 -0.450045
C2    C     C_3   0.018290 0.895193 0.230053 -0.379650
C3    C     C_3   0.461513 0.604375 0.463080 -0.446415
C4    C     C_3   0.565085 0.312926 0.208827 -0.267993
H5    H     H_    0.454327 0.558799 0.538488 0.118852
H6    H     H_    0.556403 0.265497 0.275964 0.197772
H7    H     H_    0.952703 0.061128 0.531789 0.118208
H8    H     H_    0.081461 0.903685 0.266028 0.084711
H9    H     H_    0.905245 0.124518 0.383081 0.109372
H10   H     H_    0.993041 0.903312 0.335049 0.140367
H11   H     H_    0.404539 0.620125 0.386585 0.109713
H12   H     H_    0.565252 0.360005 0.284175 0.112796
P5    P     P_3+3 0.165830 0.418670 0.685610 0.940886
P6    P     P_3+3 0.165830 0.581330 0.185610 0.939497
P7    P     P_3+3 0.665830 0.918670 0.685610 0.939500
P8    P     P_3+3 0.665830 0.081330 0.185610 0.934288
P9    P     P_3+3 0.102113 0.266357 0.105342 0.940757
P10   P     P_3+3 0.099989 0.734977 0.609878 0.921530
P11   P     P_3+3 0.601065 0.765159 0.104706 0.939772
P12   P     P_3+3 0.603276 0.232285 0.612508 0.901293
O25   O     O_2   0.157990 0.394030 0.856030 -0.451663
O26   O     O_2   0.157990 0.605970 0.356030 -0.458775
O27   O     O_2   0.657990 0.894030 0.856030 -0.457461
O28   O     O_2   0.657990 0.105970 0.356030 -0.457250
O29   O     O_3   0.027110 0.329490 0.059550 -0.483664
O30   O     O_3   0.027110 0.670510 0.559550 -0.467357
O31   O     O_3   0.527110 0.829490 0.059550 -0.483295
O32   O     O_3   0.527110 0.170510 0.559550 -0.491683
O33   O     O_2   0.159409 0.283015 0.999419 -0.481845
O34   O     O_2   0.151986 0.726159 0.488592 -0.504438
O35   O     O_2   0.657818 0.780935 0.996879 -0.483504
O36   O     O_2   0.658945 0.220546 0.499846 -0.507202
O37   O     O_3   0.242854 0.477156 0.749969 -0.640962
O38   O     O_3   0.246331 0.525483 0.248163 -0.638928
O39   O     O_3   0.742969 0.976022 0.747043 -0.641789
O40   O     O_3   0.746856 0.026314 0.249028 -0.641107
O41   O     O_3   0.063132 0.185811 0.029255 -0.592916
O42   O     O_3   0.055172 0.816701 0.560078 -0.607623
O43   O     O_3   0.561151 0.685122 0.027491 -0.587701
O44   O     O_3   0.565313 0.316205 0.562861 -0.622354
C5    C     C_3   0.003709 0.167608 0.105373 0.285413
C6    C     C_3   0.016490 0.838400 0.678538 0.309082
C7    C     C_3   0.503190 0.666049 0.106476 0.285473
C8    C     C_3   0.495470 0.323832 0.613735 0.257438
H13   H     H_    0.014137 0.187231 0.230345 -0.051157
H14   H     H_    0.954400 0.821781 0.643594 0.037910
H15   H     H_    0.515930 0.683813 0.232805 -0.053148
H16   H     H_    0.492026 0.291110 0.717723 -0.031458
H17   H     H_    0.001804 0.109356 0.111445 0.023696
H18   H     H_    0.042317 0.817124 0.799164 -0.034297
H19   H     H_    0.500771 0.607771 0.108647 0.023167
H20   H     H_    0.491563 0.379159 0.651461 0.030529
C9    C     C_3   0.925471 0.194192 0.009434 -0.255790
C10   C     C_3   0.020483 0.918193 0.691737 -0.410452
C11   C     C_3   0.424341 0.694061 0.017024 -0.256627
C12   C     C_3   0.427374 0.307165 0.476027 -0.279044
H21   H     H_    0.428167 0.746545 0.965430 0.188397
H22   H     H_    0.436260 0.255916 0.422869 0.193434
H23   H     H_    0.930316 0.245001 0.951021 0.193868
H24   H     H_    0.990659 0.943138 0.578822 0.107385
H25   H     H_    0.899977 0.155619 0.916087 0.111290
H26   H     H_    0.080333 0.936952 0.714088 0.110232
H27   H     H_    0.397907 0.658102 0.918607 0.114476
H28   H     H_    0.423528 0.348135 0.384816 0.124688
C13   C     C_3   0.274164 0.501991 0.116738 0.325724
C14   C     C_3   0.281687 0.490314 0.628193 0.336986
C15   C     C_3   0.775564 0.002690 0.118944 0.320786
C16   C     C_3   0.774293 0.992308 0.616764 0.324731
H29   H     H_    0.226210 0.498491 0.008324 0.100779
H30   H     H_    0.242778 0.482449 0.508289 0.067366
H31   H     H_    0.729536 0.002935 0.006718 0.092413
H32   H     H_    0.728893 0.993814 0.503415 0.090170
C17   C     C_3   0.337810 0.550188 0.086836 -0.443258
C18   C     C_3   0.352868 0.442423 0.649540 -0.441480
C19   C     C_3   0.843851 0.047524 0.099434 -0.448352
C20   C     C_3   0.837078 0.938963 0.606184 -0.431698
H33   H     H_    0.316470 0.604500 0.080992 0.085675
H34   H     H_    0.395675 0.453634 0.763726 0.108045
H35   H     H_    0.895674 0.038292 0.197790 0.111589
H36   H     H_    0.875466 0.933556 0.726441 0.122032
H37   H     H_    0.391291 0.545940 0.183051 0.108810
H38   H     H_    0.381089 0.449488 0.547669 0.086381
H39   H     H_    0.860926 0.033847 0.986791 0.106543
H40   H     H_    0.867514 0.956200 0.514043 0.099452
H41   H     H_    0.354303 0.535452 0.974360 0.112586
H42   H     H_    0.334624 0.387617 0.654398 0.086245
H43   H     H_    0.826551 0.103050 0.099436 0.092626
H44   H     H_    0.813866 0.886331 0.572816 0.075599
Ba1   Ba    Ba6+2 0.000000 0.447380 0.844850 1.611867
Ba2   Ba    Ba6+2 0.000000 0.552620 0.344850 1.607913
Ba3   Ba    Ba6+2 0.500000 0.947380 0.844850 1.606688
Ba4   Ba    Ba6+2 0.500000 0.052620 0.344850 1.592153
C21   C     C_3   0.710835 0.487434 0.050541 0.328106
C22   C     C_3   0.717400 0.511358 0.561475 0.323079
C23   C     C_3   0.213741 0.985878 0.054725 0.313538
C24   C     C_3   0.219459 0.011972 0.566318 0.341242
H45   H     H_    0.745377 0.477982 0.173731 0.063166
H46   H     H_    0.757089 0.515490 0.681196 0.078837
H47   H     H_    0.250923 0.984231 0.177504 0.078638
H48   H     H_    0.256389 0.024879 0.685742 0.063038
C25   C     C_3   0.640964 0.438329 0.012730 -0.444571
C26   C     C_3   0.651097 0.564527 0.545450 -0.443185
C27   C     C_3   0.154197 0.926189 0.030690 -0.440208
C28   C     C_3   0.146530 0.057724 0.535414 -0.445235
H49   H     H_    0.605918 0.446590 0.888813 0.112672
H50   H     H_    0.623444 0.571582 0.416891 0.115863
H51   H     H_    0.154803 0.897192 0.920967 0.115237
H52   H     H_    0.114977 0.050065 0.409176 0.122030
H53   H     H_    0.603639 0.448023 0.098829 0.081102
H54   H     H_    0.607854 0.545877 0.611961 0.090862
H55   H     H_    0.094362 0.945864 0.023121 0.096886
H56   H     H_    0.108880 0.043340 0.617421 0.089547
H57   H     H_    0.660772 0.383742 0.023132 0.088657
H58   H     H_    0.671879 0.615922 0.595438 0.073879
H59   H     H_    0.169075 0.886440 0.125341 0.071986
H60   H     H_    0.161209 0.113678 0.555441 0.079472
O45   O     O_3   0.092100 0.536880 0.086720 -0.509418
O46   O     O_3   0.092100 0.463120 0.586720 -0.505136
O47   O     O_3   0.592100 0.036880 0.086720 -0.509976
O48   O     O_3   0.592100 0.963120 0.586720 -0.507466
P13   P     P_3+3 0.893643 0.729153 0.072518 0.918496
P14   P     P_3+3 0.896770 0.269002 0.577593 0.930418
P15   P     P_3+3 0.392748 0.227850 0.070172 0.906199
P16   P     P_3+3 0.398103 0.767659 0.578544 0.929831
C29   C     C_3   0.994252 0.167728 0.571916 0.324495
C30   C     C_3   0.002218 0.821060 0.167286 0.341337
C31   C     C_3   0.494981 0.666343 0.567180 0.322070
C32   C     C_3   0.498813 0.319254 0.062431 0.252836
H61   H     H_    0.015529 0.210185 0.503713 -0.019639
H62   H     H_    0.029023 0.812542 0.063587 -0.028780
H63   H     H_    0.513623 0.708201 0.493862 -0.023523
H64   H     H_    0.499887 0.371550 0.006523 0.024654
H65   H     H_    0.499539 0.588016 0.384322 0.069445
H66   H     H_    0.621787 0.307267 0.175961 0.044709
H67   H     H_    0.000628 0.093354 0.384064 0.070735
H68   H     H_    0.991100 0.934048 0.137219 0.097817
H69   H     H_    0.386897 0.698693 0.102630 0.017434
H70   H     H_    0.372279 0.304579 0.515729 0.038290
H71   H     H_    0.886696 0.201940 0.091606 0.017621
H72   H     H_    0.997592 0.936997 0.793931 0.077590
C33   C     C_R   0.134693 0.680765 0.926785 -0.179746
C34   C     C_R   0.133174 0.318064 0.424872 -0.171186
C35   C     C_R   0.634774 0.180386 0.928032 -0.187955
C36   C     C_R   0.632151 0.817055 0.425610 -0.171014
C37   C     C_R   0.853361 0.327178 0.268611 -0.245525
C38   C     C_R   0.852226 0.670937 0.766163 -0.269404
C39   C     C_R   0.353810 0.826533 0.268694 -0.247280
C40   C     C_R   0.350473 0.169450 0.766268 -0.267567
C41   C     C_R   0.786698 0.218563 0.302702 -0.118225
C42   C     C_R   0.784832 0.779680 0.799051 -0.105702
C43   C     C_R   0.285965 0.718740 0.303227 -0.118090
C44   C     C_R   0.283759 0.278512 0.799495 -0.109576
C45   C     C_R   0.842283 0.270395 0.364300 -0.010802
C46   C     C_R   0.838869 0.726489 0.861894 0.008180
C47   C     C_R   0.342474 0.769832 0.364856 -0.019430
C48   C     C_R   0.337297 0.224907 0.861571 0.020610
C49   C     C_R   0.812712 0.333892 0.108934 0.005442
C50   C     C_R   0.812540 0.665337 0.606512 0.027690
C51   C     C_R   0.312988 0.833544 0.108892 0.008253
C52   C     C_R   0.311125 0.164375 0.606788 0.016323
C53   C     C_R   0.756575 0.278907 0.044423 -0.045148
C54   C     C_R   0.755104 0.719300 0.541440 -0.030887
C55   C     C_R   0.256773 0.778575 0.044017 -0.032885
C56   C     C_R   0.253959 0.218520 0.541742 -0.038001
C57   C     C_R   0.241459 0.721260 0.144145 -0.033670
C58   C     C_R   0.240009 0.277060 0.640527 -0.052918
C59   C     C_R   0.742257 0.220844 0.143851 -0.040356
C60   C     C_R   0.740440 0.777430 0.640480 -0.050815
C61   C     C_R   0.181732 0.668858 0.081784 0.028209
C62   C     C_R   0.181457 0.330734 0.578732 0.022513
C63   C     C_R   0.682291 0.168495 0.082135 0.028519
C64   C     C_R   0.680632 0.830183 0.579313 0.032081
C65   C     C_R   0.156498 0.730050 0.823377 0.002870
C66   C     C_R   0.152569 0.266055 0.322673 -0.005334
C67   C     C_R   0.655845 0.230404 0.825952 0.026591
C68   C     C_R   0.651819 0.765179 0.322988 -0.013028
C69   C     C_R   0.216592 0.777873 0.882333 -0.145017
C70   C     C_R   0.210866 0.216217 0.382287 -0.134597
C71   C     C_R   0.714614 0.279590 0.884240 -0.138029
C72   C     C_R   0.711291 0.716363 0.382447 -0.134003
H73   H     H_    0.276390 0.677795 0.381669 0.101671
H74   H     H_    0.276007 0.320688 0.877298 0.113468
H75   H     H_    0.777572 0.177357 0.381178 0.108777
H76   H     H_    0.776265 0.821555 0.876672 0.114702
H77   H     H_    0.724911 0.319956 0.804343 0.118775
H78   H     H_    0.721847 0.675448 0.303624 0.106541
H79   H     H_    0.229165 0.816222 0.801292 0.111459
H80   H     H_    0.220484 0.174591 0.303902 0.106378
H81   H     H_    0.892125 0.368918 0.322261 0.047984
H82   H     H_    0.891853 0.629400 0.819674 0.051329
H83   H     H_    0.392688 0.868184 0.322253 0.047262
H84   H     H_    0.390343 0.128020 0.819569 0.052741
C73   C     C_3   0.678853 0.563049 0.040820 -0.158846
C74   C     C_3   0.732865 0.614320 0.985974 -0.273990
H85   H     H_    0.718017 0.668169 0.014472 0.155182
H86   H     H_    0.725410 0.610409 0.855433 0.070873
H87   H     H_    0.794737 0.602433 0.042388 0.156721
H88   H     H_    0.621101 0.567277 0.954541 0.115604
H89   H     H_    0.669982 0.578720 0.159808 0.082475
C75   C     C_3   0.681951 0.437431 0.544326 -0.152737
C76   C     C_3   0.731153 0.385545 0.474821 -0.290824
H90   H     H_    0.794225 0.394888 0.524694 0.151704
H91   H     H_    0.716633 0.331746 0.502581 0.163321
H92   H     H_    0.718673 0.391041 0.343161 0.072081
H93   H     H_    0.675934 0.419111 0.663300 0.104536
H94   H     H_    0.622408 0.438356 0.465032 0.100401
C77   C     C_3   0.172036 0.057712 0.032893 -0.155572
C78   C     C_3   0.222892 0.114112 0.982727 -0.266099
H95   H     H_    0.285719 0.104211 0.035075 0.149114
H96   H     H_    0.207914 0.165881 0.022960 0.157015
H97   H     H_    0.213326 0.115240 0.850765 0.072382
H98   H     H_    0.116620 0.055338 0.939140 0.105764
H99   H     H_    0.157174 0.072985 0.147299 0.080953
C79   C     C_3   0.195854 0.934698 0.567874 -0.173009
C80   C     C_3   0.245045 0.886523 0.490771 -0.279130
H100  H     H_    0.307947 0.896273 0.540650 0.162027
H101  H     H_    0.229405 0.831566 0.507298 0.146576
H102  H     H_    0.233490 0.896853 0.362233 0.072252
H103  H     H_    0.201081 0.918135 0.691956 0.103127
H104  H     H_    0.134415 0.927107 0.505907 0.110363
C81   C     C_3   0.058286 0.643883 0.867885 -0.281686
H105  H     H_    0.031454 0.624072 0.957741 0.160322
H106  H     H_    0.013045 0.683140 0.815108 0.043623
H107  H     H_    0.064994 0.599294 0.788357 0.134784
C82   C     C_3   0.057567 0.356736 0.366600 -0.277550
H108  H     H_    0.030798 0.376404 0.457417 0.157688
H109  H     H_    0.064975 0.401437 0.288577 0.135084
H110  H     H_    0.012044 0.318427 0.312335 0.047353
C83   C     C_3   0.559352 0.141721 0.867757 -0.274047
H111  H     H_    0.531198 0.123387 0.957126 0.159438
H112  H     H_    0.513158 0.179198 0.812090 0.049465
H113  H     H_    0.567502 0.096839 0.790128 0.135290
C84   C     C_3   0.557057 0.856248 0.366624 -0.279735
H114  H     H_    0.530361 0.876573 0.456969 0.158579
H115  H     H_    0.565201 0.900745 0.288693 0.133105
H116  H     H_    0.511407 0.818143 0.311975 0.049915
C85   C     C_3   0.310120 0.429285 0.153375 -0.142885
C86   C     C_3   0.258643 0.382161 0.226606 -0.311076
H117  H     H_    0.268650 0.391790 0.356329 0.060753
H118  H     H_    0.196074 0.392105 0.171493 0.140915
H119  H     H_    0.273813 0.326968 0.210119 0.161145
H120  H     H_    0.319630 0.406275 0.041120 0.111757
H121  H     H_    0.367813 0.433482 0.238129 0.097344
C87   C     C_3   0.309247 0.566680 0.638671 -0.163435
C88   C     C_3   0.253142 0.616422 0.694178 -0.288970
H122  H     H_    0.191623 0.603500 0.638799 0.160911
H123  H     H_    0.259494 0.612599 0.823962 0.063252
H124  H     H_    0.266927 0.670825 0.666704 0.145114
H125  H     H_    0.367573 0.572481 0.721013 0.104946
H126  H     H_    0.314916 0.582494 0.518803 0.105530
C89   C     C_3   0.805480 0.927943 0.152735 -0.143197
C90   C     C_3   0.747308 0.883474 0.211935 -0.297533
H127  H     H_    0.765910 0.827929 0.213338 0.153506
H128  H     H_    0.687657 0.892293 0.139261 0.160534
H129  H     H_    0.744513 0.898858 0.333354 0.057046
H130  H     H_    0.817248 0.905994 0.041549 0.116829
H131  H     H_    0.860614 0.926829 0.246230 0.111766
C91   C     C_3   0.810870 0.065163 0.643569 -0.159015
C92   C     C_3   0.758878 0.116235 0.707584 -0.304812
H132  H     H_    0.696854 0.107725 0.648089 0.158086
H133  H     H_    0.776708 0.170523 0.689931 0.154498
H134  H     H_    0.763731 0.108242 0.836211 0.065329
H135  H     H_    0.869159 0.063180 0.727807 0.102104
H136  H     H_    0.818836 0.084470 0.527693 0.105684

loop_
_geom_bond_atom_site_label_1
_geom_bond_atom_site_label_2
_geom_bond_distance
_ccdc_geom_bond_type
C43   H73   1.069898 S    
C15   H31   1.107039 S    
C12   H28   1.096975 S    
C23   C77   1.537581 S    
O10   Ba2   2.874108 S    
O16   P15   1.540174 D    
C2    H8    1.094661 S    
P12   C67   1.854435 S    
C20   H44   1.095333 S    
P3    O19   1.734434 S    
C77   C78   1.524802 S    
C2    H10   1.103194 S    
C35   C67   1.402873 A    
C25   H49   1.111638 S    
P4    O4    1.575168 D    
O6    Ba1   2.876202 S    
C13   C85   1.519812 S    
C24   C79   1.529970 S    
C8    H20   1.106454 S    
C34   C82   1.497126 S    
C9    H23   1.102386 S    
C37   C45   1.399852 A    
Ba3   Ba4   4.743187 S    
C79   H104  1.098826 S    
C89   H131  1.107544 S    
C38   H82   1.080821 S    
P1    O17   1.749380 S    
P8    C63   1.936867 S    
C43   C57   1.410897 A    
O11   Ba3   2.871791 S    
C85   H120  1.104892 S    
C18   H38   1.109476 S    
C10   H72   1.104442 S    
C32   H64   1.107423 S    
O38   C13   1.400978 S    
C17   H37   1.102539 S    
C90   H127  1.102999 S    
C92   H133  1.101390 S    
C23   C27   1.529462 S    
O37   C14   1.397999 S    
C55   C69   1.406296 A    
P3    O3    1.572659 D    
P15   C48   1.833648 S    
C24   C28   1.517110 S    
C83   H111  1.064792 S    
P4    O20   1.728947 S    
C21   C73   1.536052 S    
O18   C22   1.403282 S    
C39   C47   1.402463 A    
C87   H125  1.109525 S    
C22   H46   1.105079 S    
O23   C31   1.399372 S    
C11   H69   1.096911 S    
O1    Ba1   2.938757 S    
C16   H32   1.108393 S    
C86   H118  1.108043 S    
P9    O29   1.754565 S    
Ba1   O46   3.047380 S    
P4    Ba4   3.529558 S    
C33   C61   1.414656 A    
P5    O46   1.612347 S    
C42   C46   1.404224 A    
C5    H17   1.110005 S    
O32   Ba4   2.871147 S    
P4    C52   1.904653 S    
C75   C76   1.517298 S    
C16   C91   1.525151 S    
C40   C48   1.384260 A    
P12   O32   1.764792 S    
Ba3   O48   3.047380 S    
P5    O37   1.745148 S    
C9    H25   1.103547 S    
P6    C61   1.941773 S    
C54   C60   1.450917 A    
C22   C75   1.533871 S    
O7    Ba4   2.881710 S    
C33   C81   1.499360 S    
P5    C62   1.953877 S    
C53   C71   1.404097 A    
C37   C49   1.399287 A    
C11   H27   1.103974 S    
O42   C6    1.407470 S    
O24   P15   1.741599 S    
O41   C5    1.399023 S    
C77   H98   1.113165 S    
P4    O8    1.607106 S    
C10   H26   1.087046 S    
C84   H114  1.065752 S    
C8    C12   1.511406 S    
C6    H14   1.110741 S    
O28   Ba4   2.942385 S    
C49   C53   1.459994 A    
C28   H52   1.108520 S    
C78   H96   1.093118 S    
C74   H86   1.101266 S    
C56   C70   1.405531 A    
C92   H132  1.105099 S    
C80   H101  1.099838 S    
P8    O47   1.618230 S    
Ba4   O48   2.876149 S    
P7    O27   1.574472 D    
P5    O25   1.574472 D    
C36   C64   1.419824 A    
P9    O41   1.744692 S    
C88   H122  1.105351 S    
C18   H42   1.095767 S    
C75   H94   1.109791 S    
O15   P16   1.537594 D    
C86   H119  1.098110 S    
C17   H41   1.105840 S    
P2    O2    1.575168 D    
P11   O43   1.744124 S    
C6    H18   1.107841 S    
C2    H68   1.110729 S    
O13   P14   1.537379 D    
C24   H48   1.108539 S    
P7    O39   1.729564 S    
C76   H92   1.106715 S    
P3    Ba3   3.535676 S    
O5    Ba2   2.881710 S    
C50   C54   1.454442 A    
Ba3   O47   2.881660 S    
C79   H103  1.095584 S    
P2    Ba2   3.529558 S    
P11   O31   1.757209 S    
O31   Ba3   2.873472 S    
C26   H58   1.096781 S    
P14   C45   1.862570 S    
O27   Ba3   2.931300 S    
C80   H102  1.094015 S    
O30   Ba2   2.871147 S    
C16   C20   1.512320 S    
C74   H85   1.096086 S    
C85   H121  1.107243 S    
H4    C32   1.106081 S    
C91   H135  1.110645 S    
P10   O30   1.758218 S    
Ba2   O45   3.044506 S    
C8    H16   1.103103 S    
C92   H134  1.099518 S    
P11   O35   1.540302 D    
C56   C58   1.451700 A    
C40   C52   1.389096 A    
C70   H80   1.075542 S    
O20   C24   1.400733 S    
C83   H112  1.100867 S    
C41   C45   1.406009 A    
P11   C68   1.882503 S    
O4    Ba4   2.927784 S    
H1    C29   1.108931 S    
C12   H70   1.099424 S    
P5    Ba1   3.531836 S    
C14   H30   1.108103 S    
C67   C71   1.401270 A    
C54   C72   1.406660 A    
C73   H89   1.108820 S    
C78   H97   1.107524 S    
P8    O40   1.745699 S    
C20   H36   1.101146 S    
C44   C48   1.403295 A    
C82   H109  1.110297 S    
C69   H79   1.067824 S    
C27   H51   1.093108 S    
P2    O18   1.739719 S    
P12   O44   1.741558 S    
C43   C47   1.406275 A    
C60   C64   1.457149 A    
C26   H54   1.110655 S    
O9    Ba1   2.871791 S    
C66   C70   1.399885 A    
C13   H29   1.105363 S    
C81   H106  1.106279 S    
C52   C56   1.453963 A    
C34   C62   1.418050 A    
C65   C69   1.400719 A    
C68   C72   1.400116 A    
C19   H39   1.107110 S    
P6    O26   1.571967 D    
O12   P15   1.757018 S    
C4    H66   1.101043 S    
C73   C74   1.513925 S    
Ba1   Ba2   4.743187 S    
C42   C60   1.406463 A    
O44   C8    1.401055 S    
C41   H75   1.071347 S    
C36   C68   1.414847 A    
C1    H7    1.106553 S    
C6    C10   1.521976 S    
C57   C61   1.460442 A    
C76   H91   1.095698 S    
C5    C9    1.516038 S    
O11   P16   1.747360 S    
C28   H60   1.100002 S    
O14   P13   1.539642 D    
C14   C87   1.529259 S    
O39   C16   1.392341 S    
P1    O5    1.612920 S    
C58   C62   1.456483 A    
C36   C84   1.495566 S    
C71   H77   1.074336 S    
C7    C11   1.516022 S    
Ba4   O47   3.044506 S    
C12   H22   1.100666 S    
C1    C29   1.511650 S    
C4    C32   1.509543 S    
C44   C58   1.405251 A    
C90   H128  1.102067 S    
C88   H123  1.097336 S    
O24   C32   1.403261 S    
P12   O36   1.541288 D    
C75   H93   1.108658 S    
P10   O34   1.544049 D    
P1    O1    1.572659 D    
C4    H12   1.103104 S    
C25   H57   1.090088 S    
O2    Ba2   2.927784 S    
O17   C21   1.405578 S    
C53   C59   1.455449 A    
P2    O6    1.607106 S    
C29   H61   1.114136 S    
C82   H108  1.065506 S    
C3    H11   1.104133 S    
P9    C66   1.873983 S    
C3    H5    1.108211 S    
O19   C23   1.398802 S    
C18   H34   1.111550 S    
P16   C47   1.871625 S    
C21   C25   1.521138 S    
O23   P16   1.741050 S    
H2    C30   1.109735 S    
C17   H33   1.093917 S    
C79   C80   1.508752 S    
C2    C30   1.512798 S    
P1    Ba1   3.535676 S    
C51   C55   1.461299 A    
O21   P14   1.741628 S    
C89   H130  1.103362 S    
O22   C30   1.390708 S    
C19   H35   1.104279 S    
C13   C17   1.517279 S    
Ba1   O45   2.881660 S    
C90   H129  1.094611 S    
P6    Ba2   3.538092 S    
P2    C50   1.911120 S    
C41   C59   1.408713 A    
O3    Ba3   2.938757 S    
C59   C63   1.461349 A    
C26   H50   1.107862 S    
C83   H113  1.110607 S    
C33   C65   1.406726 A    
C80   H100  1.106501 S    
C42   H76   1.069413 S    
P6    O38   1.747427 S    
P7    Ba3   3.531836 S    
C91   H136  1.100843 S    
P8    O28   1.571967 D    
C74   H87   1.106240 S    
C15   C19   1.516633 S    
C27   H59   1.097117 S    
C73   H88   1.113379 S    
C19   H43   1.096953 S    
C77   H99   1.111073 S    
C82   H110  1.105356 S    
C1    H9    1.103748 S    
C20   H40   1.103674 S    
C81   H107  1.110259 S    
C11   H21   1.101543 S    
O12   Ba4   2.874108 S    
O40   C15   1.399852 S    
C35   C63   1.411539 A    
O10   P13   1.758961 S    
C84   H115  1.110279 S    
O25   Ba1   2.931300 S    
C35   C83   1.503249 S    
C4    H6    1.101693 S    
O43   C7    1.397439 S    
C87   C88   1.515666 S    
C87   H126  1.099952 S    
P9    O33   1.539058 D    
C7    H19   1.109510 S    
C72   H78   1.073236 S    
C81   H105  1.063487 S    
O8    Ba3   2.876202 S    
C14   C18   1.519769 S    
C38   C50   1.392734 A    
C27   H55   1.101840 S    
C78   H95   1.107507 S    
C3    H65   1.098024 S    
C1    H67   1.095055 S    
P7    C64   1.956882 S    
C40   H84   1.081182 S    
C31   H63   1.112564 S    
P10   O42   1.746949 S    
P3    C51   1.944193 S    
C84   H116  1.105041 S    
C23   H47   1.106265 S    
O9    P14   1.747356 S    
Ba2   O46   2.876149 S    
C3    C31   1.515128 S    
P3    O7    1.612920 S    
C30   H62   1.110518 S    
O21   C29   1.401186 S    
O29   Ba1   2.873472 S    
C38   C46   1.388911 A    
P10   C65   1.876734 S    
C21   H45   1.106937 S    
C44   H74   1.070776 S    
O26   Ba2   2.942385 S    
C9    H71   1.097245 S    
C39   C51   1.401589 A    
P7    O48   1.612347 S    
C22   C26   1.520491 S    
C28   H56   1.107394 S    
P8    Ba4   3.538092 S    
P13   C46   1.844813 S    
C88   H124  1.102176 S    
C39   H83   1.079765 S    
C89   C90   1.506636 S    
C34   C66   1.412317 A    
C5    H13   1.110920 S    
C86   H117  1.102705 S    
C91   C92   1.516066 S    
O22   P13   1.735023 S    
C10   H24   1.098332 S    
C25   H53   1.110149 S    
C37   H81   1.080157 S    
P6    O45   1.618230 S    
C85   C86   1.513557 S    
C7    H15   1.108938 S    
H3    C31   1.106532 S    
C76   H90   1.107921 S    
C15   C89   1.517753 S    
C55   C57   1.454062 A    
P1    C49   1.940290 S    
