data_mof_unit_64234.cif
_audit_creation_date              2012-12-10T18:10:02-0500
_audit_creation_method            fapswitch 2.2
_symmetry_space_group_name_H-M    P1
_symmetry_Int_Tables_number       1
_space_group_crystal_system       orthorhombic
_cell_length_a                    18.357364
_cell_length_b                    18.357363
_cell_length_c                    60.0435
_cell_angle_alpha                 90.0
_cell_angle_beta                  90.0
_cell_angle_gamma                 90.0
_cell_volume                      20234.2268668

loop_
_atom_site_label
_atom_site_type_symbol
_atom_type_description
_atom_site_fract_x
_atom_site_fract_y
_atom_site_fract_z
_atom_type_partial_charge
C1    C     C_R   0.500000 0.000000 0.810421 0.799352
C2    C     C_R   0.495047 0.934079 0.440873 -0.025776
C3    C     C_R   0.859733 0.640327 0.750016 0.799174
C4    C     C_R   0.359673 0.859733 0.249984 0.799174
C5    C     C_R   0.640267 0.140327 0.749984 0.799174
C6    C     C_R   0.859673 0.640267 0.250016 0.799174
C7    C     C_R   0.140267 0.359673 0.750016 0.799174
C8    C     C_R   0.755719 0.190881 0.735404 -0.174393
C9    C     C_R   0.243983 0.809411 0.264443 -0.181218
C10   C     C_R   0.809411 0.756017 0.735557 -0.181218
C11   C     C_R   0.190880 0.244281 0.264596 -0.174393
C12   C     C_R   0.244281 0.809119 0.735404 -0.174393
C13   C     C_R   0.934079 0.504953 0.559127 -0.025776
C14   C     C_R   0.756017 0.190589 0.264443 -0.181218
C15   C     C_R   0.190589 0.243983 0.735557 -0.181218
C16   C     C_R   0.809119 0.755719 0.264596 -0.174393
C17   C     C_R   0.755719 0.809119 0.264596 -0.174393
C18   C     C_R   0.243983 0.190589 0.735557 -0.181218
C19   C     C_R   0.809411 0.243983 0.264443 -0.181218
C20   C     C_R   0.190881 0.755719 0.735404 -0.174393
C21   C     C_R   0.244281 0.190880 0.264596 -0.174393
C22   C     C_R   0.756017 0.809411 0.735557 -0.181218
C23   C     C_R   0.190589 0.756017 0.264443 -0.181218
C24   C     C_R   0.065921 0.504952 0.440873 -0.025776
C25   C     C_R   0.809119 0.244281 0.735404 -0.174393
C26   C     C_R   0.255719 0.690881 0.235404 -0.174393
C27   C     C_R   0.743983 0.309411 0.764443 -0.181218
C28   C     C_R   0.309411 0.256017 0.235557 -0.181218
C29   C     C_R   0.690881 0.744281 0.764596 -0.174393
C30   C     C_R   0.744281 0.309119 0.235404 -0.174393
C31   C     C_R   0.256017 0.690589 0.764443 -0.181218
C32   C     C_R   0.690589 0.743983 0.235557 -0.181218
C33   C     C_R   0.309119 0.255719 0.764596 -0.174393
C34   C     C_R   0.255719 0.309119 0.764596 -0.174393
C35   C     C_R   0.504952 0.934079 0.559127 -0.025776
C36   C     C_R   0.743983 0.690589 0.235557 -0.181218
C37   C     C_R   0.309411 0.743983 0.764443 -0.181218
C38   C     C_R   0.690880 0.255719 0.235404 -0.174393
C39   C     C_R   0.744281 0.690881 0.764596 -0.174393
C40   C     C_R   0.256017 0.309411 0.235557 -0.181218
C41   C     C_R   0.690589 0.256017 0.764443 -0.181218
C42   C     C_R   0.309119 0.744281 0.235404 -0.174393
C43   C     C_R   0.803548 0.303762 0.749942 0.000872
C44   C     C_R   0.196238 0.696452 0.249943 0.000872
C45   C     C_R   0.696452 0.803762 0.750057 0.000872
C46   C     C_R   0.504953 0.065921 0.440873 -0.025776
C47   C     C_R   0.303762 0.196452 0.250057 0.000872
C48   C     C_R   0.196452 0.696238 0.749942 0.000872
C49   C     C_R   0.803762 0.303548 0.249943 0.000872
C50   C     C_R   0.303548 0.196238 0.750057 0.000872
C51   C     C_R   0.696238 0.803548 0.250057 0.000872
C52   C     C_R   0.803548 0.696238 0.250057 0.000872
C53   C     C_R   0.196238 0.303548 0.750057 0.000872
C54   C     C_R   0.696452 0.196238 0.249943 0.000872
C55   C     C_R   0.303762 0.803548 0.749942 0.000872
C56   C     C_R   0.196452 0.303762 0.250057 0.000872
C57   C     C_R   0.065921 0.495047 0.559127 -0.025776
C58   C     C_R   0.803762 0.696452 0.750057 0.000872
C59   C     C_R   0.303548 0.803762 0.249943 0.000872
C60   C     C_R   0.696238 0.196452 0.749942 0.000872
C61   C     C_R   0.494396 0.064686 0.582534 0.511784
C62   C     C_R   0.494396 0.935314 0.417465 0.511784
C63   C     C_R   0.935314 0.505604 0.582534 0.511784
C64   C     C_R   0.064686 0.505604 0.417465 0.511784
C65   C     C_R   0.505604 0.935314 0.582534 0.511784
C66   C     C_R   0.505604 0.064686 0.417465 0.511783
C67   C     C_R   0.064686 0.494396 0.582534 0.511784
C68   C     C_R   0.934079 0.495048 0.440873 -0.025776
C69   C     C_R   0.935314 0.494396 0.417465 0.511784
C70   C     C_R   0.994397 0.564686 0.082534 0.511784
C71   C     C_R   0.994395 0.435314 0.917466 0.511784
C72   C     C_R   0.435314 0.005604 0.082534 0.511784
C73   C     C_R   0.564686 0.005604 0.917466 0.511784
C74   C     C_R   0.005603 0.435314 0.082534 0.511783
C75   C     C_R   0.005605 0.564686 0.917466 0.511783
C76   C     C_R   0.564686 0.994396 0.082534 0.511784
C77   C     C_R   0.435314 0.994396 0.917466 0.511784
C78   C     C_R   0.444920 0.963935 0.629482 -0.140422
C79   C     C_R   0.995048 0.565921 0.059127 -0.025776
C80   C     C_R   0.444920 0.036065 0.370518 -0.140422
C81   C     C_R   0.036065 0.555080 0.629482 -0.140422
C82   C     C_R   0.963935 0.555080 0.370518 -0.140422
C83   C     C_R   0.555080 0.036064 0.629482 -0.140422
C84   C     C_R   0.555080 0.963935 0.370518 -0.140422
C85   C     C_R   0.963935 0.444920 0.629482 -0.140422
C86   C     C_R   0.036065 0.444920 0.370518 -0.140422
C87   C     C_R   0.944920 0.463936 0.129481 -0.140422
C88   C     C_R   0.944920 0.536065 0.870518 -0.140422
C89   C     C_R   0.536065 0.055080 0.129481 -0.140422
C90   C     C_R   0.995047 0.434079 0.940873 -0.025776
C91   C     C_R   0.463935 0.055080 0.870518 -0.140422
C92   C     C_R   0.055080 0.536064 0.129481 -0.140422
C93   C     C_R   0.055080 0.463935 0.870518 -0.140422
C94   C     C_R   0.463935 0.944920 0.129482 -0.140422
C95   C     C_R   0.536065 0.944920 0.870518 -0.140423
C96   C     C_R   0.444594 0.963181 0.652770 -0.053831
C97   C     C_R   0.444594 0.036819 0.347230 -0.053831
C98   C     C_R   0.036819 0.555406 0.652770 -0.053831
C99   C     C_R   0.963181 0.555406 0.347230 -0.053831
C100  C     C_R   0.555406 0.036819 0.652770 -0.053831
C101  C     C_R   0.434079 0.004952 0.059127 -0.025776
C102  C     C_R   0.555406 0.963181 0.347230 -0.053831
C103  C     C_R   0.963181 0.444594 0.652770 -0.053831
C104  C     C_R   0.036819 0.444594 0.347230 -0.053831
C105  C     C_R   0.944594 0.463181 0.152770 -0.053831
C106  C     C_R   0.944594 0.536819 0.847230 -0.053831
C107  C     C_R   0.536819 0.055406 0.152770 -0.053831
C108  C     C_R   0.463181 0.055406 0.847230 -0.053831
C109  C     C_R   0.055406 0.536818 0.152770 -0.053831
C110  C     C_R   0.055405 0.463181 0.847230 -0.053831
C111  C     C_R   0.463181 0.944594 0.152770 -0.053831
C112  C     C_R   0.500000 1.000000 0.189579 0.799350
C113  C     C_R   0.565921 0.004952 0.940873 -0.025776
C114  C     C_R   0.536819 0.944594 0.847230 -0.053831
C115  C     C_R   0.500000 0.000000 0.617763 0.276007
C116  C     C_R   0.500000 1.000000 0.382237 0.276007
C117  C     C_R   0.000000 0.500000 0.617763 0.276007
C118  C     C_R   1.000000 0.500000 0.382237 0.276007
C119  C     C_R   1.000000 0.500000 0.117763 0.276007
C120  C     C_R   1.000000 0.500000 0.882237 0.276007
C121  C     C_R   0.500000 1.000000 0.117763 0.276006
C122  C     C_R   0.500000 1.000000 0.882237 0.276007
C123  C     C_R   0.500000 0.000000 0.547247 -0.049770
C124  C     C_R   0.004952 0.434079 0.059127 -0.025776
C125  C     C_R   0.500000 1.000000 0.452753 -0.049770
C126  C     C_R   0.000000 0.500000 0.547247 -0.049770
C127  C     C_R   1.000000 0.500000 0.452753 -0.049770
C128  C     C_R   1.000000 0.500000 0.047247 -0.049770
C129  C     C_R   1.000000 0.500000 0.952753 -0.049770
C130  C     C_R   0.500000 1.000000 0.047247 -0.049770
C131  C     C_R   0.500000 1.000000 0.952753 -0.049770
C132  C     C_1   0.612118 0.077961 0.663751 0.215695
C133  C     C_1   0.612118 0.922038 0.336249 0.215695
C134  C     C_1   0.922038 0.387882 0.663751 0.215695
C135  C     C_R   0.004953 0.565921 0.940873 -0.025777
C136  C     C_1   0.077961 0.387882 0.336249 0.215696
C137  C     C_1   0.387882 0.922039 0.663751 0.215695
C138  C     C_1   0.387882 0.077962 0.336249 0.215695
C139  C     C_1   0.077961 0.612118 0.663751 0.215695
C140  C     C_1   0.922039 0.612118 0.336249 0.215695
C141  C     C_1   0.112118 0.577961 0.163751 0.215695
C142  C     C_1   0.112117 0.422038 0.836249 0.215695
C143  C     C_1   0.422038 0.887882 0.163751 0.215695
C144  C     C_1   0.577961 0.887882 0.836249 0.215696
C145  C     C_1   0.887882 0.422039 0.163751 0.215696
C146  C     C_R   0.565921 0.995047 0.059127 -0.025776
C147  C     C_1   0.887883 0.577962 0.836249 0.215695
C148  C     C_1   0.577961 0.112118 0.163751 0.215695
C149  C     C_1   0.422039 0.112118 0.836249 0.215695
C150  C     C_R   0.434079 0.995048 0.940873 -0.025776
C151  C     C_R   0.490177 0.131539 0.547450 -0.132617
C152  C     C_R   0.490175 0.868461 0.452550 -0.132617
C153  C     C_R   0.868461 0.509824 0.547450 -0.132617
C154  C     C_R   0.131539 0.509824 0.452550 -0.132616
C155  C     C_R   0.509823 0.868461 0.547450 -0.132617
C156  C     C_R   0.000000 0.500000 0.810421 0.799352
C157  C     C_R   0.509824 0.131539 0.452550 -0.132617
C158  C     C_R   0.131539 0.490176 0.547450 -0.132617
C159  C     C_R   0.868461 0.490176 0.452550 -0.132617
C160  C     C_R   0.990177 0.631539 0.047450 -0.132617
C161  C     C_R   0.990175 0.368461 0.952550 -0.132617
C162  C     C_R   0.368461 0.009824 0.047450 -0.132617
C163  C     C_R   0.631539 0.009824 0.952550 -0.132617
C164  C     C_R   0.009823 0.368461 0.047450 -0.132617
C165  C     C_R   0.009825 0.631539 0.952550 -0.132617
C166  C     C_R   0.631539 0.990176 0.047450 -0.132617
C167  C     C_R   1.000000 0.500000 0.189579 0.799349
C168  C     C_R   0.368461 0.990176 0.952550 -0.132617
C169  C     C_R   0.500000 0.000000 0.664821 -0.106915
C170  C     C_R   0.500000 1.000000 0.335179 -0.106913
C171  C     C_R   0.000000 0.500000 0.664821 -0.106915
C172  C     C_R   1.000000 0.500000 0.335179 -0.106914
C173  C     C_R   1.000000 0.500000 0.164821 -0.106915
C174  C     C_R   1.000000 0.500000 0.835179 -0.106913
C175  C     C_R   0.500000 1.000000 0.164821 -0.106915
C176  C     C_R   0.500000 1.000000 0.835179 -0.106914
C177  C     C_R   0.001935 0.567233 0.988168 0.044110
C178  C     C_R   1.000000 0.500000 0.310421 0.799352
C179  C     C_R   0.001933 0.432767 0.011832 0.044111
C180  C     C_R   0.432767 0.998066 0.988168 0.044111
C181  C     C_R   0.567233 0.998066 0.011832 0.044110
C182  C     C_R   0.998065 0.432767 0.988168 0.044111
C183  C     C_R   0.998066 0.567233 0.011832 0.044111
C184  C     C_R   0.567233 0.001934 0.988168 0.044110
C185  C     C_R   0.432767 0.001934 0.011832 0.044111
C186  C     C_R   0.501934 0.067233 0.488168 0.044110
C187  C     C_R   0.501934 0.932767 0.511832 0.044111
C188  C     C_R   0.932767 0.498066 0.488168 0.044111
C189  C     C_R   0.000000 0.500000 0.689579 0.799350
C190  C     C_R   0.067233 0.498066 0.511832 0.044110
C191  C     C_R   0.498065 0.932767 0.488168 0.044110
C192  C     C_R   0.498066 0.067233 0.511832 0.044111
C193  C     C_R   0.067233 0.501934 0.488168 0.044111
C194  C     C_R   0.932767 0.501934 0.511832 0.044110
C195  C     C_R   0.000000 0.500000 0.976458 0.074285
C196  C     C_R   0.000000 0.500000 0.023542 0.074285
C197  C     C_R   0.500000 0.000000 0.976458 0.074286
C198  C     C_R   0.500000 0.000000 0.023542 0.074286
C199  C     C_R   0.500000 1.000000 0.476458 0.074285
C200  C     C_R   0.500000 1.000000 0.310421 0.799352
C201  C     C_R   0.500000 0.000000 0.523542 0.074286
C202  C     C_R   1.000000 0.500000 0.476458 0.074285
C203  C     C_R   0.000000 0.500000 0.523542 0.074285
C204  C     C_R   0.008311 0.632349 0.975690 -0.211484
C205  C     C_R   0.008309 0.367651 0.024309 -0.211485
C206  C     C_R   0.367651 0.991690 0.975691 -0.211485
C207  C     C_R   0.632349 0.991690 0.024310 -0.211485
C208  C     C_R   0.991689 0.367651 0.975690 -0.211485
C209  C     C_R   0.991691 0.632349 0.024309 -0.211485
C210  C     C_R   0.632349 0.008310 0.975690 -0.211485
C211  C     C_R   0.500000 0.000000 0.689579 0.799349
C212  C     C_R   0.367651 0.008310 0.024310 -0.211485
C213  C     C_R   0.508310 0.132349 0.475690 -0.211484
C214  C     C_R   0.508310 0.867651 0.524309 -0.211485
C215  C     C_R   0.867651 0.491690 0.475691 -0.211486
C216  C     C_R   0.132349 0.491690 0.524309 -0.211485
C217  C     C_R   0.491689 0.867651 0.475690 -0.211485
C218  C     C_R   0.491690 0.132349 0.524309 -0.211486
C219  C     C_R   0.132349 0.508310 0.475690 -0.211485
C220  C     C_R   0.867651 0.508310 0.524309 -0.211484
C221  C     C_R   0.640327 0.859733 0.750016 0.799174
C222  C     C_R   0.495048 0.065921 0.559127 -0.025776
C223  C     C_R   0.359733 0.140327 0.250016 0.799174
C224  C     C_R   0.140327 0.640267 0.749984 0.799174
C225  C     C_R   0.859733 0.359673 0.249984 0.799174
C226  C     C_R   0.359673 0.140267 0.750016 0.799174
C227  C     C_R   0.640267 0.859673 0.250016 0.799174
C228  C     C_R   0.859673 0.359733 0.749984 0.799174
C229  C     C_R   0.140267 0.640327 0.249984 0.799174
C230  C     C_R   0.640327 0.140267 0.249984 0.799174
C231  C     C_R   0.359733 0.859673 0.749984 0.799174
C232  C     C_R   0.140327 0.359733 0.250016 0.799174
H1    H     H_    0.761035 0.145378 0.724033 0.171138
H2    H     H_    0.238633 0.145066 0.724197 0.166676
H3    H     H_    0.854934 0.238633 0.275803 0.166676
H4    H     H_    0.145378 0.761035 0.724033 0.171138
H5    H     H_    0.238965 0.145378 0.275966 0.171138
H6    H     H_    0.761367 0.854934 0.724197 0.166676
H7    H     H_    0.145066 0.761367 0.275803 0.166676
H8    H     H_    0.854622 0.238965 0.724033 0.171138
H9    H     H_    0.261035 0.645378 0.224033 0.171138
H10   H     H_    0.738633 0.354934 0.775802 0.166676
H11   H     H_    0.354934 0.261367 0.224197 0.166676
H12   H     H_    0.238633 0.854934 0.275803 0.166676
H13   H     H_    0.645378 0.738965 0.775966 0.171138
H14   H     H_    0.738965 0.354622 0.224033 0.171138
H15   H     H_    0.261367 0.645066 0.775802 0.166676
H16   H     H_    0.645066 0.738633 0.224197 0.166676
H17   H     H_    0.354622 0.261035 0.775966 0.171138
H18   H     H_    0.261035 0.354622 0.775966 0.171138
H19   H     H_    0.738633 0.645066 0.224197 0.166676
H20   H     H_    0.354934 0.738633 0.775802 0.166676
H21   H     H_    0.645378 0.261035 0.224033 0.171138
H22   H     H_    0.738965 0.645378 0.775966 0.171138
H23   H     H_    0.854934 0.761367 0.724197 0.166676
H24   H     H_    0.261367 0.354934 0.224197 0.166676
H25   H     H_    0.645066 0.261367 0.775802 0.166676
H26   H     H_    0.354622 0.738965 0.224033 0.171138
H27   H     H_    0.597674 0.063936 0.620318 0.156223
H28   H     H_    0.597674 0.936063 0.379681 0.156222
H29   H     H_    0.936063 0.402326 0.620318 0.156223
H30   H     H_    0.063936 0.402326 0.379681 0.156223
H31   H     H_    0.402326 0.936064 0.620318 0.156223
H32   H     H_    0.402326 0.063937 0.379681 0.156222
H33   H     H_    0.063937 0.597674 0.620318 0.156223
H34   H     H_    0.145378 0.238965 0.275966 0.171138
H35   H     H_    0.936064 0.597674 0.379681 0.156223
H36   H     H_    0.097674 0.563936 0.120318 0.156223
H37   H     H_    0.097673 0.436063 0.879681 0.156222
H38   H     H_    0.436063 0.902326 0.120318 0.156223
H39   H     H_    0.563936 0.902326 0.879681 0.156223
H40   H     H_    0.902326 0.436064 0.120318 0.156223
H41   H     H_    0.902327 0.563937 0.879681 0.156223
H42   H     H_    0.563937 0.097674 0.120318 0.156223
H43   H     H_    0.436063 0.097674 0.879681 0.156223
H44   H     H_    0.485243 0.182970 0.556173 0.191652
H45   H     H_    0.238965 0.854622 0.724033 0.171138
H46   H     H_    0.485242 0.817030 0.443827 0.191652
H47   H     H_    0.817030 0.514758 0.556173 0.191652
H48   H     H_    0.182970 0.514757 0.443827 0.191652
H49   H     H_    0.514757 0.817030 0.556173 0.191652
H50   H     H_    0.514758 0.182970 0.443827 0.191652
H51   H     H_    0.182969 0.485242 0.556173 0.191652
H52   H     H_    0.817030 0.485243 0.443827 0.191652
H53   H     H_    0.985244 0.682970 0.056173 0.191652
H54   H     H_    0.985241 0.317030 0.943827 0.191652
H55   H     H_    0.317030 0.014758 0.056173 0.191652
H56   H     H_    0.761367 0.145066 0.275803 0.166676
H57   H     H_    0.682969 0.014757 0.943827 0.191652
H58   H     H_    0.014756 0.317030 0.056173 0.191652
H59   H     H_    0.014759 0.682969 0.943827 0.191652
H60   H     H_    0.682969 0.985242 0.056173 0.191652
H61   H     H_    0.317030 0.985243 0.943827 0.191652
H62   H     H_    0.013924 0.685164 0.983295 0.143986
H63   H     H_    0.013921 0.314835 0.016705 0.143986
H64   H     H_    0.314835 0.986077 0.983295 0.143986
H65   H     H_    0.685165 0.986077 0.016705 0.143986
H66   H     H_    0.986075 0.314835 0.983295 0.143986
H67   H     H_    0.145066 0.238633 0.724197 0.166676
H68   H     H_    0.986079 0.685165 0.016705 0.143986
H69   H     H_    0.685165 0.013922 0.983295 0.143986
H70   H     H_    0.314835 0.013923 0.016705 0.143986
H71   H     H_    0.513923 0.185165 0.483295 0.143986
H72   H     H_    0.513922 0.814835 0.516705 0.143986
H73   H     H_    0.814835 0.486078 0.483295 0.143986
H74   H     H_    0.185165 0.486077 0.516705 0.143986
H75   H     H_    0.486077 0.814835 0.483295 0.143986
H76   H     H_    0.486078 0.185165 0.516705 0.143986
H77   H     H_    0.185165 0.513922 0.483295 0.143986
H78   H     H_    0.854622 0.761035 0.275966 0.171138
H79   H     H_    0.814835 0.513923 0.516705 0.143986
H80   H     H_    0.761035 0.854622 0.275966 0.171138
N1    N     N_R   0.500000 0.000000 0.593777 -0.346064
N2    N     N_1   0.657538 0.889040 0.327474 -0.189022
N3    N     N_1   0.889040 0.342461 0.672525 -0.189022
N4    N     N_1   0.110959 0.342461 0.327474 -0.189022
N5    N     N_1   0.342461 0.889041 0.672525 -0.189022
N6    N     N_1   0.342462 0.110960 0.327474 -0.189022
N7    N     N_1   0.110960 0.657538 0.672525 -0.189022
N8    N     N_1   0.889041 0.657539 0.327474 -0.189021
N9    N     N_1   0.157539 0.610958 0.172525 -0.189022
N10   N     N_1   0.157538 0.389039 0.827474 -0.189022
N11   N     N_1   0.389040 0.842462 0.172525 -0.189022
N12   N     N_R   0.500000 1.000000 0.406223 -0.346064
N13   N     N_1   0.610959 0.842461 0.827474 -0.189022
N14   N     N_1   0.842461 0.389041 0.172525 -0.189022
N15   N     N_1   0.842462 0.610960 0.827474 -0.189022
N16   N     N_1   0.610960 0.157538 0.172525 -0.189022
N17   N     N_1   0.389041 0.157539 0.827474 -0.189022
N18   N     N_R   0.000000 0.500000 0.593777 -0.346064
N19   N     N_R   1.000000 0.500000 0.406223 -0.346064
N20   N     N_R   1.000000 0.500000 0.093777 -0.346064
N21   N     N_R   1.000000 0.500000 0.906223 -0.346064
N22   N     N_R   0.500000 1.000000 0.093777 -0.346064
N23   N     N_R   0.500000 1.000000 0.906223 -0.346064
N24   N     N_1   0.657539 0.110959 0.672525 -0.189022
O1    O     O_3   0.500000 1.000000 0.750000 -0.481951
O2    O     O_R   0.500000 0.060550 0.200300 -0.633248
O3    O     O_R   0.060550 0.500000 0.799700 -0.633249
O4    O     O_R   0.939450 0.500000 0.200300 -0.633248
O5    O     O_R   1.000000 0.560550 0.299700 -0.633249
O6    O     O_R   1.000000 0.439450 0.700300 -0.633248
O7    O     O_R   0.439450 1.000000 0.299700 -0.633249
O8    O     O_R   0.560550 0.000000 0.700300 -0.633248
O9    O     O_R   1.000000 0.439450 0.299700 -0.633249
O10   O     O_R   1.000000 0.560550 0.700300 -0.633248
O11   O     O_R   0.560550 1.000000 0.299700 -0.633249
O12   O     O_3   0.500000 1.000000 0.250000 -0.481951
O13   O     O_R   0.439450 0.000000 0.700300 -0.633248
O14   O     O_R   0.585450 0.853690 0.762850 -0.643240
O15   O     O_R   0.414550 0.146310 0.237150 -0.647728
O16   O     O_R   0.146310 0.585450 0.762850 -0.647728
O17   O     O_R   0.853690 0.414550 0.237150 -0.643240
O18   O     O_R   0.414550 0.146310 0.762850 -0.643240
O19   O     O_R   0.585450 0.853690 0.237150 -0.647728
O20   O     O_R   0.853690 0.414550 0.762850 -0.647728
O21   O     O_R   0.146310 0.585450 0.237150 -0.643240
O22   O     O_R   0.585450 0.146310 0.237150 -0.643240
O23   O     O_3   1.000000 0.500000 0.750000 -0.481951
O24   O     O_R   0.414550 0.853690 0.762850 -0.647728
O25   O     O_R   0.146310 0.414550 0.237150 -0.647728
O26   O     O_R   0.853690 0.585450 0.762850 -0.643240
O27   O     O_R   0.414550 0.853690 0.237150 -0.643240
O28   O     O_R   0.585450 0.146310 0.762850 -0.647728
O29   O     O_R   0.853690 0.585450 0.237150 -0.647728
O30   O     O_R   0.146310 0.414550 0.762850 -0.643240
O31   O     O_R   0.085450 0.353690 0.262850 -0.643240
O32   O     O_R   0.914550 0.646310 0.737150 -0.647728
O33   O     O_R   0.646310 0.085450 0.262850 -0.647728
O34   O     O_3   1.000000 0.500000 0.250000 -0.481951
O35   O     O_R   0.353690 0.914550 0.737150 -0.643240
O36   O     O_R   0.914550 0.646310 0.262850 -0.643240
O37   O     O_R   0.085450 0.353690 0.737150 -0.647728
O38   O     O_R   0.353690 0.914550 0.262850 -0.647728
O39   O     O_R   0.646310 0.085450 0.737150 -0.643240
O40   O     O_R   0.085450 0.646310 0.737150 -0.643240
O41   O     O_R   0.914550 0.353690 0.262850 -0.647728
O42   O     O_R   0.646310 0.914550 0.737150 -0.647728
O43   O     O_R   0.353690 0.085450 0.262850 -0.643240
O44   O     O_R   0.914550 0.353690 0.737150 -0.643240
O45   O     O_R   0.500000 0.060550 0.799700 -0.633249
O46   O     O_R   0.085450 0.646310 0.262850 -0.647728
O47   O     O_R   0.353690 0.085450 0.737150 -0.647728
O48   O     O_R   0.646310 0.914550 0.262850 -0.643240
O49   O     O_2   0.487582 0.127630 0.593962 -0.557395
O50   O     O_2   0.487581 0.872370 0.406038 -0.557395
O51   O     O_2   0.872370 0.512419 0.593962 -0.557396
O52   O     O_2   0.127630 0.512418 0.406038 -0.557395
O53   O     O_2   0.512418 0.872370 0.593962 -0.557395
O54   O     O_2   0.512419 0.127630 0.406038 -0.557394
O55   O     O_2   0.127630 0.487581 0.593962 -0.557395
O56   O     O_R   0.500000 0.939450 0.200300 -0.633248
O57   O     O_2   0.872370 0.487582 0.406038 -0.557395
O58   O     O_2   0.987583 0.627630 0.093962 -0.557395
O59   O     O_2   0.987580 0.372370 0.906038 -0.557395
O60   O     O_2   0.372370 0.012419 0.093962 -0.557395
O61   O     O_2   0.627630 0.012418 0.906038 -0.557395
O62   O     O_2   0.012417 0.372370 0.093962 -0.557395
O63   O     O_2   0.012420 0.627630 0.906038 -0.557395
O64   O     O_2   0.627630 0.987581 0.093962 -0.557395
O65   O     O_2   0.372370 0.987581 0.906038 -0.557395
O66   O     O_R   0.939450 0.500000 0.799700 -0.633249
O67   O     O_R   0.060550 0.500000 0.200300 -0.633248
O68   O     O_R   0.500000 0.939450 0.799700 -0.633249
Zn1   Zn    Zn3+2 0.586770 1.000000 0.731050 0.986107
Zn2   Zn    Zn3+2 0.913230 0.500000 0.768950 0.986107
Zn3   Zn    Zn3+2 0.500000 0.086770 0.231050 0.986107
Zn4   Zn    Zn3+2 0.500000 0.913230 0.768950 0.986107
Zn5   Zn    Zn3+2 0.913230 0.500000 0.231050 0.986107
Zn6   Zn    Zn3+2 0.086770 0.500000 0.768950 0.986107
Zn7   Zn    Zn3+2 0.500000 0.913230 0.231050 0.986107
Zn8   Zn    Zn3+2 0.500000 0.086770 0.768950 0.986107
Zn9   Zn    Zn3+2 0.413230 1.000000 0.268950 0.986107
Zn10  Zn    Zn3+2 1.000000 0.586770 0.731050 0.986107
Zn11  Zn    Zn3+2 1.000000 0.413230 0.268950 0.986107
Zn12  Zn    Zn3+2 0.413230 1.000000 0.731050 0.986107
Zn13  Zn    Zn3+2 0.586770 1.000000 0.268950 0.986107
Zn14  Zn    Zn3+2 1.000000 0.413230 0.731050 0.986107
Zn15  Zn    Zn3+2 1.000000 0.586770 0.268950 0.986107
Zn16  Zn    Zn3+2 0.086770 0.500000 0.231050 0.986107

loop_
_geom_bond_atom_site_label_1
_geom_bond_atom_site_label_2
_ccdc_geom_bond_type
C67   O55   S    
C1    C176  S    
C130  C146  A    
C225  O17   A    
C78   C115  A    
C208  H66   S    
C191  C217  A    
C73   N23   A    
C28   C47   A    
C97   C170  A    
C32   H16   S    
C181  C207  A    
C92   C119  A    
C6    O29   A    
C109  C173  A    
C92   C109  A    
C72   C101  A    
C28   C40   A    
C169  C211  S    
C81   C117  A    
C94   C111  A    
C71   N21   A    
C30   C38   A    
C82   C99   A    
O31   Zn11  S    
C153  C220  A    
C80   C116  A    
C78   C96   A    
C20   H4    S    
C91   C122  A    
C24   C127  A    
C82   H35   S    
C93   C120  A    
C205  H63   S    
O29   Zn5   S    
C151  H44   S    
O34   Zn5   S    
C147  N15   T    
C85   C103  A    
C7    O30   A    
C93   C110  A    
C101  C130  A    
C114  C176  A    
C76   C146  A    
C133  N2    T    
C129  C195  A    
C64   N19   A    
C24   C154  A    
C69   N19   A    
C139  N7    T    
C2    C152  A    
C140  N8    T    
C10   H23   S    
C211  O13   A    
C149  N17   T    
C72   O60   S    
C79   C160  A    
C230  O33   A    
C225  O41   A    
C33   C50   A    
C31   C37   A    
C29   C45   A    
O12   Zn9   S    
C9    C59   A    
O10   Zn10  S    
O13   Zn12  S    
C215  H73   S    
O4    Zn5   S    
C19   C49   A    
C13   C63   A    
C150  C168  A    
C12   C20   A    
C18   H2    S    
C211  O8    A    
C177  C204  A    
C34   H18   S    
C73   O61   S    
C85   C117  A    
C95   C122  A    
C30   C49   A    
C1    O45   A    
C83   C100  A    
O5    Zn15  S    
C186  C199  A    
C50   C226  S    
O15   Zn3   S    
C166  C207  A    
C82   C118  A    
C37   H20   S    
C27   H10   S    
C76   O64   S    
C57   C126  A    
C47   C223  S    
O23   Zn14  S    
C177  C195  A    
C131  C197  A    
C70   C79   A    
C14   C19   A    
O21   Zn16  S    
C64   O52   S    
C228  O44   A    
C220  H79   S    
C77   C150  A    
C100  C132  S    
O23   Zn10  S    
C46   C66   A    
C63   O51   S    
O1    Zn4   S    
C151  C222  A    
C164  H58   S    
C107  C148  S    
O34   Zn15  S    
C16   C17   A    
C188  C202  A    
C226  O47   A    
C182  C208  A    
C69   O57   S    
C218  H76   S    
O34   Zn11  S    
C106  C147  S    
C40   H24   S    
C200  O7    A    
C93   H37   S    
C189  O10   A    
O41   Zn11  S    
C223  O43   A    
O38   Zn9   S    
C6    C52   S    
C154  C219  A    
C122  N23   S    
C86   H30   S    
C11   C56   A    
C102  C170  A    
C15   C18   A    
C21   H5    S    
C179  C205  A    
C227  O48   A    
C80   C97   A    
C84   C102  A    
C44   C229  S    
C86   C104  A    
C25   C43   A    
C26   C44   A    
O3    Zn6   S    
C160  C209  A    
C168  H61   S    
O1    Zn8   S    
O32   Zn10  S    
C32   C36   A    
C10   C58   A    
C165  C204  A    
C35   C155  A    
C70   N20   A    
C65   N1    A    
C158  C216  A    
C77   O65   S    
C160  H53   S    
C62   O50   S    
C61   C222  A    
C148  N16   T    
C129  C135  A    
C90   C129  A    
O16   Zn6   S    
C14   H56   S    
C27   C41   A    
O28   Zn8   S    
C204  H62   S    
O6    Zn14  S    
C118  N19   S    
C36   C52   A    
C111  C143  S    
C56   C232  S    
C84   C116  A    
C105  C173  A    
C81   H33   S    
C137  N5    T    
C167  O4    A    
C110  C174  A    
O18   Zn8   S    
C151  C218  A    
C159  C215  A    
C123  C201  A    
O42   Zn1   S    
C83   C115  A    
C9    C23   A    
C1    O68   A    
C99   C172  A    
C48   C224  S    
C39   C58   A    
C11   C21   A    
C227  O19   A    
C119  N20   S    
C5    O28   A    
C92   H36   S    
C155  H49   S    
C155  C214  A    
C66   N12   A    
C88   H41   S    
C94   C121  A    
C87   C119  A    
O30   Zn6   S    
C87   H40   S    
C113  C163  A    
C87   C105  A    
C152  C217  A    
C22   C45   A    
O25   Zn16  S    
C154  H48   S    
C41   H25   S    
C138  N6    T    
C96   C169  A    
C189  O6    A    
C49   C225  S    
C30   H14   S    
C104  C172  A    
C161  H54   S    
C26   C42   A    
C172  C178  S    
C193  C219  A    
C104  C136  S    
C5    C60   S    
C206  H64   S    
C41   C60   A    
C112  O2    A    
C42   C59   A    
C231  O35   A    
O45   Zn8   S    
C216  H74   S    
C126  C203  A    
C124  C128  A    
O35   Zn12  S    
C45   C221  S    
O24   Zn4   S    
C35   C123  A    
C74   O62   S    
C102  C133  S    
C42   H26   S    
C8    H1    S    
C4    O38   A    
C71   C90   A    
O1    Zn1   S    
C11   H34   S    
C77   N23   A    
C127  C202  A    
C12   C55   A    
O33   Zn13  S    
C37   C55   A    
C2    C125  A    
C109  C141  S    
C182  C195  A    
C22   H6    S    
C12   H45   S    
C54   C230  S    
O27   Zn7   S    
O46   Zn15  S    
C157  H50   S    
C21   C47   A    
O39   Zn1   S    
C74   C124  A    
C57   C158  A    
O26   Zn2   S    
O8    Zn1   S    
C46   C125  A    
C80   H32   S    
C210  H69   S    
C3    O32   A    
C17   C51   A    
C26   H9    S    
C67   N18   A    
C10   C22   A    
C156  C174  S    
C75   O63   S    
C15   C53   A    
C101  C162  A    
C103  C134  S    
C70   O58   S    
O67   Zn16  S    
C219  H77   S    
C75   C135  A    
C81   C98   A    
C35   C65   A    
C95   C114  A    
O14   Zn4   S    
C94   H38   S    
C186  C213  A    
C73   C113  A    
C231  O24   A    
C190  C193  A    
C188  C215  A    
C68   C69   A    
C40   C56   A    
C192  C201  A    
C132  N24   T    
C88   C120  A    
O2    Zn3   S    
O22   Zn3   S    
C167  C173  S    
C179  C182  A    
C162  H55   S    
C61   N1    A    
C187  C214  A    
C24   C64   A    
O1    Zn12  S    
C141  N9    T    
O40   Zn10  S    
C8    C25   A    
C128  C196  A    
C213  H71   S    
C163  C210  A    
O9    Zn11  S    
C214  H72   S    
C179  C196  A    
C16   H78   S    
C55   C231  S    
O56   Zn7   S    
C194  C220  A    
O43   Zn9   S    
C178  O5    A    
O20   Zn2   S    
C177  C183  A    
C65   O53   S    
C23   C44   A    
O7    Zn9   S    
C114  C144  S    
C32   C51   A    
C23   H7    S    
O34   Zn16  S    
C38   C54   A    
C105  C145  S    
C89   C107  A    
C135  C165  A    
C86   C118  A    
C33   H17   S    
C68   C127  A    
C13   C153  A    
C20   C48   A    
C152  H46   S    
C5    O39   A    
C13   C126  A    
C158  H51   S    
C76   N22   A    
C51   C227  S    
C89   H42   S    
C221  O42   A    
C18   C50   A    
C181  C184  A    
C167  O67   A    
C100  C169  A    
C29   H13   S    
C91   C108  A    
C16   C52   A    
C19   H3    S    
C184  C210  A    
C83   H27   S    
C187  C201  A    
C178  O9    A    
C61   O49   S    
C153  H47   S    
C207  H65   S    
C91   H43   S    
C143  N11   T    
C8    C60   A    
C107  C175  A    
C120  N21   S    
C108  C176  A    
C4    O27   A    
C193  C202  A    
C3    C58   S    
C27   C43   A    
C38   H21   S    
C34   C53   A    
C184  C197  A    
C63   N18   A    
C131  C150  A    
C212  H70   S    
C190  C216  A    
C224  O40   A    
C124  C164  A    
O12   Zn13  S    
C232  O31   A    
C79   C128  A    
C78   H31   S    
O36   Zn15  S    
C192  C218  A    
C170  C200  S    
C39   H22   S    
C136  N4    T    
C75   N21   A    
C17   H80   S    
C6    O36   A    
C111  C175  A    
C15   H67   S    
C191  C199  A    
C164  C205  A    
C190  C203  A    
C36   H19   S    
C171  C189  S    
C110  C142  S    
C209  H68   S    
C228  O20   A    
C180  C197  A    
O23   Zn2   S    
C98   C139  S    
C224  O16   A    
O19   Zn7   S    
C161  C208  A    
C221  O14   A    
C28   H11   S    
O17   Zn5   S    
C185  C198  A    
C68   C159  A    
C187  C191  A    
C62   N12   A    
C165  H59   S    
C166  H60   S    
C146  C166  A    
C188  C194  A    
C103  C171  A    
O66   Zn2   S    
C31   H15   S    
C57   C67   A    
C180  C206  A    
C181  C198  A    
C159  H52   S    
O44   Zn14  S    
C95   H39   S    
C106  C174  A    
C123  C222  A    
C90   C161  A    
C96   C137  S    
C230  O22   A    
C25   H8    S    
C46   C157  A    
C108  C149  S    
C226  O18   A    
C88   C106  A    
C7    O37   A    
O23   Zn6   S    
C156  O66   A    
C89   C121  A    
C29   C39   A    
O12   Zn3   S    
C33   C34   A    
C185  C212  A    
C145  N14   T    
C156  O3    A    
C163  H57   S    
C74   N20   A    
C121  N22   S    
C98   C171  A    
C232  O25   A    
C14   C54   A    
C168  C206  A    
C99   C140  S    
C183  C196  A    
C116  N12   S    
C97   C138  S    
C200  O11   A    
C72   N22   A    
C113  C131  A    
C66   O54   S    
C84   H28   S    
O68   Zn4   S    
C85   H29   S    
C71   O59   S    
O37   Zn14  S    
C183  C209  A    
C157  C213  A    
C31   C48   A    
C229  O46   A    
C142  N10   T    
C43   C228  S    
C162  C212  A    
C112  O56   A    
C194  C203  A    
C134  N3    T    
C4    C59   S    
O12   Zn7   S    
C217  H75   S    
C3    O26   A    
C186  C192  A    
C115  N1    S    
C180  C185  A    
C117  N18   S    
C112  C175  S    
O48   Zn13  S    
C125  C199  A    
C7    C53   S    
O11   Zn13  S    
C229  O21   A    
C130  C198  A    
C9    H12   S    
O47   Zn12  S    
C223  O15   A    
C144  N13   T    
C2    C62   A    
