data_mof_unit_60478.cif
_audit_creation_date              2012-12-10T18:40:12-0500
_audit_creation_method            fapswitch 2.2
_symmetry_space_group_name_H-M    P1
_symmetry_Int_Tables_number       1
_space_group_crystal_system       triclinic
_cell_length_a                    30.106386
_cell_length_b                    30.163918
_cell_length_c                    24.404881
_cell_angle_alpha                 89.999965
_cell_angle_beta                  127.43259
_cell_angle_gamma                 90.0
_cell_volume                      17598.7297118

loop_
_atom_site_label
_atom_site_type_symbol
_atom_type_description
_atom_site_fract_x
_atom_site_fract_y
_atom_site_fract_z
_atom_type_partial_charge
C1    C     C_R   0.810980 0.810743 0.500363 0.964848
C2    C     C_R   0.536201 0.748647 0.069706 0.331734
C3    C     C_3   0.823275 0.123170 0.440435 -0.241213
C4    C     C_3   0.622979 0.632389 0.552832 -0.221022
C5    C     C_3   0.377031 0.632394 0.447177 -0.221022
C6    C     C_3   0.122978 0.132389 0.552831 -0.221022
C7    C     C_3   0.877001 0.132378 0.447149 -0.221024
C8    C     C_3   0.602027 0.665397 0.493187 -0.132632
C9    C     C_3   0.397980 0.665396 0.506827 -0.132634
C10   C     C_3   0.102026 0.165397 0.493186 -0.132632
C11   C     C_3   0.897959 0.165398 0.506781 -0.132631
C12   C     C_3   0.654964 0.655536 0.499485 -0.050327
C13   C     C_R   0.963798 0.248647 0.930294 0.331734
C14   C     C_3   0.345035 0.655536 0.500515 -0.050328
C15   C     C_3   0.154965 0.155536 0.499485 -0.050326
C16   C     C_3   0.845035 0.155536 0.500514 -0.050325
C17   C     C_R   0.439531 0.561054 0.500281 0.900648
C18   C     C_R   0.560469 0.561054 0.499719 0.900648
C19   C     C_R   0.939531 0.061054 0.500281 0.900651
C20   C     C_R   0.060469 0.061054 0.499719 0.900648
C21   C     C_R   0.939360 0.939053 0.500299 0.927297
C22   C     C_R   0.060640 0.939052 0.499701 0.927293
C23   C     C_R   0.439360 0.439052 0.500299 0.927291
C24   C     C_R   0.036201 0.248647 0.069706 0.331734
C25   C     C_R   0.560640 0.439052 0.499701 0.927293
C26   C     C_R   0.817090 0.749995 0.634780 0.878335
C27   C     C_R   0.182910 0.749995 0.365220 0.878334
C28   C     C_R   0.317089 0.249995 0.634780 0.878334
C29   C     C_R   0.682910 0.249995 0.365220 0.878336
C30   C     C_R   0.606944 0.783828 0.252979 -0.114265
C31   C     C_R   0.393056 0.783828 0.747021 -0.114267
C32   C     C_R   0.106944 0.283828 0.252979 -0.114266
C33   C     C_R   0.893056 0.283828 0.747021 -0.114264
C34   C     C_R   0.572071 0.783532 0.181283 -0.215051
C35   C     C_3   0.860326 0.888489 0.540325 -0.292048
C36   C     C_R   0.427930 0.783531 0.818717 -0.215052
C37   C     C_R   0.072070 0.283531 0.181283 -0.215051
C38   C     C_R   0.927929 0.283531 0.818717 -0.215051
C39   C     C_R   0.574626 0.748606 0.145315 -0.028797
C40   C     C_R   0.425373 0.748606 0.854684 -0.028797
C41   C     C_R   0.074626 0.248606 0.145315 -0.028797
C42   C     C_R   0.925374 0.248606 0.854684 -0.028797
C43   C     C_R   0.612954 0.713636 0.182030 0.558141
C44   C     C_R   0.387045 0.713636 0.817970 0.558140
C45   C     C_R   0.112954 0.213636 0.182030 0.558141
C46   C     C_3   0.139673 0.888489 0.459674 -0.292055
C47   C     C_R   0.887045 0.213636 0.817970 0.558140
C48   C     C_R   0.649322 0.715154 0.254215 -0.271832
C49   C     C_R   0.350677 0.715155 0.745785 -0.271829
C50   C     C_R   0.149323 0.215154 0.254215 -0.271832
C51   C     C_R   0.850677 0.215154 0.745785 -0.271834
C52   C     C_3   0.714608 0.543880 0.516198 -0.300876
C53   C     C_3   0.285374 0.543882 0.483762 -0.300881
C54   C     C_3   0.214610 0.043880 0.516201 -0.300878
C55   C     C_3   0.785429 0.043876 0.483884 -0.300876
C56   C     C_3   0.602533 0.639562 0.158187 -0.271659
C57   C     C_3   0.360326 0.388489 0.540325 -0.292057
C58   C     C_3   0.397464 0.639563 0.841813 -0.271659
C59   C     C_3   0.102534 0.139563 0.158187 -0.271659
C60   C     C_3   0.897466 0.139563 0.841813 -0.271655
C61   C     C_3   0.971453 0.863027 0.679701 -0.264786
C62   C     C_3   0.028545 0.863025 0.320300 -0.264790
C63   C     C_3   0.471454 0.363026 0.679701 -0.264791
C64   C     C_3   0.528544 0.363024 0.320300 -0.264790
C65   C     C_3   0.639672 0.388489 0.459674 -0.292055
C66   C     C_3   0.845559 0.912839 0.475106 -0.291162
C67   C     C_3   0.154440 0.912839 0.524893 -0.291166
C68   C     C_3   0.345559 0.412839 0.475106 -0.291169
C69   C     C_R   0.189020 0.810743 0.499637 0.964846
C70   C     C_3   0.654440 0.412839 0.524892 -0.291166
C71   C     C_3   0.905920 0.905296 0.500853 -0.121950
C72   C     C_3   0.094080 0.905296 0.499147 -0.121949
C73   C     C_3   0.405920 0.405296 0.500853 -0.121950
C74   C     C_3   0.594080 0.405296 0.499147 -0.121950
C75   C     C_3   0.920348 0.881119 0.564752 0.621953
C76   C     C_3   0.079651 0.881118 0.435248 0.621950
C77   C     C_3   0.420348 0.381119 0.564752 0.621948
C78   C     C_3   0.579651 0.381118 0.435248 0.621949
C79   C     C_3   0.905393 0.836741 0.526304 -0.315037
C80   C     C_R   0.310980 0.310743 0.500363 0.964848
C81   C     C_3   0.094607 0.836741 0.473698 -0.315035
C82   C     C_3   0.405393 0.336741 0.526304 -0.315034
C83   C     C_3   0.594607 0.336741 0.473698 -0.315037
C84   C     C_3   0.890375 0.861358 0.461213 -0.269518
C85   C     C_3   0.109626 0.861358 0.538788 -0.269516
C86   C     C_3   0.390374 0.361358 0.461213 -0.269514
C87   C     C_3   0.609627 0.361359 0.538789 -0.269514
C88   C     C_3   0.830185 0.868316 0.436751 0.473888
C89   C     C_3   0.169816 0.868317 0.563249 0.473891
C90   C     C_3   0.330185 0.368316 0.436751 0.473891
C91   C     C_R   0.689020 0.310743 0.499637 0.964846
C92   C     C_3   0.669816 0.368317 0.563249 0.473891
C93   C     C_3   0.844975 0.844355 0.500852 -0.159701
C94   C     C_3   0.155025 0.844355 0.499148 -0.159700
C95   C     C_3   0.344975 0.344355 0.500852 -0.159698
C96   C     C_3   0.655025 0.344355 0.499148 -0.159699
C97   C     C_R   0.682962 0.750023 0.365331 0.942774
C98   C     C_R   0.317038 0.750023 0.634668 0.942774
C99   C     C_R   0.182962 0.250023 0.365331 0.942774
C100  C     C_R   0.817038 0.250023 0.634668 0.942773
C101  C     C_R   0.841623 0.777450 0.746161 -0.261470
C102  C     C_R   0.645788 0.749671 0.289849 -0.090205
C103  C     C_R   0.158377 0.777451 0.253839 -0.261470
C104  C     C_R   0.341623 0.277450 0.746161 -0.261470
C105  C     C_R   0.658377 0.277450 0.253839 -0.261470
C106  C     C_R   0.875436 0.777278 0.818222 0.468366
C107  C     C_R   0.124564 0.777278 0.181778 0.468365
C108  C     C_R   0.375436 0.277278 0.818222 0.468365
C109  C     C_R   0.624564 0.277278 0.181778 0.468366
C110  C     C_R   0.922960 0.749363 0.855129 -0.053796
C111  C     C_R   0.077041 0.749363 0.144871 -0.053796
C112  C     C_R   0.422960 0.249363 0.855129 -0.053796
C113  C     C_R   0.354211 0.749671 0.710151 -0.090204
C114  C     C_R   0.577041 0.249363 0.144871 -0.053796
C115  C     C_R   0.934249 0.721228 0.819219 -0.211952
C116  C     C_R   0.065752 0.721228 0.180781 -0.211953
C117  C     C_R   0.434248 0.221228 0.819219 -0.211952
C118  C     C_R   0.565751 0.221228 0.180781 -0.211951
C119  C     C_R   0.899953 0.721416 0.747529 -0.182865
C120  C     C_R   0.100047 0.721416 0.252471 -0.182867
C121  C     C_R   0.399953 0.221416 0.747529 -0.182866
C122  C     C_R   0.600047 0.221416 0.252471 -0.182865
C123  C     C_R   0.853622 0.749743 0.710489 -0.113899
C124  C     C_R   0.145788 0.249671 0.289849 -0.090203
C125  C     C_R   0.146378 0.749743 0.289511 -0.113900
C126  C     C_R   0.353622 0.249743 0.710489 -0.113899
C127  C     C_R   0.646378 0.249743 0.289511 -0.113898
C128  C     C_R   0.037687 0.749402 0.069484 0.361984
C129  C     C_R   0.962313 0.749402 0.930516 0.361984
C130  C     C_R   0.537687 0.249402 0.069484 0.361985
C131  C     C_R   0.462313 0.249402 0.930516 0.361984
C132  C     C_3   0.625421 0.618362 0.445339 -0.251240
C133  C     C_3   0.374569 0.618357 0.554652 -0.251246
C134  C     C_3   0.125422 0.118362 0.445340 -0.251241
C135  C     C_R   0.854211 0.249671 0.710151 -0.090205
C136  C     C_3   0.874599 0.118374 0.554678 -0.251226
C137  C     C_3   0.572105 0.627578 0.439512 -0.227453
C138  C     C_3   0.427892 0.627571 0.560494 -0.227455
C139  C     C_3   0.072105 0.127577 0.439512 -0.227452
C140  C     C_3   0.927901 0.127590 0.560474 -0.227451
C141  C     C_3   0.593631 0.595140 0.499192 -0.050006
C142  C     C_3   0.406369 0.595140 0.500808 -0.050005
C143  C     C_3   0.093631 0.095140 0.499192 -0.050006
C144  C     C_3   0.906369 0.095140 0.500807 -0.050008
C145  C     C_R   0.689025 0.689189 0.499825 0.885706
C146  C     C_R   0.463798 0.748647 0.930294 0.331734
C147  C     C_R   0.310975 0.689189 0.500175 0.885705
C148  C     C_R   0.189025 0.189189 0.499825 0.885705
C149  C     C_R   0.810975 0.189189 0.500175 0.885707
C150  C     C_3   0.646222 0.586263 0.505356 0.607248
C151  C     C_3   0.353771 0.586264 0.494629 0.607250
C152  C     C_3   0.146223 0.086263 0.505357 0.607249
C153  C     C_3   0.853791 0.086262 0.494673 0.607247
C154  C     C_3   0.676718 0.623183 0.559577 -0.241200
C155  C     C_3   0.323285 0.623189 0.440417 -0.241192
C156  C     C_3   0.176718 0.123183 0.559578 -0.241199
H1    H     H_    0.603874 0.811018 0.279509 0.185379
H2    H     H_    0.029560 0.699599 0.153146 0.175553
H3    H     H_    0.435816 0.370143 0.680914 0.154826
H4    H     H_    0.510527 0.370331 0.731780 0.209114
H5    H     H_    0.527723 0.327266 0.330757 0.151830
H6    H     H_    0.564181 0.370141 0.319085 0.154826
H7    H     H_    0.489470 0.370329 0.268221 0.209114
H8    H     H_    0.470440 0.199599 0.846854 0.175553
H9    H     H_    0.529560 0.199599 0.153146 0.175553
H10   H     H_    0.909944 0.699564 0.721198 0.172608
H11   H     H_    0.090056 0.699564 0.278802 0.172608
H12   H     H_    0.409944 0.199564 0.721198 0.172608
H13   H     H_    0.590056 0.199564 0.278802 0.172609
H14   H     H_    0.528600 0.628665 0.391039 0.169429
H15   H     H_    0.471394 0.628654 0.608973 0.169434
H16   H     H_    0.028600 0.128664 0.391038 0.169429
H17   H     H_    0.396127 0.811017 0.720491 0.185378
H18   H     H_    0.971412 0.128688 0.608937 0.169420
H19   H     H_    0.627620 0.613521 0.401945 0.141768
H20   H     H_    0.372362 0.613510 0.598039 0.141774
H21   H     H_    0.127621 0.113520 0.401946 0.141769
H22   H     H_    0.872416 0.113541 0.598086 0.141757
H23   H     H_    0.720190 0.622235 0.608125 0.147154
H24   H     H_    0.279816 0.622246 0.391865 0.147151
H25   H     H_    0.220189 0.122236 0.608125 0.147154
H26   H     H_    0.779798 0.122212 0.391898 0.147159
H27   H     H_    0.620621 0.637320 0.596086 0.167895
H28   H     H_    0.103874 0.311018 0.279509 0.185378
H29   H     H_    0.379397 0.637330 0.403931 0.167889
H30   H     H_    0.120620 0.137321 0.596085 0.167893
H31   H     H_    0.879342 0.137300 0.403881 0.167907
H32   H     H_    0.542404 0.810353 0.153872 0.181445
H33   H     H_    0.457597 0.810353 0.846128 0.181445
H34   H     H_    0.042403 0.310353 0.153872 0.181444
H35   H     H_    0.957597 0.310353 0.846128 0.181445
H36   H     H_    0.584618 0.698895 0.488157 0.162610
H37   H     H_    0.415394 0.698893 0.511871 0.162610
H38   H     H_    0.084617 0.198895 0.488154 0.162610
H39   H     H_    0.896126 0.311018 0.720491 0.185379
H40   H     H_    0.915357 0.198898 0.511787 0.162614
H41   H     H_    0.680325 0.689284 0.282322 0.172680
H42   H     H_    0.319673 0.689285 0.717678 0.172681
H43   H     H_    0.180325 0.189284 0.282322 0.172681
H44   H     H_    0.819674 0.189284 0.717678 0.172680
H45   H     H_    0.821910 0.944346 0.453354 0.196702
H46   H     H_    0.178089 0.944346 0.546644 0.196709
H47   H     H_    0.321910 0.444346 0.453354 0.196711
H48   H     H_    0.678089 0.444346 0.546643 0.196709
H49   H     H_    0.847547 0.898539 0.572673 0.172210
H50   H     H_    0.805499 0.799070 0.717767 0.205710
H51   H     H_    0.152451 0.898539 0.427325 0.172213
H52   H     H_    0.347548 0.398539 0.572673 0.172214
H53   H     H_    0.652450 0.398538 0.427324 0.172213
H54   H     H_    0.929027 0.805186 0.547486 0.177730
H55   H     H_    0.070974 0.805185 0.452516 0.177730
H56   H     H_    0.429027 0.305185 0.547486 0.177729
H57   H     H_    0.570974 0.305185 0.452518 0.177730
H58   H     H_    0.902686 0.851535 0.428294 0.192478
H59   H     H_    0.097315 0.851536 0.571708 0.192478
H60   H     H_    0.402686 0.351535 0.428294 0.192478
H61   H     H_    0.194501 0.799070 0.282233 0.205710
H62   H     H_    0.597316 0.351536 0.571709 0.192478
H63   H     H_    0.773740 0.921544 0.313092 0.349065
H64   H     H_    0.226263 0.921546 0.686907 0.349069
H65   H     H_    0.273739 0.421545 0.313092 0.349070
H66   H     H_    0.726263 0.421547 0.686906 0.349069
H67   H     H_    0.859867 0.805428 0.951161 0.392479
H68   H     H_    0.140134 0.805428 0.048840 0.392479
H69   H     H_    0.359867 0.305428 0.951161 0.392479
H70   H     H_    0.640134 0.305428 0.048840 0.392479
H71   H     H_    0.748625 0.562346 0.562810 0.167698
H72   H     H_    0.305499 0.299070 0.717767 0.205710
H73   H     H_    0.706367 0.558385 0.468907 0.165277
H74   H     H_    0.729404 0.509398 0.520991 0.198986
H75   H     H_    0.251363 0.562353 0.437153 0.167699
H76   H     H_    0.293611 0.558381 0.531053 0.165278
H77   H     H_    0.270572 0.509401 0.478957 0.198988
H78   H     H_    0.248626 0.062346 0.562813 0.167698
H79   H     H_    0.206369 0.058384 0.468911 0.165277
H80   H     H_    0.229406 0.009398 0.520995 0.198987
H81   H     H_    0.751401 0.062330 0.437265 0.167695
H82   H     H_    0.793679 0.058392 0.531173 0.165275
H83   H     H_    0.694501 0.299070 0.282233 0.205710
H84   H     H_    0.770645 0.009392 0.479116 0.198985
H85   H     H_    0.599130 0.614830 0.122165 0.211780
H86   H     H_    0.560862 0.641506 0.147273 0.155437
H87   H     H_    0.634632 0.627262 0.211460 0.154111
H88   H     H_    0.400867 0.614830 0.877835 0.211780
H89   H     H_    0.439135 0.641506 0.852728 0.155437
H90   H     H_    0.365365 0.627263 0.788540 0.154111
H91   H     H_    0.099131 0.114830 0.122165 0.211780
H92   H     H_    0.060863 0.141506 0.147272 0.155436
H93   H     H_    0.134632 0.127262 0.211460 0.154111
H94   H     H_    0.970440 0.699599 0.846854 0.175553
H95   H     H_    0.900868 0.114830 0.877835 0.211779
H96   H     H_    0.939137 0.141506 0.852728 0.155436
H97   H     H_    0.865367 0.127262 0.788540 0.154108
H98   H     H_    0.972275 0.827268 0.669245 0.151829
H99   H     H_    0.935816 0.870144 0.680914 0.154825
H100  H     H_    0.010527 0.870332 0.731780 0.209114
H101  H     H_    0.027723 0.827266 0.330757 0.151830
H102  H     H_    0.064182 0.870142 0.319085 0.154825
H103  H     H_    0.989471 0.870330 0.268221 0.209114
H104  H     H_    0.472276 0.327268 0.669245 0.151830
N1    N     N_R   0.517738 0.709948 0.034224 -0.122848
N2    N     N_R   0.018377 0.788131 0.034189 -0.074105
N3    N     N_R   0.481597 0.210612 0.965778 -0.160524
N4    N     N_R   0.518377 0.288131 0.034189 -0.074105
N5    N     N_R   0.018404 0.710612 0.034222 -0.160524
N6    N     N_R   0.981623 0.788131 0.965811 -0.074105
N7    N     N_R   0.518404 0.210612 0.034222 -0.160524
N8    N     N_R   0.481623 0.288131 0.965811 -0.074105
N9    N     N_R   0.482260 0.709948 0.965776 -0.122848
N10   N     N_R   0.017739 0.209947 0.034224 -0.122848
N11   N     N_R   0.982261 0.209947 0.965776 -0.122848
N12   N     N_R   0.482307 0.787420 0.965725 -0.157656
N13   N     N_R   0.517693 0.787420 0.034275 -0.157656
N14   N     N_R   0.982307 0.287420 0.965725 -0.157656
N15   N     N_R   0.017693 0.287420 0.034275 -0.157656
N16   N     N_R   0.981597 0.710612 0.965778 -0.160524
O1    O     O_R   0.822760 0.770240 0.499990 -0.615299
O2    O     O_R   0.075230 0.953450 0.557500 -0.623352
O3    O     O_R   0.424770 0.453450 0.442500 -0.623348
O4    O     O_R   0.575230 0.453450 0.557500 -0.623351
O5    O     O_R   0.982280 0.953430 0.557510 -0.574447
O6    O     O_R   0.017720 0.953430 0.442490 -0.574452
O7    O     O_R   0.482280 0.453430 0.557510 -0.574456
O8    O     O_R   0.517720 0.453430 0.442490 -0.574453
O9    O     O_R   0.770230 0.822760 0.499990 -0.605805
O10   O     O_R   0.229770 0.822760 0.500010 -0.605801
O11   O     O_R   0.270230 0.322760 0.499990 -0.605803
O12   O     O_R   0.177240 0.770240 0.500010 -0.615302
O13   O     O_R   0.729770 0.322760 0.500010 -0.605801
O14   O     O_R   0.725330 0.723740 0.398130 -0.617771
O15   O     O_R   0.274670 0.723740 0.601870 -0.617772
O16   O     O_R   0.225330 0.223740 0.398130 -0.617771
O17   O     O_R   0.774670 0.223740 0.601870 -0.617773
O18   O     O_R   0.672800 0.776260 0.398130 -0.617773
O19   O     O_R   0.327200 0.776260 0.601870 -0.617773
O20   O     O_R   0.172800 0.276260 0.398130 -0.617773
O21   O     O_R   0.827200 0.276260 0.601870 -0.617771
O22   O     O_R   0.729750 0.677220 0.500010 -0.638671
O23   O     O_R   0.322760 0.270240 0.499990 -0.615301
O24   O     O_R   0.270250 0.677220 0.499990 -0.638671
O25   O     O_R   0.229750 0.177220 0.500010 -0.638671
O26   O     O_R   0.770250 0.177220 0.499990 -0.638671
O27   O     O_R   0.677220 0.729740 0.500010 -0.623845
O28   O     O_R   0.322780 0.729740 0.499990 -0.623844
O29   O     O_R   0.177220 0.229740 0.500010 -0.623845
O30   O     O_R   0.822780 0.229740 0.499990 -0.623846
O31   O     O_R   0.827180 0.723730 0.601860 -0.631010
O32   O     O_R   0.172820 0.723730 0.398140 -0.631010
O33   O     O_R   0.327180 0.223730 0.601860 -0.631010
O34   O     O_R   0.677240 0.270240 0.500010 -0.615302
O35   O     O_R   0.672820 0.223730 0.398140 -0.631009
O36   O     O_R   0.774660 0.776250 0.601860 -0.623497
O37   O     O_R   0.225340 0.776250 0.398140 -0.623495
O38   O     O_R   0.274660 0.276250 0.601860 -0.623497
O39   O     O_R   0.725340 0.276250 0.398140 -0.623497
O40   O     O_R   0.424770 0.546480 0.442520 -0.625886
O41   O     O_R   0.575230 0.546480 0.557480 -0.625894
O42   O     O_R   0.924770 0.046480 0.442520 -0.625912
O43   O     O_R   0.075230 0.046480 0.557480 -0.625895
O44   O     O_2   0.767280 0.810769 0.332693 -0.263253
O45   O     O_R   0.482280 0.546460 0.557530 -0.629000
O46   O     O_2   0.717732 0.868691 0.346571 -0.309631
O47   O     O_3   0.769514 0.890973 0.295686 -0.496960
O48   O     O_2   0.232722 0.810770 0.667308 -0.263254
O49   O     O_2   0.282269 0.868693 0.653427 -0.309632
O50   O     O_3   0.230488 0.890976 0.704313 -0.496960
O51   O     O_2   0.267279 0.310769 0.332692 -0.263253
O52   O     O_2   0.217732 0.368692 0.346571 -0.309634
O53   O     O_3   0.269514 0.390974 0.295686 -0.496958
O54   O     O_2   0.732723 0.310771 0.667309 -0.263254
O55   O     O_2   0.782269 0.368693 0.653426 -0.309632
O56   O     O_R   0.517720 0.546460 0.442470 -0.628993
O57   O     O_3   0.730489 0.390977 0.704313 -0.496960
O58   O     O_2   0.889897 0.852422 0.885165 -0.277071
O59   O     O_2   0.794561 0.822894 0.809797 -0.287239
O60   O     O_3   0.866186 0.783210 0.926663 -0.552159
O61   O     O_2   0.110103 0.852422 0.114835 -0.277070
O62   O     O_2   0.205439 0.822894 0.190203 -0.287239
O63   O     O_3   0.133814 0.783210 0.073337 -0.552158
O64   O     O_2   0.389897 0.352422 0.885165 -0.277071
O65   O     O_2   0.294561 0.322894 0.809797 -0.287239
O66   O     O_3   0.366186 0.283210 0.926663 -0.552158
O67   O     O_R   0.982280 0.046460 0.557530 -0.628978
O68   O     O_2   0.610103 0.352422 0.114835 -0.277070
O69   O     O_2   0.705439 0.322894 0.190203 -0.287240
O70   O     O_3   0.633814 0.283210 0.073337 -0.552159
O71   O     O_3   0.665660 0.542636 0.511524 -0.628183
O72   O     O_3   0.334327 0.542638 0.488446 -0.628185
O73   O     O_3   0.165661 0.042636 0.511526 -0.628183
O74   O     O_3   0.834368 0.042633 0.488536 -0.628179
O75   O     O_3   0.618439 0.680594 0.147091 -0.588967
O76   O     O_3   0.381559 0.680595 0.852909 -0.588966
O77   O     O_3   0.118439 0.180594 0.147091 -0.588966
O78   O     O_R   0.017720 0.046460 0.442470 -0.628992
O79   O     O_3   0.881560 0.180594 0.852909 -0.588967
O80   O     O_3   0.969732 0.890111 0.631422 -0.581578
O81   O     O_3   0.030267 0.890110 0.368578 -0.581580
O82   O     O_3   0.469732 0.390111 0.631422 -0.581581
O83   O     O_3   0.530266 0.390109 0.368578 -0.581580
O84   O     O_R   0.924770 0.953450 0.442500 -0.623358
S1    S     S_3+6 0.768748 0.858549 0.351113 0.043608
S2    S     S_3+6 0.231253 0.858551 0.648887 0.043608
S3    S     S_3+6 0.268748 0.358550 0.351113 0.043608
S4    S     S_3+6 0.731254 0.358552 0.648887 0.043608
S5    S     S_3+6 0.855409 0.810759 0.859584 0.030818
S6    S     S_3+6 0.144591 0.810759 0.140415 0.030818
S7    S     S_3+6 0.355409 0.310760 0.859584 0.030819
S8    S     S_3+6 0.644591 0.310760 0.140415 0.030818
Zn1   Zn    Zn3+2 0.785070 0.714920 0.500000 0.973996
Zn2   Zn    Zn3+2 0.038370 0.999960 0.576800 1.027466
Zn3   Zn    Zn3+2 0.461630 0.499960 0.423200 1.027461
Zn4   Zn    Zn3+2 0.538370 0.499960 0.576800 1.027452
Zn5   Zn    Zn3+2 0.214930 0.714920 0.500000 0.973995
Zn6   Zn    Zn3+2 0.285070 0.214920 0.500000 0.973996
Zn7   Zn    Zn3+2 0.714930 0.214920 0.500000 0.973995
Zn8   Zn    Zn3+2 0.714920 0.785060 0.500000 1.000534
Zn9   Zn    Zn3+2 0.285080 0.785060 0.500000 1.000537
Zn10  Zn    Zn3+2 0.214920 0.285060 0.500000 1.000535
Zn11  Zn    Zn3+2 0.785080 0.285060 0.500000 1.000537
Zn12  Zn    Zn3+2 0.961630 0.999960 0.423200 1.027445

loop_
_geom_bond_atom_site_label_1
_geom_bond_atom_site_label_2
_ccdc_geom_bond_type
C49   C113  A    
H63   O47   S    
C4    C154  S    
C133  C151  S    
O70   S8    S    
C136  C140  S    
O44   S1    D    
C115  H94   S    
O14   Zn1   S    
N3    N7    A    
O62   S6    D    
C85   H59   S    
C9    H37   S    
O56   Zn3   S    
C132  C150  S    
C25   C74   S    
C89   C94   S    
C21   O5    A    
O67   Zn2   S    
C18   O56   A    
C91   C96   S    
C66   H45   S    
C65   C96   S    
C152  C156  S    
N12   N13   A    
C70   C74   S    
C68   C90   S    
C28   O33   A    
C59   H92   S    
C151  C155  S    
O16   Zn6   S    
C62   H102  S    
C82   H56   S    
C100  C135  S    
C81   C85   S    
C20   O43   A    
C69   O10   A    
O55   S4    D    
H68   O63   S    
C154  H23   S    
C88   S1    S    
O36   Zn8   S    
O6    Zn12  S    
O42   Zn12  S    
C13   C42   S    
C104  H72   S    
C70   H48   S    
O64   S7    D    
C97   O18   A    
C90   C95   S    
C20   O78   A    
C99   O20   A    
C86   C90   S    
C105  C127  A    
C120  C125  A    
C35   C66   S    
C132  C137  S    
C5    C155  S    
C24   N10   A    
C17   C142  S    
C132  H19   S    
C11   C140  S    
C142  C151  S    
C150  O71   S    
C1    O1    A    
O8    Zn3   S    
C9    C138  S    
C33   C135  A    
C52   H71   S    
O52   S3    D    
C36   C40   A    
C60   O79   S    
C30   C102  A    
O41   Zn4   S    
C55   H81   S    
C58   H88   S    
C130  N7    A    
C81   H55   S    
H69   O66   S    
O45   Zn4   S    
C26   C123  S    
C19   O42   A    
C155  H24   S    
C121  H12   S    
C56   H86   S    
C91   O13   A    
C54   O73   S    
C12   C132  S    
C138  H15   S    
C21   O84   A    
C58   H89   S    
C84   C88   S    
C12   C154  S    
O65   S7    D    
O49   S2    D    
C148  O29   A    
C119  C123  A    
C6    H30   S    
C33   C38   A    
O21   Zn11  S    
C13   N11   A    
C136  C153  S    
C45   C50   A    
C8    H36   S    
C55   O74   S    
O29   Zn10  S    
O26   Zn7   S    
C134  H21   S    
C3    H26   S    
C86   H60   S    
O3    Zn3   S    
C69   O12   A    
C1    C93   S    
C109  S8    S    
C41   C45   A    
C31   C36   A    
C129  N16   A    
C103  C107  A    
C100  O21   A    
C75   C79   S    
C143  C152  S    
C129  N6    A    
C64   H7    S    
C79   H54   S    
C98   O19   A    
C63   H3    S    
C53   O72   S    
C72   C85   S    
O35   Zn7   S    
C5    C9    S    
O31   Zn1   S    
C77   C82   S    
C7    H31   S    
N14   N15   A    
C66   C88   S    
C15   C148  S    
C59   O77   S    
C52   H73   S    
C65   C70   S    
C92   C96   S    
C27   O32   A    
C110  C129  S    
C67   C72   S    
C118  C122  A    
C122  C127  A    
C78   O83   S    
C139  C143  S    
C18   O41   A    
C74   C87   S    
H65   O53   S    
C17   O45   A    
O7    Zn4   S    
C37   H34   S    
C61   H99   S    
C45   O77   S    
O43   Zn2   S    
O48   S2    D    
C128  N2    A    
C22   C72   S    
C75   O80   S    
C141  C150  S    
C131  N3    A    
C30   C34   A    
C34   C39   A    
C50   C124  A    
C22   O6    A    
C134  C139  S    
C23   O3    A    
O37   Zn9   S    
C14   C147  S    
C116  C120  A    
C12   C145  S    
C116  H2    S    
O22   Zn1   S    
C46   C94   S    
C8    C12   S    
C105  H83   S    
C32   C37   A    
C80   C95   S    
C137  H14   S    
C16   C149  S    
C109  C114  A    
C53   H75   S    
C19   O67   A    
C29   C127  S    
O15   Zn5   S    
C54   H78   S    
C57   C68   S    
C99   O16   A    
C16   C136  S    
C101  C106  A    
C105  C109  A    
C73   C77   S    
C82   C95   S    
C107  C111  A    
C18   C141  S    
O30   Zn11  S    
C29   O39   A    
C64   H5    S    
C50   H43   S    
C22   O2    A    
C112  C131  S    
C14   C133  S    
C23   O7    A    
O20   Zn10  S    
C76   O81   S    
C118  H9    S    
C115  C119  A    
C40   C146  S    
C81   C94   S    
C5    C142  S    
H66   O57   S    
O24   Zn5   S    
C83   C96   S    
C4    H27   S    
C37   C41   A    
C103  C125  A    
C51   H44   S    
C53   H76   S    
C40   C44   A    
O61   S6    D    
C38   H35   S    
C27   O37   A    
C111  C128  S    
O13   Zn11  S    
O40   Zn3   S    
C59   H91   S    
O34   Zn7   S    
C62   H103  S    
C31   C113  A    
C130  N4    A    
C3    C16   S    
C145  O27   A    
C99   C124  S    
O25   Zn6   S    
C30   H1    S    
C83   C87   S    
C19   C144  S    
C24   C41   S    
C114  C130  S    
C5    H29   S    
O12   Zn5   S    
C1    O9    A    
C15   C134  S    
C152  O73   S    
O78   Zn12  S    
C57   H52   S    
C21   C71   S    
C3    C7    S    
C10   H38   S    
C106  C110  A    
C112  C117  A    
C87   H62   S    
C151  O72   S    
C80   O23   A    
C78   C83   S    
C26   O36   A    
C59   H93   S    
C60   H95   S    
C111  C116  A    
C28   O38   A    
C55   H84   S    
C97   C102  S    
C4    C8    S    
C133  C138  S    
C87   C92   S    
O39   Zn11  S    
C20   C143  S    
C25   O4    A    
H64   O50   S    
C28   C126  S    
C117  H8    S    
O38   Zn10  S    
C57   C77   S    
C58   H90   S    
C11   H40   S    
O1    Zn1   S    
C69   C94   S    
C138  C142  S    
C4    C141  S    
C85   C89   S    
C145  O22   A    
O47   S1    S    
C98   C113  S    
C47   C51   A    
C131  N8    A    
C82   C86   S    
C108  C112  A    
C121  C126  A    
C8    C137  S    
C64   O83   S    
C9    C14   S    
C11   C16   S    
C66   C71   S    
O17   Zn7   S    
C122  H13   S    
C134  C152  S    
O63   S6    S    
C153  O74   S    
C62   H101  S    
H67   O60   S    
C13   N14   A    
C149  O30   A    
C90   S3    S    
O50   S2    S    
C10   C139  S    
O46   S1    D    
C53   H77   S    
C104  C108  A    
C91   O34   A    
C137  C141  S    
C147  O28   A    
C65   C78   S    
C92   S4    S    
C146  N9    A    
C70   C92   S    
C140  C144  S    
C52   O71   S    
C89   S2    S    
C6    C10   S    
C79   C93   S    
C54   H80   S    
O84   Zn12  S    
C62   O81   S    
O5    Zn2   S    
C2    N13   A    
C27   C125  S    
C52   H74   S    
C79   C84   S    
C60   H97   S    
O66   S7    S    
C55   H82   S    
O23   Zn6   S    
C2    N1    A    
O2    Zn2   S    
C33   H39   S    
C149  O26   A    
C74   C78   S    
N10   N11   A    
C29   O35   A    
C110  C115  A    
C106  S5    S    
C120  H11   S    
C44   C49   A    
C56   H85   S    
C61   H98   S    
C44   O76   S    
O51   S3    D    
C14   C155  S    
C32   C124  A    
C67   C89   S    
C72   C76   S    
H70   O70   S    
C46   C76   S    
C7    C11   S    
O69   S8    D    
C35   C75   S    
C101  C123  A    
C38   C42   A    
C10   C15   S    
C107  S6    S    
O53   S3    S    
C61   O80   S    
C136  H22   S    
C3    C153  S    
C97   O14   A    
C144  C153  S    
C117  C121  A    
N5    N16   A    
C51   C135  A    
C2    C39   S    
C35   H49   S    
O60   S5    S    
O58   S5    D    
C43   C48   A    
C65   H53   S    
C108  S7    S    
O18   Zn8   S    
O32   Zn5   S    
C48   C102  A    
C26   O31   A    
C68   H47   S    
C54   H79   S    
C23   C73   S    
C7    C144  S    
C83   H57   S    
C84   H58   S    
C49   H42   S    
C35   C93   S    
C46   H51   S    
O9    Zn8   S    
C17   O40   A    
C36   H33   S    
C139  H16   S    
C64   H6    S    
C101  H50   S    
O33   Zn6   S    
C39   C43   A    
C68   C73   S    
C56   O75   S    
C148  O25   A    
O10   Zn9   S    
N4    N8    A    
O28   Zn9   S    
C25   O8    A    
C34   H32   S    
C119  H10   S    
C15   C156  S    
C114  C118  A    
C103  H61   S    
C56   H87   S    
O4    Zn4   S    
C61   H100  S    
C150  C154  S    
C47   O79   S    
C71   C84   S    
C31   H17   S    
C58   O76   S    
C88   C93   S    
O27   Zn8   S    
C80   O11   A    
N1    N9    A    
C32   H28   S    
O57   S4    S    
O11   Zn10  S    
C100  O17   A    
C76   C81   S    
N2    N6    A    
C43   O75   S    
C156  H25   S    
C63   H4    S    
O19   Zn9   S    
C48   H41   S    
C146  N12   A    
C98   O15   A    
C46   C67   S    
C67   H46   S    
C63   H104  S    
C71   C75   S    
C77   O82   S    
C63   O82   S    
C128  N5    A    
C42   C47   A    
C133  H20   S    
C6    C156  S    
C73   C86   S    
O54   S4    D    
O68   S8    D    
O59   S5    D    
C104  C126  A    
C147  O24   A    
C140  H18   S    
C57   C95   S    
C60   H96   S    
C6    C143  S    
C24   N15   A    
