data_mof_unit_31549.cif
_audit_creation_date              2012-12-10T21:01:39-0500
_audit_creation_method            fapswitch 2.2
_symmetry_space_group_name_H-M    P1
_symmetry_Int_Tables_number       1
_space_group_crystal_system       triclinic
_cell_length_a                    15.740349
_cell_length_b                    15.850248
_cell_length_c                    15.074508
_cell_angle_alpha                 90.319068
_cell_angle_beta                  89.863371
_cell_angle_gamma                 89.808968
_cell_volume                      3760.82533351

loop_
_atom_site_label
_atom_site_type_symbol
_atom_type_description
_atom_site_fract_x
_atom_site_fract_y
_atom_site_fract_z
_atom_type_partial_charge
C1    C     C_R   0.499892 0.338944 0.499742 0.890280
C2    C     C_R   0.500065 0.661062 0.500277 0.891357
C3    C     C_R   0.504466 0.913134 0.501404 -0.253280
C4    C     C_R   0.495257 0.086900 0.499081 -0.254180
C5    C     C_R   0.484817 0.954069 0.421610 0.331618
C6    C     C_R   0.514879 0.045983 0.578879 0.303783
C7    C     C_1   0.503104 0.824029 0.501729 0.188926
C8    C     C_1   0.496634 0.175997 0.498653 0.189484
C9    C     C_1   0.498278 0.250736 0.499121 -0.104757
C10   C     C_1   0.501544 0.749281 0.501027 -0.099837
C11   C     C_R   0.427557 0.476871 0.951938 0.324974
C12   C     C_R   0.575007 0.517678 0.048097 0.311052
C13   C     C_R   0.501821 0.499912 0.905145 -0.315891
C14   C     C_R   0.499297 0.499438 0.094882 -0.319194
C15   C     C_R   0.575602 0.521827 0.953669 0.344321
C16   C     C_R   0.424723 0.480451 0.046333 0.344940
C17   C     C_1   0.500909 0.500035 0.807061 0.354585
C18   C     C_1   0.499663 0.499846 0.192941 0.350467
C19   C     C_R   0.337510 0.500051 0.500073 0.897334
C20   C     C_R   0.662450 0.499848 0.499889 0.897733
C21   C     C_3   0.971066 0.502446 0.581930 0.457930
C22   C     C_3   0.028632 0.495782 0.416669 0.434875
C23   C     C_3   0.027704 0.432126 0.543966 0.449666
C24   C     C_3   0.972001 0.566121 0.454641 0.352048
C25   C     C_1   0.248815 0.500304 0.500291 -0.121205
C26   C     C_1   0.751066 0.498936 0.499399 -0.120391
C27   C     C_3   0.026861 0.571777 0.539408 -0.512415
C28   C     C_3   0.972838 0.426457 0.459211 -0.464564
C29   C     C_3   0.083038 0.500224 0.500594 -0.120983
C30   C     C_3   0.916727 0.498028 0.497994 -0.103250
C31   C     C_1   0.173691 0.500442 0.500470 0.137948
C32   C     C_1   0.826144 0.498218 0.498644 0.143391
C33   C     C_R   0.522377 0.958064 0.579831 0.271732
C34   C     C_R   0.477465 0.041982 0.420629 0.333614
H1    H     H_    0.948973 0.367764 0.427581 0.202817
H2    H     H_    0.050744 0.630513 0.570929 0.200830
N1    N     N_1   0.499980 0.500020 0.270550 -0.080874
N2    N     N_1   0.500020 0.499980 0.729450 -0.082422
O1    O     O_R   0.500000 0.378020 0.573650 -0.627190
O2    O     O_R   0.500000 0.621980 0.426350 -0.615839
O3    O     O_R   0.500040 0.378020 0.426320 -0.585087
O4    O     O_R   0.499960 0.621980 0.573680 -0.576508
O5    O     O_R   0.376760 0.499990 0.573650 -0.615721
O6    O     O_R   0.623240 0.500010 0.426350 -0.622217
O7    O     O_R   0.376800 0.499990 0.426320 -0.586681
O8    O     O_R   0.623200 0.500010 0.573680 -0.586525
Zn1   Zn    Zn3+2 0.499970 0.500000 0.598370 1.046962
Zn2   Zn    Zn3+2 0.500030 0.500000 0.401630 1.047138
S1    S     S_3+6 0.066442 0.343293 0.603639 0.044153
O9    O     O_2   0.108153 0.282699 0.539946 -0.263869
O10   O     O_2   0.130045 0.371791 0.671534 -0.348651
O11   O     O_3   0.984587 0.295677 0.654465 -0.504105
H3    H     H_    0.010425 0.247920 0.686944 0.387847
S2    S     S_3+6 0.933355 0.655197 0.395070 0.070035
O12   O     O_2   0.865610 0.627683 0.331233 -0.288615
O13   O     O_2   0.896430 0.718510 0.459044 -0.255238
O14   O     O_3   0.013540 0.699492 0.338335 -0.468001
H4    H     H_    0.058859 0.708577 0.382825 0.358110
O15   O     O_3   0.933085 0.501083 0.666837 -0.556940
C35   C     C_3   0.987841 0.538373 0.729482 0.118631
H5    H     H_    0.989584 0.607890 0.719927 0.152728
H6    H     H_    0.053488 0.512323 0.724542 0.178095
C36   C     C_3   0.954322 0.520898 0.822266 -0.645453
H7    H     H_    0.952204 0.451794 0.833889 0.269311
H8    H     H_    0.996655 0.550396 0.872351 0.204030
H9    H     H_    0.889345 0.547560 0.829996 0.285675
O16   O     O_3   0.065955 0.496689 0.331444 -0.571168
C37   C     C_3   0.009007 0.462471 0.268930 0.108922
H10   H     H_    0.944065 0.489787 0.276019 0.171550
H11   H     H_    0.005745 0.392790 0.276496 0.153779
C38   C     C_3   0.040916 0.481735 0.175965 -0.665223
H12   H     H_    0.104959 0.453617 0.165817 0.281208
H13   H     H_    0.996655 0.454811 0.126100 0.194753
H14   H     H_    0.044617 0.551069 0.166458 0.281793
O17   O     O_3   0.531351 0.093039 0.654490 -0.566382
C39   C     C_3   0.453966 0.107806 0.699751 0.179726
H15   H     H_    0.425815 0.047361 0.722764 0.188272
H16   H     H_    0.407211 0.141086 0.656839 0.126450
C40   C     C_3   0.470774 0.163149 0.780510 -0.759613
H17   H     H_    0.496654 0.224982 0.759316 0.244691
H18   H     H_    0.410683 0.173946 0.817630 0.193560
H19   H     H_    0.517191 0.131837 0.824994 0.289228
O18   O     O_3   0.468347 0.907047 0.345981 -0.534863
C41   C     C_3   0.545853 0.891736 0.301124 0.131284
H20   H     H_    0.592564 0.859004 0.344554 0.133793
H21   H     H_    0.574020 0.951924 0.277404 0.183932
C42   C     C_3   0.529273 0.835376 0.221088 -0.659832
H22   H     H_    0.483883 0.866646 0.175430 0.277555
H23   H     H_    0.589711 0.823074 0.185057 0.220123
H24   H     H_    0.502209 0.774264 0.242977 0.253234
S3    S     S_3+6 0.552711 0.904497 0.678517 0.081477
O19   O     O_2   0.474801 0.866169 0.719339 -0.245692
O20   O     O_2   0.614699 0.834971 0.656787 -0.270519
O21   O     O_3   0.597623 0.969787 0.753061 -0.470121
H25   H     H_    0.653437 0.984637 0.727078 0.379688
S4    S     S_3+6 0.447358 0.095674 0.321981 0.066012
O22   O     O_2   0.383031 0.162953 0.344039 -0.255457
O23   O     O_2   0.524947 0.136433 0.283073 -0.313889
O24   O     O_3   0.404959 0.029668 0.246503 -0.479850
H26   H     H_    0.397149 0.064285 0.192613 0.386572
S5    S     S_3+6 0.328232 0.459690 0.103990 0.049967
O25   O     O_2   0.252695 0.463676 0.043328 -0.247585
O26   O     O_2   0.333858 0.373127 0.143797 -0.295035
O27   O     O_3   0.314804 0.531084 0.185884 -0.538827
H27   H     H_    0.266150 0.510018 0.221106 0.396130
S6    S     S_3+6 0.669102 0.552769 0.895842 0.050399
O28   O     O_2   0.731875 0.594934 0.956429 -0.230703
O29   O     O_2   0.709355 0.475461 0.855398 -0.329418
O30   O     O_3   0.643257 0.620332 0.814479 -0.505416
H28   H     H_    0.695194 0.624996 0.777610 0.395635
O31   O     O_3   0.355689 0.455586 0.904335 -0.542056
C43   C     C_3   0.357542 0.367939 0.886829 0.082329
H29   H     H_    0.351340 0.331653 0.949535 0.190200
H30   H     H_    0.417316 0.348616 0.852412 0.107433
C44   C     C_3   0.283440 0.345401 0.826770 -0.642805
H31   H     H_    0.289359 0.379378 0.762811 0.265852
H32   H     H_    0.283292 0.276462 0.813340 0.194985
H33   H     H_    0.222488 0.363338 0.859136 0.281069
O32   O     O_3   0.647544 0.536863 0.095669 -0.542126
C45   C     C_3   0.692764 0.461374 0.111873 0.135704
H34   H     H_    0.714047 0.431641 0.048453 0.178820
H35   H     H_    0.653259 0.415471 0.149377 0.119665
C46   C     C_3   0.771001 0.481317 0.167169 -0.712058
H36   H     H_    0.751648 0.509629 0.231727 0.269182
H37   H     H_    0.807420 0.422506 0.179893 0.180644
H38   H     H_    0.812525 0.526315 0.131312 0.284486

loop_
_geom_bond_atom_site_label_1
_geom_bond_atom_site_label_2
_ccdc_geom_bond_type
C25   C31   T    
C7    C10   T    
C42   H22   S    
C36   H8    S    
C26   C32   T    
S5    O25   D    
C22   C29   S    
C27   C29   S    
C14   C18   S    
O31   C43   S    
C41   C42   S    
C4    C8    S    
C40   H19   S    
C43   H30   S    
C46   H36   S    
O11   H3    S    
C20   C26   S    
C35   C36   S    
C23   C29   S    
C15   S6    S    
C18   N1    T    
C34   S4    S    
C21   O15   S    
C3    C7    S    
C33   S3    S    
C5    O18   S    
C46   H37   S    
S6    O28   D    
C3    C33   A    
C24   S2    S    
C44   H31   S    
S4    O24   S    
C35   H6    S    
O27   H27   S    
S2    O12   D    
O18   C41   S    
C28   H1    S    
C19   O5    A    
C37   H10   S    
S1    O10   D    
S4    O23   D    
C24   C27   S    
C45   C46   S    
C17   N2    T    
S1    O11   S    
C21   C27   S    
C36   H9    S    
O15   C35   S    
S5    O26   D    
C22   C28   S    
S4    O22   D    
C43   H29   S    
C20   O6    A    
C45   H35   S    
C4    C34   A    
S2    O13   D    
C11   O31   S    
O16   C37   S    
C6    O17   S    
C1    C9    S    
C39   H15   S    
C4    C6    A    
S3    O19   D    
C38   H13   S    
C8    C9    T    
C46   H38   S    
C44   H32   S    
C36   H7    S    
C35   H5    S    
O17   C39   S    
S3    O20   D    
C12   O32   S    
C11   C16   A    
O24   H26   S    
C12   C15   A    
C44   H33   S    
C5    C34   A    
C23   C28   S    
C41   H20   S    
N1    Zn2   S    
N2    Zn1   S    
C1    O3    A    
C12   C14   A    
S5    O27   S    
C21   C23   S    
C22   C24   S    
C2    C10   S    
C45   H34   S    
O1    Zn1   S    
O7    Zn2   S    
O2    Zn2   S    
O8    Zn1   S    
C39   H16   S    
C3    C5    A    
C38   H14   S    
O32   C45   S    
C19   O7    A    
C27   H2    S    
C21   C30   S    
C40   H18   S    
C6    C33   A    
C13   C17   S    
C13   C15   A    
C38   H12   S    
C29   C31   S    
O30   H28   S    
S3    O21   S    
C30   C32   S    
C11   C13   A    
O14   H4    S    
S6    O29   D    
C2    O4    A    
C37   C38   S    
C28   C30   S    
O3    Zn2   S    
C14   C16   A    
O4    Zn1   S    
O21   H25   S    
C19   C25   S    
C24   C30   S    
C22   O16   S    
C23   S1    S    
C1    O1    A    
C40   H17   S    
C2    O2    A    
C16   S5    S    
C39   C40   S    
C37   H11   S    
S1    O9    D    
C42   H24   S    
C42   H23   S    
C41   H21   S    
O5    Zn1   S    
S2    O14   S    
C43   C44   S    
C20   O8    A    
O6    Zn2   S    
S6    O30   S    
