data_mof_unit_28342.cif
_audit_creation_date              2012-12-11T15:48:50-0500
_audit_creation_method            fapswitch 2.2
_symmetry_space_group_name_H-M    P1
_symmetry_Int_Tables_number       1
_space_group_crystal_system       triclinic
_cell_length_a                    11.054821
_cell_length_b                    10.956492
_cell_length_c                    18.863616
_cell_angle_alpha                 90.420253
_cell_angle_beta                  90.102642
_cell_angle_gamma                 60.520452
_cell_volume                      1988.93232256

loop_
_atom_site_label
_atom_site_type_symbol
_atom_type_description
_atom_site_fract_x
_atom_site_fract_y
_atom_site_fract_z
_atom_type_partial_charge
C1    C     C_R   0.237009 0.648025 0.610087 0.554072
C2    C     C_R   0.559190 0.163421 0.716301 0.220331
C3    C     C_R   0.561690 0.169845 0.788918 -0.111987
C4    C     C_R   0.655615 0.623103 0.599838 0.551697
C5    C     C_3   0.924340 0.085183 0.781950 -0.073560
C6    C     C_3   0.908813 0.102886 0.702289 0.450609
C7    C     C_R   0.655710 0.183808 0.676467 0.021060
C8    C     C_R   0.174485 0.671595 0.834325 -0.049161
C9    C     C_R   0.148430 0.581277 0.792947 -0.055823
C10   C     C_R   0.154747 0.582387 0.719123 -0.036753
C11   C     C_R   0.194657 0.779985 0.726901 0.295954
C12   C     C_3   0.647199 0.572678 0.800719 0.114677
C13   C     C_R   0.201065 0.767850 0.800097 -0.057656
C14   C     C_3   0.226215 0.425876 0.795556 -0.161304
C15   C     C_3   0.233038 0.427126 0.715499 0.143750
C16   C     C_R   0.625279 0.231349 0.603409 0.515983
C17   C     C_R   0.183245 0.677072 0.683737 0.027223
C18   C     C_R   0.704982 0.705943 0.180865 -0.063007
C19   C     C_R   0.793285 0.581536 0.214944 -0.033107
C20   C     C_R   0.782904 0.564036 0.285716 0.091166
C21   C     C_R   0.601604 0.805518 0.296861 0.216675
C22   C     C_R   0.613907 0.821364 0.223158 -0.102836
C23   C     C_3   0.704285 0.674568 0.811276 0.002519
C24   C     C_3   0.833122 0.433732 0.196465 -0.157398
C25   C     C_3   0.823869 0.412449 0.274970 0.144110
C26   C     C_R   0.678884 0.669823 0.327283 0.020093
C27   C     C_R   0.666123 0.143881 0.179173 -0.026646
C28   C     C_R   0.220859 0.649847 0.402035 0.548601
C29   C     C_R   0.548716 0.161912 0.213898 -0.080048
C30   C     C_R   0.539836 0.169232 0.285989 0.067165
C31   C     C_R   0.779574 0.114994 0.294897 0.182867
C32   C     C_R   0.786177 0.116125 0.220090 0.246871
C33   C     C_3   0.400748 0.269321 0.202682 -0.192212
C34   C     C_3   0.676336 0.647328 0.675028 0.033761
C35   C     C_3   0.388666 0.278131 0.282697 0.152990
C36   C     C_R   0.649667 0.159579 0.327292 -0.047564
C37   C     C_R   0.130231 0.679435 0.185574 -0.086645
C38   C     C_R   0.171948 0.765534 0.218046 0.084801
C39   C     C_R   0.192467 0.758536 0.289157 0.020351
C40   C     C_R   0.645953 0.626160 0.394664 0.560531
C41   C     C_R   0.101074 0.599124 0.301214 0.192961
C42   C     C_R   0.089961 0.599056 0.227132 -0.108380
C43   C     C_3   0.297552 0.776367 0.200648 0.108842
C44   C     C_3   0.327705 0.758098 0.279282 0.151833
C45   C     C_3   0.833254 0.580381 0.693566 -0.291276
C46   C     C_R   0.161263 0.674585 0.332170 -0.016476
C47   C     C_R   0.700975 0.102275 0.896380 0.531650
C48   C     C_R   0.726911 0.689551 0.887377 0.603229
C49   C     C_R   0.117721 0.706208 0.905845 0.544762
C50   C     C_R   0.678040 0.104059 0.104923 0.553447
C51   C     C_R   0.729351 0.716067 0.105497 0.556065
C52   C     C_R   0.616734 0.227445 0.395978 0.530723
C53   C     C_R   0.089316 0.710837 0.113234 0.546617
C54   C     C_3   0.609002 0.821521 0.776581 0.229139
C55   C     C_3   0.608259 0.807506 0.694429 0.434397
C56   C     C_3   0.621874 0.564343 0.720614 0.099127
C57   C     C_3   0.847111 0.611078 0.771964 -0.324136
C58   C     C_R   0.675222 0.164816 0.825743 -0.062065
C59   C     C_R   0.772318 0.181875 0.786508 -0.109964
C60   C     C_R   0.758425 0.197484 0.712874 -0.012179
Cr1   Cr    Cr6+3 0.392960 0.397920 0.502240 1.025108
Cr2   Cr    Cr6+3 0.398340 0.708480 0.501250 1.081687
Cr3   Cr    Cr6+3 0.708670 0.393570 0.496460 1.018888
Cr4   Cr    Cr6+3 0.937650 0.938540 0.007610 1.080269
Cr5   Cr    Cr6+3 0.625330 0.937370 0.994520 1.057620
Cr6   Cr    Cr6+3 0.937940 0.625230 0.001190 1.013506
H1    H     H_    0.685250 0.452753 0.704581 0.115173
H2    H     H_    0.925268 0.511661 0.796807 0.176081
H3    H     H_    0.886979 0.464766 0.685330 0.206039
H4    H     H_    0.490897 0.091575 0.641009 0.397539
H5    H     H_    0.482082 0.156760 0.815483 0.212279
H6    H     H_    0.943938 0.198725 0.625350 0.330587
H7    H     H_    0.918658 0.003223 0.614592 0.317621
H8    H     H_    0.167132 0.920064 0.654914 0.401619
H9    H     H_    0.424552 0.842029 0.792447 0.397733
H10   H     H_    0.214021 0.844890 0.830594 0.181714
H11   H     H_    0.162957 0.381022 0.816796 0.183351
H12   H     H_    0.950560 0.979225 0.800412 0.142104
H13   H     H_    0.327073 0.389636 0.822504 0.082574
H14   H     H_    0.337540 0.389787 0.693035 0.169149
H15   H     H_    0.168636 0.374895 0.631677 0.346202
H16   H     H_    0.534568 0.903614 0.386398 0.327116
H17   H     H_    0.550220 0.922048 0.198870 0.164806
H18   H     H_    0.751943 0.425915 0.165018 0.118077
H19   H     H_    0.741654 0.386272 0.289249 0.139747
H20   H     H_    0.424712 0.835220 0.674528 0.408324
H21   H     H_    0.939632 0.301279 0.352346 0.375113
H22   H     H_    0.885278 0.049085 0.382077 0.330505
H23   H     H_    0.984754 0.130716 0.806690 0.154074
H24   H     H_    0.977549 0.083536 0.221108 0.409938
H25   H     H_    0.364666 0.381703 0.304997 0.129939
H26   H     H_    0.292167 0.245727 0.359099 0.369957
H27   H     H_    0.047944 0.551216 0.390246 0.324080
H28   H     H_    0.049879 0.537198 0.202260 0.179734
H29   H     H_    0.345965 0.906304 0.158593 0.333383
H30   H     H_    0.683454 0.858613 0.613206 0.324402
H31   H     H_    0.373319 0.690669 0.165361 0.106748
H32   H     H_    0.436397 0.552008 0.269196 0.286909
H33   H     H_    0.887267 0.620398 0.658999 0.187555
H34   H     H_    0.940226 0.374325 0.174455 0.199636
H35   H     H_    0.728921 0.466802 0.818709 0.106141
H36   H     H_    0.515115 0.529228 0.845848 0.319280
H37   H     H_    0.469612 0.524619 0.717975 0.301217
H38   H     H_    0.340730 0.224431 0.176804 0.200766
H39   H     H_    0.388951 0.366601 0.178151 0.071768
H40   H     H_    0.328830 0.847833 0.306237 0.245354
H41   H     H_    0.884986 0.687828 0.775177 0.158335
H42   H     H_    0.656705 0.887827 0.789225 0.176436
O1    O     O_R   0.507380 0.255700 0.581440 -0.525947
O2    O     O_R   0.837170 0.593410 0.915250 -0.536181
O3    O     O_R   0.065200 0.635530 0.931570 -0.503841
O4    O     O_R   0.280320 0.527350 0.578930 -0.529580
O5    O     O_R   0.068260 0.828890 0.091840 -0.434774
O6    O     O_R   0.798870 0.057410 0.079340 -0.436834
O7    O     O_R   0.584930 0.080350 0.076780 -0.536538
O8    O     O_R   0.626960 0.809650 0.067060 -0.499070
O9    O     O_R   0.816040 0.596610 0.076510 -0.513712
O10   O     O_R   0.045610 0.638500 0.081060 -0.535193
O11   O     O_3   0.833640 0.833710 0.001100 -0.302950
O12   O     O_R   0.524480 0.695810 0.424040 -0.471009
O13   O     O_R   0.260510 0.739590 0.584590 -0.505109
O14   O     O_R   0.532300 0.695080 0.573820 -0.460884
O15   O     O_R   0.744840 0.503500 0.576370 -0.544507
O16   O     O_R   0.699120 0.276560 0.571960 -0.524544
O17   O     O_R   0.498940 0.256500 0.419860 -0.524754
O18   O     O_R   0.272500 0.528080 0.429150 -0.511959
O19   O     O_R   0.252060 0.740380 0.423010 -0.492492
O20   O     O_3   0.458485 0.138676 0.687362 -0.600016
O21   O     O_3   0.978193 0.170421 0.674392 -0.660258
O22   O     O_3   0.934860 0.979855 0.665686 -0.705384
O23   O     O_R   0.736390 0.504290 0.414790 -0.529820
O24   O     O_3   0.207332 0.891252 0.702324 -0.653413
O25   O     O_3   0.474469 0.892395 0.806256 -0.625008
O26   O     O_3   0.156256 0.371329 0.683537 -0.643495
O27   O     O_3   0.510443 0.921855 0.335574 -0.670589
O28   O     O_3   0.473042 0.888578 0.667873 -0.610265
O29   O     O_3   0.955398 0.322497 0.303369 -0.597489
O30   O     O_3   0.898310 0.077332 0.334150 -0.701920
O31   O     O_3   0.907027 0.092076 0.186151 -0.632783
O32   O     O_3   0.303060 0.226468 0.307394 -0.578078
O33   O     O_3   0.059576 0.520104 0.340096 -0.649678
O34   O     O_R   0.691300 0.277290 0.422170 -0.495318
O35   O     O_3   0.260022 0.911810 0.177795 -0.655686
O36   O     O_3   0.690583 0.860685 0.665648 -0.714483
O37   O     O_3   0.443755 0.627259 0.295205 -0.736611
O38   O     O_3   0.526781 0.613144 0.841545 -0.683276
O39   O     O_3   0.482890 0.605581 0.706408 -0.695430
O40   O     O_3   0.499990 0.499990 0.499980 -0.248474
O41   O     O_R   0.089400 0.825690 0.930570 -0.525963
O42   O     O_R   0.818460 0.054440 0.929850 -0.505993
O43   O     O_R   0.606060 0.077150 0.915510 -0.524673
O44   O     O_R   0.646550 0.806680 0.917570 -0.442674

loop_
_geom_bond_atom_site_label_1
_geom_bond_atom_site_label_2
_ccdc_geom_bond_type
C48   O2    A    
C21   C26   A    
C34   C56   S    
C8    C13   A    
H8    O24   S    
C27   C29   A    
C33   H38   S    
C41   C42   A    
C7    C60   A    
C43   O35   S    
C2    C7    A    
C6    O22   S    
Cr1   O1    S    
C11   O24   S    
H24   O31   S    
H37   O39   S    
H6    O21   S    
C15   O26   S    
C23   C48   S    
H29   O35   S    
C12   C23   S    
C45   C57   S    
C37   C38   A    
Cr4   O11   S    
C30   C35   S    
Cr1   O40   S    
C18   C19   A    
C10   C15   S    
C31   C36   A    
C1    O4    A    
C5    C6    S    
C24   H34   S    
C20   C25   S    
C10   C17   A    
C55   O28   S    
C29   C33   S    
H16   O27   S    
C50   O7    A    
C14   H11   S    
C12   O38   S    
C37   C42   A    
C33   C35   S    
C54   C55   S    
C15   H14   S    
C28   O18   A    
C8    C9    A    
Cr6   O9    S    
C30   C36   A    
C18   C51   S    
C41   C46   A    
C47   O42   A    
Cr1   O18   S    
Cr4   O5    S    
Cr3   O23   S    
Cr6   O3    S    
C9    C10   A    
Cr2   O12   S    
C36   C52   S    
C27   C50   S    
C49   O3    A    
C37   C53   S    
C59   C60   A    
C56   O39   S    
Cr2   O40   S    
C21   C22   A    
Cr5   O7    S    
H21   O29   S    
C6    O21   S    
C53   O5    A    
C16   O1    A    
Cr3   O16   S    
H9    O25   S    
C4    C34   S    
Cr4   O6    S    
C5    C59   S    
C45   H3    S    
C6    C60   S    
H15   O26   S    
C33   H39   S    
C24   C25   S    
C32   O31   S    
C45   H33   S    
C53   O10   A    
C58   C59   A    
C54   O25   S    
C52   O34   A    
C4    O15   A    
Cr4   O42   S    
C50   O6    A    
C38   C39   A    
Cr5   O43   S    
C25   O29   S    
C9    C14   S    
C41   O33   S    
C29   C30   A    
C35   O32   S    
H30   O36   S    
C31   C32   A    
C13   H10   S    
C28   C46   S    
C25   H19   S    
C44   O37   S    
Cr5   O11   S    
C4    O14   A    
C34   C45   S    
C14   H13   S    
Cr6   O2    S    
C31   O30   S    
H22   O30   S    
C12   C56   S    
C49   O41   A    
C39   C46   A    
H20   O28   S    
C7    C16   S    
C57   H41   S    
C40   O23   A    
C47   O43   A    
Cr6   O11   S    
C48   O44   A    
C43   C44   S    
Cr5   O8    S    
C57   H2    S    
H26   O32   S    
Cr3   O40   S    
Cr2   O14   S    
H27   O33   S    
C23   C54   S    
H4    O20   S    
C23   C57   S    
H7    O22   S    
C11   C17   A    
C55   O36   S    
C40   O12   A    
C27   C32   A    
C42   H28   S    
C43   H31   S    
Cr3   O15   S    
C52   O17   A    
C28   O19   A    
C3    H5    S    
H32   O37   S    
C44   H40   S    
C56   H1    S    
C34   C55   S    
C1    C17   S    
C51   O8    A    
C54   H42   S    
Cr4   O41   S    
C22   H17   S    
C19   C20   A    
C18   C22   A    
C2    C3    A    
C39   C44   S    
C12   H35   S    
C24   H18   S    
H36   O38   S    
C47   C58   S    
C11   C13   A    
C26   C40   S    
Cr2   O19   S    
C20   C26   A    
Cr5   O44   S    
C51   O9    A    
Cr3   O34   S    
C19   C24   S    
C16   O16   A    
C1    O13   A    
C3    C58   A    
C38   C43   S    
Cr6   O10   S    
C14   C15   S    
Cr1   O17   S    
C5    H12   S    
Cr1   O4    S    
C8    C49   S    
C21   O27   S    
Cr2   O13   S    
C5    H23   S    
C2    O20   S    
C35   H25   S    
