data_mof_unit_5087.cif
_audit_creation_date              2012-12-10T17:55:05-0500
_audit_creation_method            fapswitch 2.2
_symmetry_space_group_name_H-M    P1
_symmetry_Int_Tables_number       1
_space_group_crystal_system       triclinic
_cell_length_a                    8.798212
_cell_length_b                    10.93004
_cell_length_c                    9.591485
_cell_angle_alpha                 89.706265
_cell_angle_beta                  98.026653
_cell_angle_gamma                 92.855605
_cell_volume                      912.191456667

loop_
_atom_site_label
_atom_site_type_symbol
_atom_type_description
_atom_site_fract_x
_atom_site_fract_y
_atom_site_fract_z
_atom_type_partial_charge
C1    C     C_R   0.510527 0.262805 0.501986 0.844668
C2    C     C_R   0.489473 0.737195 0.498014 0.844668
C3    C     C_R   0.204191 0.498085 0.464495 0.873304
C4    C     C_R   0.795809 0.501915 0.535505 0.873302
C5    C     C_2   0.039315 0.480318 0.449072 0.019070
C6    C     C_2   0.960685 0.519682 0.550928 0.019070
C7    C     C_R   0.525809 0.064267 0.377876 -0.128120
C8    C     C_R   0.474191 0.935733 0.622124 -0.128120
C9    C     C_R   0.493711 0.938269 0.370770 0.241142
C10   C     C_R   0.506289 0.061731 0.629230 0.241142
C11   C     C_R   0.480443 0.871557 0.495665 -0.181300
C12   C     C_R   0.519557 0.128443 0.504335 -0.181300
C13   C     C_R   0.400662 0.422805 0.060890 0.345297
C14   C     C_R   0.599338 0.577194 0.939110 0.345297
C15   C     C_R   0.399604 0.424251 0.912516 -0.011709
C16   C     C_R   0.600396 0.575749 0.087484 -0.011710
Cu1   Cu    Cu3+1 0.500000 0.500020 0.640660 1.063561
Cu2   Cu    Cu3+1 0.500000 0.499980 0.359340 1.063561
N1    N     N_R   0.500040 0.500030 0.852080 -0.228734
N2    N     N_R   0.499960 0.499970 0.147920 -0.228734
O1    O     O_R   0.499990 0.319660 0.618740 -0.562611
O2    O     O_R   0.500010 0.680340 0.381260 -0.562610
O3    O     O_R   0.499990 0.319630 0.381170 -0.565181
O4    O     O_R   0.500010 0.680370 0.618830 -0.565181
O5    O     O_R   0.274840 0.500010 0.591370 -0.588993
O6    O     O_R   0.725160 0.499990 0.408630 -0.588993
O7    O     O_R   0.274830 0.499980 0.353800 -0.522084
O8    O     O_R   0.725170 0.500020 0.646200 -0.522084
Br1   Br    Br    0.949390 0.375389 0.294054 -0.397408
Br2   Br    Br    0.050610 0.624611 0.705946 -0.397408
C17   C     C_1   0.579050 0.123988 0.257059 0.460120
N3    N     N_1   0.622926 0.171544 0.161207 -0.144863
C18   C     C_1   0.420950 0.876012 0.742941 0.460120
N4    N     N_1   0.377074 0.828455 0.838793 -0.144863
Br3   Br    Br    0.445532 0.867180 0.184033 -0.411880
Br4   Br    Br    0.554468 0.132820 0.815967 -0.411880
Br5   Br    Br    0.263383 0.305624 0.135704 -0.360646
Br6   Br    Br    0.736617 0.694376 0.864296 -0.360646
C19   C     C_1   0.289952 0.345378 0.824751 0.478426
N5    N     N_1   0.201365 0.281715 0.755332 -0.222058
C20   C     C_1   0.710048 0.654622 0.175249 0.478426
N6    N     N_1   0.798635 0.718285 0.244668 -0.222058

loop_
_geom_bond_atom_site_label_1
_geom_bond_atom_site_label_2
_ccdc_geom_bond_type
Cu1   Cu2   S    
C2    O2    A    
C4    O6    A    
C1    O1    A    
C14   Br6   S    
C20   N6    T    
Cu2   N2    S    
C17   N3    T    
Cu2   O6    S    
C16   N2    A    
Cu1   O5    S    
C3    O7    A    
C18   N4    T    
C15   N1    A    
C9    C11   A    
C15   C19   S    
C5    C6    D    
C1    C12   S    
C10   C12   A    
C8    C11   A    
C2    C11   S    
C16   C20   S    
C8    C10   A    
C4    O8    A    
C1    O3    A    
C5    Br1   S    
C8    C18   S    
C13   C15   A    
C2    O4    A    
C7    C12   A    
C14   C16   A    
Cu1   O4    S    
C7    C17   S    
Cu2   O3    S    
C7    C9    A    
C3    O5    A    
C4    C6    S    
C19   N5    T    
C9    Br3   S    
C10   Br4   S    
C13   N2    A    
Cu1   N1    S    
Cu2   O2    S    
Cu1   O8    S    
C13   Br5   S    
C14   N1    A    
C6    Br2   S    
Cu1   O1    S    
Cu2   O7    S    
C3    C5    S    
