data_mof_unit_54533.cif
_audit_creation_date              2013-03-05T15:40:44-0500
_audit_creation_method            fapswitch 2.2
_symmetry_space_group_name_H-M    P1
_symmetry_Int_Tables_number       1
_space_group_crystal_system       triclinic
_cell_length_a                    14.986524
_cell_length_b                    14.86846
_cell_length_c                    14.901992
_cell_angle_alpha                 109.613343
_cell_angle_beta                  109.40287
_cell_angle_gamma                 109.152662
_cell_volume                      2563.8295921

loop_
_atom_site_label
_atom_site_type_symbol
_atom_site_description
_atom_site_fract_x
_atom_site_fract_y
_atom_site_fract_z
_atom_type_partial_charge
C1    C     C_R   0.931253 0.747665 0.025861 -0.072109
H1    H     H_    0.877258 0.757440 0.056594 0.124778
N1    N     N_R   0.993980 0.704500 0.053430 -0.049124
C2    C     C_R   0.779003 0.242996 0.685680 -0.139498
H2    H     H_    0.799079 0.228084 0.620852 0.107332
N2    N     N_R   0.850110 0.295520 0.792970 -0.049085
C3    C     C_R   0.085020 0.591217 0.787318 -0.154125
H3    H     H_    0.142947 0.674849 0.816096 0.097433
N3    N     N_R   0.053690 0.556380 0.849240 -0.040671
C4    C     C_R   0.700310 0.408716 0.003419 -0.107025
H4    H     H_    0.646359 0.323801 0.974364 0.126071
N4    N     N_R   0.790390 0.443640 0.997160 -0.038225
C5    C     C_R   0.996246 0.408636 0.696751 -0.120219
H5    H     H_    0.970765 0.324557 0.642175 0.088425
N5    N     N_R   0.998260 0.443670 0.792970 -0.044743
C6    C     C_R   0.789833 0.591099 0.094561 -0.144247
H6    H     H_    0.818822 0.675961 0.150113 0.119778
N6    N     N_R   0.845830 0.556350 0.053430 -0.050327
C7    C     C_R   0.686797 0.244707 0.777547 -0.079284
H7    H     H_    0.622899 0.231149 0.798284 0.095422
N7    N     N_R   0.792820 0.295510 0.849240 -0.039526
C8    C     C_R   0.023288 0.748062 0.934418 -0.162812
H8    H     H_    0.055073 0.758872 0.881471 0.104923
N8    N     N_R   0.051260 0.704510 0.997160 -0.033366
C9    C     C_R   0.945488 0.773076 0.948701 -0.041862
C10   C     C_R   0.676412 0.212772 0.674192 0.104132
C11   C     C_R   0.049630 0.500125 0.691099 0.137964
C12   C     C_R   0.698620 0.499870 0.065653 0.034717
C13   C     C_R   0.067061 0.591607 0.312643 -0.100017
H9    H     H_    0.121726 0.676439 0.376570 0.103108
N9    N     N_R   0.001740 0.556330 0.207030 -0.045696
C14   C     C_R   0.223277 0.407949 0.975369 -0.137365
H10   H     H_    0.201824 0.322629 0.938266 0.097415
N10   N     N_R   0.154170 0.443650 0.946570 -0.038027
C15   C     C_R   0.296624 0.803128 0.207068 -0.149522
H11   H     H_    0.347362 0.832745 0.174724 0.096527
N11   N     N_R   0.207180 0.704490 0.150760 -0.041341
C16   C     C_R   0.904101 0.194271 0.989779 0.309223
N12   N     N_R   0.948740 0.295490 0.002840 -0.092137
C17   C     C_R   0.999001 0.197255 0.903123 -0.205961
H12   H     H_    0.019061 0.169362 0.839444 0.120672
N13   N     N_R   0.006020 0.295500 0.946570 -0.060326
C18   C     C_R   0.205126 0.802942 0.297663 -0.133847
H13   H     H_    0.171197 0.831820 0.347239 0.098021
N14   N     N_R   0.149890 0.704480 0.207030 -0.048250
C19   C     C_R   0.977294 0.408307 0.220953 -0.052783
H14   H     H_    0.949794 0.323551 0.199302 0.128604
N15   N     N_R   0.946310 0.443620 0.150760 -0.034421
C20   C     C_R   0.313605 0.591671 0.067416 -0.135863
H15   H     H_    0.376274 0.676869 0.115581 0.101279
N16   N     N_R   0.209610 0.556360 0.002840 -0.039508
Ni1   Ni    Ni4+2 0.997880 0.629240 0.129060 0.229696
Ni2   Ni    Ni4+2 0.002120 0.370760 0.870940 0.202389
Ni3   Ni    Ni4+2 0.129260 0.629260 0.000000 0.209396
Ni4   Ni    Ni4+2 0.870740 0.370740 0.000000 0.294058
C21   C     C_R   0.054812 0.500007 0.323106 0.085282
C22   C     C_R   0.325359 0.499673 0.052008 0.027382
C23   C     C_R   0.296521 0.866710 0.298586 0.140422
C24   C     C_R   0.933449 0.130717 0.926735 -0.030571
C25   C     C_3   0.538579 0.505360 0.969061 -0.476440
H16   H     H_    0.516737 0.434493 0.892260 0.179223
H17   H     H_    0.589131 0.581583 0.971950 0.162562
C26   C     C_3   0.435113 0.503585 0.964548 -0.377499
H18   H     H_    0.435071 0.577933 0.962921 0.161978
H19   H     H_    0.363492 0.430561 0.886537 0.165665
H20   H     H_    0.498694 0.320125 0.983251 0.143617
H21   H     H_    0.354016 0.318946 0.992420 0.144821
C27   C     C_3   0.527674 0.392499 0.062325 -0.345325
C28   C     C_3   0.633267 0.602660 0.176119 0.267553
C29   C     C_3   0.602622 0.500019 0.070894 0.206210
H22   H     H_    0.678291 0.677845 0.174426 0.048447
C30   C     C_3   0.427098 0.499883 0.064687 0.329433
C31   C     C_3   0.427006 0.395348 0.064988 -0.389367
C32   C     C_3   0.528569 0.601229 0.172855 -0.508163
H23   H     H_    0.533101 0.679103 0.178380 0.137790
H24   H     H_    0.522688 0.599236 0.244719 0.203302
H25   H     H_    0.572008 0.379341 0.128503 0.210188
H26   H     H_    0.426802 0.394830 0.139419 0.186720
C33   C     C_2   0.377815 0.037560 0.467676 -0.106422
C34   C     C_2   0.371612 0.983800 0.371638 -0.187772
H27   H     H_    0.313870 0.001577 0.484303 0.120305
H28   H     H_    0.431913 0.021836 0.351894 0.133381
C35   C     C_2   0.480134 0.132732 0.562861 -0.112888
C36   C     C_2   0.576163 0.148399 0.569844 -0.170120
H29   H     H_    0.476584 0.177091 0.634970 0.115335
H30   H     H_    0.582317 0.103754 0.500001 0.132545
C37   C     C_2   0.075648 0.418739 0.535966 -0.119315
C38   C     C_2   0.076237 0.503669 0.606837 -0.180689
H31   H     H_    0.059461 0.345357 0.542817 0.123582
H32   H     H_    0.089387 0.576654 0.599957 0.139971
C39   C     C_2   0.073140 0.412450 0.434708 -0.093285
C40   C     C_2   0.108515 0.502759 0.426096 -0.185284
H33   H     H_    0.023615 0.331280 0.362465 0.135033
H34   H     H_    0.164225 0.583347 0.498841 0.133244
C41   C     C_2   0.935900 0.962055 0.840444 -0.108303
C42   C     C_2   0.882579 0.011233 0.871099 -0.047454
H35   H     H_    0.008277 0.008287 0.839352 0.125237
H36   H     H_    0.806045 0.965310 0.864883 0.208967
C43   C     C_2   0.919922 0.856600 0.833792 -0.291243
C44   C     C_2   0.891951 0.824416 0.899655 0.596379
H37   H     H_    0.962222 0.823537 0.798397 0.112394
N17   N     N_R   0.813665 0.151690 0.006091 0.212682
O1    O     O_R   0.794609 0.070595 0.025897 -0.399428
O2    O     O_R   0.756003 0.200289 0.011281 -0.444325
N18   N     N_R   0.703434 0.610764 0.277999 0.241641
O3    O     O_R   0.665549 0.542978 0.310041 -0.409557
O4    O     O_R   0.803208 0.691580 0.341567 -0.412668
O5    O     O_3   0.834127 0.860593 0.943517 -0.594051
C45   C     C_3   0.724215 0.776590 0.880084 -0.241522
H38   H     H_    0.677225 0.804749 0.914895 0.196101
H39   H     H_    0.714542 0.700076 0.882522 0.116238
H40   H     H_    0.688630 0.758924 0.793543 0.138008

loop_
_geom_bond_atom_site_label_1
_geom_bond_atom_site_label_2
_geom_bond_distance
_ccdc_geom_bond_type
C6    C12   1.376182 A    
N15   Ni4   1.836846 S    
H20   C27   1.112270 S    
C37   C38   1.342105 D    
C26   H19   1.114123 S    
C37   C39   1.467091 S    
C30   C32   1.555162 S    
C7    H7    1.079310 S    
N9    Ni1   1.835936 S    
N6    Ni1   1.868266 S    
C3    H3    1.081710 S    
N18   O4    1.301074 A    
N10   N16   1.371832 A    
C32   H24   1.112582 S    
C15   C23   1.374941 A    
N5    Ni2   1.835936 S    
C15   N11   1.337295 A    
C36   H30   1.082841 S    
C28   C29   1.566481 S    
C45   H39   1.113378 S    
N13   Ni2   1.836194 S    
C16   N12   1.344077 A    
C41   C43   1.469414 S    
N8    Ni3   1.864719 S    
C3    C11   1.375220 A    
O5    C45   1.410557 S    
C25   H17   1.114625 S    
C1    H1    1.079080 S    
C28   H22   1.113951 S    
C7    C10   1.386783 A    
C18   C23   1.379060 A    
N12   Ni4   1.864720 S    
C15   H11   1.081989 S    
C6    H6    1.079920 S    
C20   N16   1.325931 A    
C8    C9    1.392617 A    
C42   H36   1.078622 S    
C31   H26   1.112780 S    
H21   C31   1.109239 S    
C23   C34   1.452767 S    
C17   N13   1.335307 A    
C17   C24   1.375965 A    
C5    H5    1.080714 S    
C1    C9    1.382794 A    
N1    N8    1.385026 A    
N17   O1    1.300592 A    
C14   C22   1.388939 A    
N12   N13   1.385028 A    
C19   N15   1.338437 A    
C44   O5    1.383364 S    
C32   H23   1.110287 S    
C34   H28   1.084482 S    
C45   H40   1.113665 S    
C39   C40   1.339520 D    
C33   H27   1.084587 S    
C28   N18   1.469210 S    
C2    H2    1.079840 S    
N14   Ni1   1.867540 S    
C27   C31   1.536231 S    
C26   H18   1.114010 S    
N2    N7    1.385152 A    
C33   C34   1.338140 D    
C25   H16   1.114641 S    
C1    N1    1.334426 A    
C14   N10   1.325487 A    
C18   H13   1.081016 S    
C13   H9    1.079980 S    
C39   H33   1.084202 S    
C9    C44   1.465418 S    
C35   C36   1.341825 D    
C25   C29   1.547118 S    
C13   N9    1.340014 A    
C40   H34   1.085429 S    
C28   C32   1.546425 S    
N17   O2    1.300579 A    
C18   N14   1.336847 A    
C4    N4    1.325517 A    
N11   Ni3   1.837083 S    
C2    N2    1.336195 A    
C17   H12   1.081671 S    
C35   H29   1.085227 S    
C38   H32   1.083839 S    
N9    N15   1.371832 A    
C5    N5    1.337050 A    
C8    N8    1.339184 A    
C24   C42   1.458493 S    
N2    Ni2   1.867540 S    
N4    N6    1.371831 A    
N7    Ni4   1.837085 S    
C4    C12   1.375473 A    
C27   H25   1.109836 S    
C3    N3    1.337686 A    
C19   H14   1.077005 S    
C10   C36   1.447857 S    
C7    N7    1.333959 A    
C12   C29   1.467135 S    
C30   C31   1.555332 S    
C20   C22   1.388879 A    
C2    C10   1.383904 A    
N1    Ni1   1.836194 S    
C41   H35   1.085947 S    
C13   C21   1.382186 A    
N18   O3    1.301501 A    
C43   C44   1.350938 D    
N16   Ni3   1.865490 S    
C14   H10   1.077849 S    
C37   H31   1.085018 S    
N3    N5    1.371832 A    
C16   N17   1.433858 S    
C45   H38   1.109373 S    
C33   C35   1.466040 S    
C22   C30   1.471559 S    
C11   C38   1.449766 S    
N4    Ni4   1.865488 S    
C25   C26   1.520603 S    
C4    H4    1.079731 S    
C16   C24   1.385740 A    
C21   C40   1.456175 S    
C26   C30   1.553791 S    
N10   Ni2   1.868266 S    
C6    N6    1.326863 A    
C20   H15   1.078407 S    
C19   C21   1.384984 A    
C41   C42   1.335528 D    
C27   C29   1.556603 S    
C8    H8    1.076984 S    
C5    C11   1.380265 A    
N3    Ni3   1.836847 S    
N11   N14   1.385152 A    
C43   H37   1.083667 S    
