data_mof_unit_28778.cif
_audit_creation_date              2013-03-05T15:53:18-0500
_audit_creation_method            fapswitch 2.2
_symmetry_space_group_name_H-M    P1
_symmetry_Int_Tables_number       1
_space_group_crystal_system       triclinic
_cell_length_a                    26.947757
_cell_length_b                    7.190108
_cell_length_c                    22.958541
_cell_angle_alpha                 89.893619
_cell_angle_beta                  101.175613
_cell_angle_gamma                 90.198117
_cell_volume                      4364.00382145

loop_
_atom_site_label
_atom_site_type_symbol
_atom_site_description
_atom_site_fract_x
_atom_site_fract_y
_atom_site_fract_z
_atom_type_partial_charge
O1    O     O_R   0.207310 0.594030 0.676830 -0.598707
O2    O     O_R   0.792690 0.405970 0.323170 -0.552910
O3    O     O_R   0.292690 0.094030 0.823170 -0.597036
O4    O     O_R   0.707310 0.905970 0.176830 -0.594038
O5    O     O_R   0.197320 0.262370 0.795700 -0.572342
O6    O     O_R   0.802680 0.737630 0.204300 -0.569923
O7    O     O_R   0.302680 0.762370 0.704300 -0.567090
O8    O     O_R   0.697320 0.237630 0.295700 -0.562622
C1    C     C_R   0.184176 0.432585 0.811377 0.997045
C2    C     C_R   0.816596 0.566991 0.189893 0.987704
C3    C     C_R   0.315725 0.933473 0.688546 0.964086
C4    C     C_R   0.684139 0.066140 0.311333 0.974999
O9    O     O_R   0.201410 0.264250 0.675590 -0.586262
O10   O     O_R   0.798590 0.735750 0.324410 -0.600767
O11   O     O_R   0.298590 0.764250 0.824410 -0.576992
O12   O     O_R   0.701410 0.235750 0.175590 -0.588315
O13   O     O_R   0.296810 0.094940 0.702210 -0.541158
O14   O     O_R   0.703190 0.905060 0.297790 -0.555102
O15   O     O_R   0.203190 0.594940 0.797790 -0.545747
O16   O     O_R   0.796810 0.405060 0.202210 -0.547527
C5    C     C_R   0.189976 0.432975 0.652744 1.028694
C6    C     C_R   0.811193 0.567243 0.346010 1.022411
C7    C     C_R   0.309373 0.932577 0.846893 0.994827
C8    C     C_R   0.689177 0.067249 0.154073 1.027992
O17   O     O_3   0.281300 0.427390 0.758870 -0.257800
O18   O     O_3   0.718700 0.572610 0.241130 -0.261114
O19   O     O_3   0.218700 0.927390 0.741130 -0.270686
O20   O     O_3   0.781300 0.072610 0.258870 -0.258062
V1    V     V_3+5 0.244190 0.152150 0.748350 1.275612
V2    V     V_3+5 0.755810 0.847850 0.251650 1.279244
V3    V     V_3+5 0.255810 0.652150 0.751650 1.276929
V4    V     V_3+5 0.744190 0.347850 0.248350 1.305557
C9    C     C_R   0.651311 0.058468 0.097841 -0.343214
C10   C     C_R   0.342874 0.939713 0.905975 -0.327007
C11   C     C_R   0.847870 0.557910 0.403691 -0.340200
C12   C     C_R   0.157101 0.436662 0.591990 -0.347996
C13   C     C_R   0.635502 0.042175 0.989798 0.029695
C14   C     C_R   0.351902 0.921258 0.014108 0.047117
C15   C     C_R   0.862276 0.512471 0.511659 0.036859
C16   C     C_R   0.140747 0.325450 0.489392 0.040359
C17   C     C_R   0.667967 0.083848 0.044173 0.320559
C18   C     C_R   0.322687 0.894711 0.956321 0.281556
C19   C     C_R   0.829521 0.512692 0.455324 0.289312
C20   C     C_R   0.172905 0.338791 0.545858 0.286172
C21   C     C_R   0.598996 0.029241 0.097618 0.093380
C22   C     C_R   0.394286 0.990962 0.912440 0.033948
C23   C     C_R   0.900801 0.582258 0.407232 0.105326
C24   C     C_R   0.111196 0.537748 0.578377 0.073182
C25   C     C_R   0.564255 0.011671 0.041687 0.014450
C26   C     C_R   0.425739 0.980056 0.969614 0.035690
C27   C     C_R   0.934381 0.552333 0.462876 0.010830
C28   C     C_R   0.073129 0.479007 0.529126 0.009022
C29   C     C_R   0.585465 0.978091 0.990414 -0.036392
C30   C     C_R   0.402687 0.989056 0.019949 -0.011711
C31   C     C_R   0.914226 0.561036 0.515281 -0.006848
C32   C     C_R   0.088330 0.370573 0.483568 -0.014466
C33   C     C_R   0.509745 0.018610 0.033688 0.046399
C34   C     C_R   0.479426 0.967653 0.978539 0.059057
C35   C     C_R   0.986599 0.503057 0.468707 0.069520
C36   C     C_R   0.020445 0.522315 0.524023 0.058066
C37   C     C_R   0.502789 0.883606 0.936083 -0.261003
C38   C     C_R   0.484136 0.091881 0.076142 -0.260686
C39   C     C_R   0.999776 0.567607 0.573899 -0.269476
C40   C     C_R   0.002257 0.393925 0.425218 -0.306870
C41   C     C_R   0.555317 0.881523 0.942092 0.215234
C42   C     C_R   0.431604 0.070927 0.072280 0.208330
C43   C     C_R   0.947936 0.600826 0.569471 0.212082
C44   C     C_R   0.050409 0.312604 0.434223 0.216807
H1    H     H_    0.479851 0.813327 0.898500 0.148991
H2    H     H_    0.504828 0.169494 0.111913 0.190050
H3    H     H_    0.023538 0.570911 0.617605 0.172552
H4    H     H_    0.974069 0.348349 0.387617 0.169762
C45   C     C_R   0.611307 0.890442 0.344208 0.239729
C46   C     C_R   0.386536 0.107300 0.651856 0.258734
C47   C     C_R   0.891513 0.397654 0.161781 0.254159
C48   C     C_R   0.112050 0.600237 0.846122 0.275427
C49   C     C_R   0.574435 0.877361 0.380319 0.270979
C50   C     C_R   0.420457 0.124330 0.612275 0.268442
C51   C     C_R   0.927308 0.378530 0.124289 0.252878
C52   C     C_R   0.077972 0.617500 0.885574 0.260176
C53   C     C_R   0.568954 0.022426 0.420000 -0.119210
C54   C     C_R   0.424229 0.980456 0.571512 -0.116882
C55   C     C_R   0.930838 0.515523 0.080793 -0.111681
C56   C     C_R   0.075129 0.476468 0.927958 -0.119922
C57   C     C_R   0.600818 0.178466 0.422808 -0.100847
C58   C     C_R   0.392327 0.824667 0.569772 -0.095530
C59   C     C_R   0.898115 0.669191 0.075773 -0.084341
C60   C     C_R   0.107770 0.323011 0.930766 -0.081527
H5    H     H_    0.597953 0.290270 0.453452 0.198935
H6    H     H_    0.393832 0.713989 0.538290 0.193288
H7    H     H_    0.899996 0.776465 0.043093 0.182526
H8    H     H_    0.106631 0.213392 0.962883 0.189436
C61   C     C_R   0.636838 0.192995 0.386558 -0.032144
C62   C     C_R   0.358252 0.808741 0.608546 -0.054194
C63   C     C_R   0.862715 0.688090 0.112646 -0.062815
C64   C     C_R   0.141895 0.307264 0.892013 -0.051433
H9    H     H_    0.660973 0.314459 0.390946 0.230901
H10   H     H_    0.333671 0.688296 0.604909 0.211032
H11   H     H_    0.837705 0.806983 0.106488 0.207489
H12   H     H_    0.166838 0.188289 0.896244 0.207743
C65   C     C_R   0.643197 0.050175 0.347099 -0.345942
C66   C     C_R   0.354710 0.948503 0.650190 -0.315596
C67   C     C_R   0.858238 0.552806 0.155427 -0.323026
C68   C     C_R   0.144817 0.444974 0.849335 -0.322315
N1    N     N_R   0.540408 0.091673 0.513799 -0.046135
N2    N     N_R   0.452369 0.910069 0.477190 -0.050098
N3    N     N_R   0.958349 0.578594 0.985621 -0.053335
N4    N     N_R   0.047634 0.408477 0.023151 -0.050133
N5    N     N_R   0.506821 0.080150 0.549331 -0.016149
N6    N     N_R   0.486006 0.921496 0.441632 -0.017524
N7    N     N_R   0.991848 0.568806 0.949917 -0.019996
N8    N     N_R   0.014092 0.418265 0.058893 -0.017426
C69   C     C_R   0.461967 0.989966 0.531805 0.237684
C70   C     C_R   0.530815 0.012207 0.459163 0.239786
C71   C     C_R   0.037384 0.484616 0.967901 0.237132
C72   C     C_R   0.968613 0.503192 0.040940 0.230886
C73   C     C_3   0.577348 0.753847 0.900989 -0.370300
C74   C     C_3   0.561907 0.550598 0.907286 -0.842370
H13   H     H_    0.572673 0.505020 0.954315 0.258052
H14   H     H_    0.520591 0.530735 0.891852 0.260035
H15   H     H_    0.581675 0.460765 0.879802 0.252769
H16   H     H_    0.564717 0.799791 0.854239 0.205748
H17   H     H_    0.618973 0.754816 0.911301 0.222176
C75   C     C_3   0.406415 0.157033 0.119929 -0.385013
C76   C     C_3   0.435646 0.314736 0.156419 -0.842354
H18   H     H_    0.468654 0.259097 0.188160 0.271004
H19   H     H_    0.448388 0.419785 0.126920 0.259614
H20   H     H_    0.410723 0.384140 0.182936 0.269178
H21   H     H_    0.369678 0.217913 0.097968 0.200298
H22   H     H_    0.399952 0.047682 0.151778 0.218969
C77   C     C_3   0.930806 0.700612 0.620366 -0.386293
C78   C     C_3   0.963247 0.871985 0.641491 -0.797021
H23   H     H_    0.001480 0.831178 0.665338 0.289390
H24   H     H_    0.966831 0.962242 0.603168 0.242624
H25   H     H_    0.945148 0.953392 0.672718 0.265823
H26   H     H_    0.891961 0.755295 0.605618 0.198312
H27   H     H_    0.931676 0.603249 0.658179 0.218151
C79   C     C_3   0.054686 0.138475 0.397794 -0.327903
C80   C     C_3   0.054564 0.964090 0.435829 -0.891179
H28   H     H_    0.086939 0.966680 0.473494 0.261082
H29   H     H_    0.019407 0.956341 0.454112 0.260171
H30   H     H_    0.057142 0.837931 0.408753 0.258785
H31   H     H_    0.021961 0.126341 0.360148 0.209224
H32   H     H_    0.087610 0.138839 0.376105 0.209190
C81   C     C_3   0.410774 0.109386 0.864366 -0.300907
C82   C     C_3   0.402312 0.315350 0.876043 -0.734324
H33   H     H_    0.361709 0.342835 0.875510 0.262826
H34   H     H_    0.424799 0.356977 0.919925 0.223796
H35   H     H_    0.414531 0.403032 0.841590 0.271635
H36   H     H_    0.451000 0.092691 0.861944 0.202708
H37   H     H_    0.389574 0.070665 0.819700 0.189402
C83   C     C_3   0.583671 0.988092 0.156805 -0.372068
C84   C     C_3   0.583141 0.163263 0.194869 -0.825726
H38   H     H_    0.621557 0.198655 0.217891 0.247841
H39   H     H_    0.569068 0.287666 0.168196 0.259698
H40   H     H_    0.559654 0.138329 0.228879 0.261937
H41   H     H_    0.547004 0.913639 0.151151 0.222302
H42   H     H_    0.610730 0.887257 0.181885 0.223513
C85   C     C_3   0.108830 0.730178 0.605437 -0.380325
C86   C     C_3   0.146588 0.864947 0.585815 -0.692613
H43   H     H_    0.184532 0.854815 0.614310 0.286183
H44   H     H_    0.150421 0.837312 0.539369 0.237480
H45   H     H_    0.133409 0.010017 0.589000 0.222060
H46   H     H_    0.071510 0.796403 0.590695 0.200036
H47   H     H_    0.115975 0.721109 0.654360 0.246388
C87   C     C_3   0.919825 0.675518 0.355970 -0.356491
C88   C     C_3   0.915241 0.887028 0.359222 -0.753987
H48   H     H_    0.875270 0.930590 0.354241 0.277104
H49   H     H_    0.936215 0.939288 0.402485 0.232236
H50   H     H_    0.931329 0.952522 0.323122 0.281482
H51   H     H_    0.960054 0.645844 0.356157 0.207895
H52   H     H_    0.898367 0.625965 0.312597 0.202494
N9    N     N_R   0.270914 0.835460 0.948411 0.220402
O21   O     O_R   0.257975 0.669274 0.928735 -0.408891
O22   O     O_R   0.236984 0.945795 0.962566 -0.421904
N10   N     N_R   0.718482 0.149414 0.045244 0.230949
O23   O     O_R   0.756974 0.044093 0.066256 -0.420534
O24   O     O_R   0.726106 0.321461 0.031623 -0.411406
N11   N     N_R   0.224424 0.277204 0.553971 0.239273
O25   O     O_R   0.261201 0.397157 0.566310 -0.403512
O26   O     O_R   0.234673 0.100515 0.557119 -0.436483
N12   N     N_R   0.776929 0.469292 0.450263 0.219815
O27   O     O_R   0.760342 0.304046 0.433485 -0.418928
O28   O     O_R   0.746602 0.589377 0.467121 -0.392356
C89   C     C_3   0.651747 0.096344 0.931966 -0.371391
C90   C     C_3   0.697928 0.987874 0.920663 -0.752509
H53   H     H_    0.733370 0.063952 0.939090 0.289489
H54   H     H_    0.700129 0.847280 0.941067 0.253149
H55   H     H_    0.695928 0.972853 0.872132 0.236307
H56   H     H_    0.620245 0.080657 0.893290 0.183323
H57   H     H_    0.660747 0.247356 0.933124 0.226542
C91   C     C_3   0.331149 0.846284 0.067010 -0.289459
C92   C     C_3   0.363819 0.688723 0.098201 -0.910087
H58   H     H_    0.365597 0.573878 0.066363 0.273289
H59   H     H_    0.402805 0.736868 0.116673 0.263739
H60   H     H_    0.346883 0.634201 0.135234 0.264701
H61   H     H_    0.325797 0.956485 0.098520 0.177954
H62   H     H_    0.292736 0.786438 0.053412 0.243339
C93   C     C_3   0.844007 0.419655 0.563884 -0.286743
C94   C     C_3   0.872037 0.237474 0.581655 -0.877328
H63   H     H_    0.868474 0.143435 0.542697 0.272440
H64   H     H_    0.912674 0.263724 0.599754 0.255196
H65   H     H_    0.855514 0.166686 0.616522 0.260562
H66   H     H_    0.847098 0.510618 0.602987 0.176081
H67   H     H_    0.803224 0.384282 0.552886 0.242745
C95   C     C_3   0.165615 0.314811 0.435329 -0.327213
C96   C     C_3   0.185248 0.120925 0.424040 -0.764944
H68   H     H_    0.225536 0.106584 0.445823 0.288943
H69   H     H_    0.163075 0.009272 0.440500 0.253627
H70   H     H_    0.183035 0.100988 0.375655 0.231968
H71   H     H_    0.139883 0.367831 0.395128 0.172243
H72   H     H_    0.197955 0.414031 0.441310 0.208108
N13   N     N_R   0.617675 0.735280 0.307356 0.246125
O29   O     O_R   0.582878 0.696611 0.261290 -0.401897
O30   O     O_R   0.650991 0.609232 0.327844 -0.360303
N14   N     N_R   0.384522 0.254288 0.693155 0.246400
O31   O     O_R   0.420271 0.268210 0.739864 -0.413147
O32   O     O_R   0.355560 0.396674 0.676715 -0.343701
N15   N     N_R   0.889002 0.257497 0.205820 0.260122
O33   O     O_R   0.894659 0.302555 0.261562 -0.459694
O34   O     O_R   0.882750 0.083543 0.190578 -0.352384
N16   N     N_R   0.112123 0.739764 0.801733 0.257360
O35   O     O_R   0.086940 0.710241 0.748321 -0.451949
O36   O     O_R   0.128480 0.906418 0.817018 -0.349626
N17   N     N_R   0.545589 0.709115 0.379840 0.251272
O37   O     O_R   0.549941 0.608425 0.427678 -0.396319
O38   O     O_R   0.512420 0.663033 0.333007 -0.339906
N18   N     N_R   0.448379 0.294314 0.611038 0.250147
O39   O     O_R   0.442961 0.391633 0.562401 -0.397315
O40   O     O_R   0.480223 0.349844 0.657825 -0.326217
N19   N     N_R   0.959140 0.217307 0.129996 0.254730
O41   O     O_R   0.957004 0.104078 0.085430 -0.384114
O42   O     O_R   0.987582 0.176144 0.180882 -0.355169
N20   N     N_R   0.047628 0.782115 0.883434 0.251574
O43   O     O_R   0.050870 0.886125 0.930346 -0.389271
O44   O     O_R   0.018847 0.834114 0.833905 -0.336445

loop_
_geom_bond_atom_site_label_1
_geom_bond_atom_site_label_2
_geom_bond_distance
_ccdc_geom_bond_type
O17   V3    1.753131 S    
C55   C59   1.406589 A    
C60   C64   1.402944 A    
C96   H70   1.110380 S    
C49   N17   1.434569 S    
C59   H7    1.082921 S    
O19   V1    1.749315 S    
C9    C21   1.423684 A    
C44   C79   1.523986 S    
C10   C18   1.406339 A    
C93   H67   1.107713 S    
C52   C56   1.416226 A    
O15   V3    1.969431 S    
C74   H14   1.109814 S    
N18   O40   1.300593 A    
C81   C82   1.531164 S    
C89   C90   1.535243 S    
C25   C33   1.445649 A    
C89   H56   1.108756 S    
C88   H49   1.108831 S    
C5    C12   1.500698 S    
N9    O21   1.300574 A    
O1    C5    1.327947 A    
C6    C11   1.492590 S    
C35   C40   1.399678 A    
C26   C30   1.415755 A    
C36   C39   1.406190 A    
C40   C44   1.403272 A    
N4    C71   1.359292 A    
O9    V1    2.006002 S    
C2    C67   1.497020 S    
N14   O32   1.299832 A    
C14   C18   1.418241 A    
C24   C28   1.434712 A    
C79   H31   1.112018 S    
C1    C68   1.500534 S    
O16   V4    1.969428 S    
O4    C8    1.326331 A    
C80   H30   1.110556 S    
C63   H11   1.082404 S    
C22   C81   1.524667 S    
C62   H10   1.081933 S    
O1    V3    1.990505 S    
O13   V1    1.972293 S    
C38   H2    1.057738 S    
O2    V4    1.990509 S    
O3    V1    1.991068 S    
C74   H13   1.111439 S    
C15   C93   1.532624 S    
C58   C62   1.401609 A    
N12   O27   1.300431 A    
C57   C61   1.399220 A    
C95   H71   1.109235 S    
C1    O15   1.333792 A    
C15   C31   1.428361 A    
C60   H8    1.082727 S    
C2    O16   1.331453 A    
C78   H23   1.109142 S    
C16   C32   1.431144 A    
C59   C63   1.399820 A    
C53   C70   1.492526 S    
O2    C6    1.328571 A    
C76   H20   1.110256 S    
C10   C22   1.412168 A    
C91   H62   1.107375 S    
C84   H39   1.108688 S    
C11   C19   1.407156 A    
N6    C70   1.361090 A    
O5    V1    1.986815 S    
C81   H36   1.103112 S    
N5    C69   1.360285 A    
C46   C66   1.421727 A    
O18   V4    1.753130 S    
C13   C29   1.426088 A    
C7    C10   1.477427 S    
C34   C37   1.397952 A    
O11   C7    1.325677 A    
C11   C23   1.423083 A    
C87   H51   1.104791 S    
O12   C8    1.325471 A    
C87   H52   1.108855 S    
C47   C67   1.423164 A    
C45   N13   1.432130 S    
N20   O44   1.301120 A    
O10   V2    2.006003 S    
C20   N11   1.435917 S    
N18   O39   1.300941 A    
C63   C67   1.402505 A    
C89   H57   1.110976 S    
C88   H50   1.110429 S    
C82   H34   1.111319 S    
N13   O30   1.299621 A    
C50   N18   1.436148 S    
C24   C85   1.524317 S    
C16   C95   1.522715 S    
O7    V3    1.981714 S    
C38   C42   1.408705 A    
N2    C69   1.358323 A    
O9    C5    1.333925 A    
C96   H68   1.108840 S    
C26   C34   1.424426 A    
C86   H45   1.110134 S    
C52   N20   1.436273 S    
N1    C70   1.357427 A    
C33   C38   1.403195 A    
N14   O31   1.298967 A    
C77   H26   1.109023 S    
C58   H6    1.082146 S    
C61   C65   1.403354 A    
C88   H48   1.107171 S    
C23   C87   1.525157 S    
C57   H5    1.081997 S    
C95   C96   1.533002 S    
C94   H63   1.111264 S    
C15   C19   1.417527 A    
C48   N16   1.428976 S    
O3    C7    1.323895 A    
N13   O29   1.299991 A    
O4    V2    1.991063 S    
N4    N8    1.335479 A    
C13   C89   1.525909 S    
C74   H15   1.110537 S    
O8    V4    1.981715 S    
O7    C3    1.346311 A    
C73   H16   1.111227 S    
C39   C43   1.402165 A    
O5    C1    1.344206 A    
C77   H27   1.110969 S    
C95   H72   1.112203 S    
N15   O34   1.300971 A    
C82   H35   1.108710 S    
N7    C71   1.360322 A    
C50   C54   1.413321 A    
C31   C43   1.419966 A    
C85   C86   1.531827 S    
C14   C30   1.432809 A    
C47   N15   1.436881 S    
O8    C4    1.349114 A    
C92   H60   1.110314 S    
C92   H59   1.108482 S    
C21   C25   1.440527 A    
C75   H22   1.108820 S    
N19   O42   1.301180 A    
C35   C36   1.419402 A    
C91   H61   1.102422 S    
C84   H40   1.110255 S    
N16   O36   1.300459 A    
C51   N19   1.435095 S    
C81   H37   1.108288 S    
N9    O22   1.300816 A    
C83   H42   1.108258 S    
O14   V2    1.972299 S    
C78   H24   1.111304 S    
N10   O23   1.300857 A    
O6    V2    1.986815 S    
C17   N10   1.434748 S    
C39   H3    1.080911 S    
C93   H66   1.101585 S    
C92   H58   1.111087 S    
C56   C71   1.497042 S    
C14   C91   1.528834 S    
C64   C68   1.404427 A    
C48   C68   1.418672 A    
C87   C88   1.529345 S    
C42   C75   1.527747 S    
C12   C20   1.406435 A    
C27   C35   1.433112 A    
N20   O43   1.301139 A    
C90   H54   1.110281 S    
C77   C78   1.532384 S    
C61   H9    1.080222 S    
N8    C72   1.361320 A    
C29   C41   1.422145 A    
C96   H69   1.107884 S    
C82   H33   1.110269 S    
N2    N6    1.334501 A    
C37   H1    1.083823 S    
N15   O33   1.300600 A    
N1    N5    1.333032 A    
C83   H41   1.107555 S    
C3    O13   1.331734 A    
C45   C49   1.414893 A    
N17   O37   1.300713 A    
N3    N7    1.333906 A    
C55   C72   1.497730 S    
C43   C77   1.519104 S    
C48   C52   1.415197 A    
C54   C69   1.492851 S    
C18   N9    1.434891 S    
O6    C2    1.344663 A    
C23   C27   1.431565 A    
C80   H28   1.103055 S    
O11   V3    2.005293 S    
C30   C42   1.426104 A    
O12   V4    2.005290 S    
C22   C26   1.419986 A    
C19   N12   1.432717 S    
C8    C9    1.483605 S    
C94   H65   1.110485 S    
C21   C83   1.523049 S    
C9    C17   1.402095 A    
C86   H43   1.104472 S    
O10   C6    1.328355 A    
C90   H55   1.110471 S    
O20   V2    1.749314 S    
C73   H17   1.100606 S    
C4    C65   1.501553 S    
C32   C44   1.432293 A    
C73   C74   1.532320 S    
C91   C92   1.526701 S    
C54   C58   1.405542 A    
C80   H29   1.109289 S    
C33   C34   1.415474 A    
C76   H18   1.110147 S    
C56   C60   1.407040 A    
C78   H25   1.110633 S    
C25   C29   1.425980 A    
C64   H12   1.082307 S    
C45   C65   1.425929 A    
N17   O38   1.300579 A    
C75   H21   1.111124 S    
C12   C24   1.418342 A    
C3    C66   1.499415 S    
C27   C31   1.414320 A    
C40   H4    1.083867 S    
C37   C41   1.395503 A    
C13   C17   1.410620 A    
N16   O35   1.298737 A    
N12   O28   1.300733 A    
N3    C72   1.358572 A    
C46   N14   1.429321 S    
C79   C80   1.526995 S    
C93   C94   1.529131 S    
N11   O25   1.300949 A    
C51   C55   1.417405 A    
C85   H47   1.104019 S    
C16   C20   1.416037 A    
C83   C84   1.535990 S    
C62   C66   1.404509 A    
C28   C36   1.436901 A    
C49   C53   1.412935 A    
C46   C50   1.413217 A    
C4    O14   1.330020 A    
N19   O41   1.301121 A    
C76   H19   1.110629 S    
C41   C73   1.519816 S    
C85   H46   1.106101 S    
C75   C76   1.532838 S    
C79   H32   1.098359 S    
N11   O26   1.299926 A    
C90   H53   1.109499 S    
C47   C51   1.418972 A    
C94   H64   1.109040 S    
C53   C57   1.404399 A    
C28   C32   1.428641 A    
C86   H44   1.109413 S    
N10   O24   1.300760 A    
C84   H38   1.096554 S    
