data_mof_unit_53383.cif
_audit_creation_date              2012-12-10T17:12:00-0500
_audit_creation_method            fapswitch 2.2
_symmetry_space_group_name_H-M    P1
_symmetry_Int_Tables_number       1
_space_group_crystal_system       triclinic
_cell_length_a                    11.638019
_cell_length_b                    13.131501
_cell_length_c                    15.870707
_cell_angle_alpha                 92.062232
_cell_angle_beta                  74.202956
_cell_angle_gamma                 99.019167
_cell_volume                      2304.918888

loop_
_atom_site_label
_atom_site_type_symbol
_atom_type_description
_atom_site_fract_x
_atom_site_fract_y
_atom_site_fract_z
_atom_type_partial_charge
C1    C     C_R   0.520549 0.700482 0.499597 0.855024
C2    C     C_R   0.479455 0.299514 0.500389 0.854734
C3    C     C_R   0.357249 0.523123 0.086915 -0.225961
C4    C     C_R   0.649040 0.538734 0.913505 -0.224349
C5    C     C_R   0.274782 0.519611 0.037701 -0.234770
C6    C     C_R   0.731768 0.544616 0.962723 -0.234220
C7    C     C_R   0.467343 0.186858 0.505609 -0.139845
C8    C     C_R   0.532664 0.813127 0.494343 -0.139253
C9    C     C_R   0.658392 0.978012 0.452601 -0.272588
C10   C     C_R   0.341614 0.021963 0.547312 -0.272660
C11   C     C_R   0.647642 0.871823 0.460195 0.195316
C12   C     C_R   0.352355 0.128147 0.539699 0.194842
C13   C     C_R   0.428840 0.862486 0.520494 0.166126
C14   C     C_R   0.571171 0.137499 0.479470 0.165829
C15   C     C_R   0.442181 0.970903 0.517254 0.036408
C16   C     C_R   0.557831 0.029078 0.482691 0.036394
C17   C     C_R   0.932974 0.581252 0.592278 -0.367681
C18   C     C_R   0.067014 0.418745 0.407741 -0.368162
C19   C     C_R   0.816128 0.575399 0.582097 0.087783
C20   C     C_R   0.183855 0.424585 0.417921 0.087678
C21   C     C_R   0.864313 0.468116 0.458072 0.023244
C22   C     C_R   0.135696 0.531898 0.541928 0.024233
C23   C     C_R   0.427092 0.495961 0.668123 0.794415
C24   C     C_R   0.573034 0.505387 0.331883 0.793670
C25   C     C_R   0.982769 0.471438 0.465884 0.064578
C26   C     C_R   0.017234 0.528578 0.534123 0.065564
C27   C     C_R   0.384775 0.499108 0.764092 -0.048333
C28   C     C_R   0.616409 0.513419 0.236004 -0.048574
C29   C     C_R   0.227036 0.507384 0.898467 -0.202291
C30   C     C_R   0.777606 0.538354 0.101814 -0.202695
C31   C     C_R   0.263099 0.500908 0.807484 -0.195978
C32   C     C_R   0.739845 0.528368 0.192686 -0.196172
C33   C     C_R   0.469661 0.504089 0.812474 -0.257745
C34   C     C_R   0.531530 0.508895 0.187652 -0.255119
C35   C     C_R   0.436622 0.514957 0.903887 0.087791
C36   C     C_R   0.567164 0.522884 0.096389 0.087921
C37   C     C_R   0.312517 0.513959 0.946882 0.169055
C38   C     C_R   0.692472 0.535301 0.053447 0.169035
C39   C     C_R   0.522962 0.524739 0.953634 0.067148
C40   C     C_R   0.481832 0.522786 0.046704 0.066412
Cu1   Cu    Cu3+1 0.386820 0.492450 0.493500 0.949342
Cu2   Cu    Cu3+1 0.613180 0.507550 0.506500 0.949135
H1    H     H_    0.180340 0.520404 0.071212 0.137928
H2    H     H_    0.827452 0.555661 0.929279 0.137081
H3    H     H_    0.248618 0.384136 0.372667 0.120300
H4    H     H_    0.751347 0.615815 0.627375 0.120145
H5    H     H_    0.957015 0.626316 0.645181 0.135205
H6    H     H_    0.042954 0.373660 0.354857 0.136876
H7    H     H_    0.437575 0.492189 0.222744 0.148111
H8    H     H_    0.561132 0.497263 0.777244 0.150794
H9    H     H_    0.806992 0.532109 0.228868 0.151453
H10   H     H_    0.196021 0.497339 0.771258 0.149931
H11   H     H_    0.132236 0.507648 0.931058 0.126194
H12   H     H_    0.873534 0.548745 0.069268 0.125885
H13   H     H_    0.320345 0.529316 0.156581 0.142377
H14   H     H_    0.687613 0.548737 0.843944 0.138136
H15   H     H_    0.747655 0.019426 0.423539 0.157704
H16   H     H_    0.252345 0.980545 0.576351 0.157682
H17   H     H_    0.163889 0.576069 0.593704 0.130736
H18   H     H_    0.836127 0.423948 0.406293 0.131822
N1    N     N_R   0.216750 0.481110 0.483710 -0.174250
N2    N     N_R   0.783250 0.518890 0.516290 -0.174189
O1    O     O_R   0.419950 0.645670 0.495380 -0.559685
O2    O     O_R   0.580050 0.354330 0.504620 -0.559411
O3    O     O_R   0.611110 0.658410 0.506370 -0.559653
O4    O     O_R   0.388890 0.341590 0.493630 -0.559372
O5    O     O_R   0.350820 0.490050 0.621260 -0.586070
O6    O     O_R   0.649180 0.509950 0.378740 -0.586565
O7    O     O_R   0.541970 0.502800 0.632250 -0.603274
O8    O     O_R   0.458030 0.497200 0.367750 -0.603228
N3    N     N_2   0.688327 0.197290 0.449680 -0.419087
H19   H     H_    0.737184 0.178718 0.388062 0.233870
C41   C     C_3   0.757454 0.210495 0.513857 -0.653064
H20   H     H_    0.771070 0.135051 0.535756 0.209640
H21   H     H_    0.710274 0.252303 0.571854 0.250541
H22   H     H_    0.847648 0.255670 0.484613 0.211610
N4    N     N_2   0.311684 0.802697 0.550303 -0.418951
H23   H     H_    0.262830 0.821287 0.611916 0.233793
C42   C     C_3   0.242555 0.789451 0.486127 -0.653893
H24   H     H_    0.228962 0.864882 0.464184 0.209672
H25   H     H_    0.152350 0.744306 0.515390 0.211453
H26   H     H_    0.289720 0.747601 0.428151 0.250592
N5    N     N_2   0.247027 0.175811 0.570947 -0.400174
H27   H     H_    0.198099 0.152818 0.633634 0.242304
C43   C     C_3   0.171056 0.168415 0.511676 -0.648898
H28   H     H_    0.097466 0.215245 0.537041 0.223814
H29   H     H_    0.130092 0.086960 0.506065 0.198539
H30   H     H_    0.224386 0.198350 0.445729 0.232762
N6    N     N_2   0.752936 0.824132 0.428854 -0.400399
H31   H     H_    0.801767 0.847102 0.366141 0.242253
C44   C     C_3   0.829040 0.831504 0.488029 -0.649605
H32   H     H_    0.902584 0.784642 0.462599 0.223471
H33   H     H_    0.775802 0.801588 0.554004 0.233118
H34   H     H_    0.870063 0.912949 0.493601 0.198698

loop_
_geom_bond_atom_site_label_1
_geom_bond_atom_site_label_2
_ccdc_geom_bond_type
Cu1   Cu2   S    
C8    C13   A    
C5    C37   A    
C1    C8    S    
C41   H20   S    
C23   O7    A    
C2    C7    S    
Cu1   N1    S    
C31   H10   S    
C19   H4    S    
C24   O8    A    
Cu1   O5    S    
C43   H28   S    
C27   C33   A    
C30   H12   S    
C17   C26   A    
C35   C37   A    
C9    C16   A    
C10   C15   A    
C19   N2    A    
C15   C16   A    
C30   C38   A    
C14   N3    S    
C23   O5    A    
C20   N1    A    
C9    H15   S    
C33   C35   A    
C3    H13   S    
C7    C14   A    
Cu2   O3    S    
C1    O3    A    
C6    C38   A    
C23   C27   S    
N6    C44   S    
Cu2   N2    S    
C18   C20   A    
C20   H3    S    
C43   H29   S    
C5    H1    S    
C28   C34   A    
C22   H17   S    
C6    H2    S    
C4    H14   S    
Cu2   O6    S    
C41   H21   S    
C18   C25   A    
C1    O1    A    
C2    O2    A    
N4    C42   S    
C7    C12   A    
C13   N4    S    
C27   C31   A    
C17   H5    S    
C28   C32   A    
C21   H18   S    
C4    C6    A    
C44   H32   S    
N3    C41   S    
C3    C5    A    
C33   H8    S    
N4    H23   S    
Cu2   O7    S    
C12   N5    S    
C35   C39   A    
C32   H9    S    
C44   H33   S    
C11   N6    S    
N5    H27   S    
C4    C39   A    
C36   C40   A    
C9    C11   A    
C21   N2    A    
C10   C12   A    
N5    C43   S    
C3    C40   A    
C13   C15   A    
C41   H22   S    
C14   C16   A    
Cu1   O1    S    
Cu2   O2    S    
C39   C40   A    
C42   H25   S    
C43   H30   S    
C21   C25   A    
C34   H7    S    
C10   H16   S    
C24   C28   S    
C2    O4    A    
C18   H6    S    
C42   H26   S    
Cu1   O4    S    
C36   C38   A    
C25   C26   A    
N3    H19   S    
C29   C31   A    
C44   H34   S    
C30   C32   A    
C29   H11   S    
C8    C11   A    
C17   C19   A    
C34   C36   A    
C24   O6    A    
C42   H24   S    
C22   C26   A    
C29   C37   A    
N6    H31   S    
Cu1   O8    S    
C22   N1    A    
