data_mof_unit_32904.cif
_audit_creation_date              2012-12-11T14:29:25-0500
_audit_creation_method            fapswitch 2.2
_symmetry_space_group_name_H-M    P1
_symmetry_Int_Tables_number       1
_space_group_crystal_system       triclinic
_cell_length_a                    6.935159
_cell_length_b                    14.778229
_cell_length_c                    16.224138
_cell_angle_alpha                 90.477655
_cell_angle_beta                  89.457777
_cell_angle_gamma                 89.765559
_cell_volume                      1662.65494638

loop_
_atom_site_label
_atom_site_type_symbol
_atom_type_description
_atom_site_fract_x
_atom_site_fract_y
_atom_site_fract_z
_atom_type_partial_charge
O1    O     O_R   0.494400 0.416610 0.413880 -0.548184
O2    O     O_R   0.823920 0.406790 0.585520 -0.549436
O3    O     O_R   0.994250 0.583390 0.586120 -0.508998
C1    C     C_R   0.654330 0.385961 0.614255 0.755874
O4    O     O_R   0.824110 0.405730 0.414490 -0.553351
O5    O     O_R   0.994440 0.582310 0.413870 -0.477900
C2    C     C_R   0.656767 0.385109 0.384843 0.734121
O6    O     O_R   0.494210 0.417690 0.586130 -0.554594
O7    O     O_3   0.660810 0.557940 0.500000 -0.327747
V1    V     V_3+5 0.935650 0.489250 0.500000 1.522193
O8    O     O_R   0.324160 0.593210 0.414480 -0.540361
C3    C     C_R   0.156059 0.612776 0.384810 0.867359
O9    O     O_R   0.323970 0.594270 0.585510 -0.552015
C4    C     C_R   0.153659 0.618038 0.612316 0.791230
V2    V     V_3+5 0.435660 0.510750 0.500000 1.506061
O10   O     O_3   0.160630 0.442060 0.500000 -0.402145
H1    H     H_    0.750118 0.883271 0.535116 0.186393
C5    C     C_R   0.305070 0.580585 0.773118 -0.154316
C6    C     C_R   0.377247 0.559042 0.850307 -0.105447
C7    C     C_R   0.365092 0.621417 0.914527 -0.119775
C8    C     C_R   0.281708 0.705955 0.901869 -0.147761
C9    C     C_R   0.210404 0.730795 0.823529 0.082848
C10   C     C_R   0.221235 0.666496 0.757834 0.052390
C11   C     C_R   0.127750 0.817558 0.810642 -0.118185
C12   C     C_R   0.057391 0.840560 0.730880 -0.097628
C13   C     C_R   0.047421 0.771978 0.668068 -0.078325
C14   C     C_R   0.140889 0.686843 0.679931 -0.148558
C15   C     C_R   0.992713 0.929873 0.710652 -0.027055
C16   C     C_R   0.860261 0.940074 0.646517 0.568898
C17   C     C_R   0.839429 0.871909 0.588476 -0.268544
C18   C     C_R   0.944621 0.792164 0.594745 0.525801
H2    H     H_    0.313238 0.528164 0.726361 0.102552
H3    H     H_    0.440692 0.493071 0.860572 0.121258
H4    H     H_    0.419364 0.604024 0.974730 0.115954
H5    H     H_    0.273540 0.751041 0.954598 0.106136
C19   C     C_2   0.990926 0.710044 0.281545 0.661475
C20   C     C_2   0.152851 0.673633 0.312966 -0.441620
H6    H     H_    0.290783 0.687849 0.283563 0.115735
C21   C     C_2   0.995154 0.767188 0.206542 -0.270566
C22   C     C_2   0.117377 0.836862 0.192330 -0.065469
H7    H     H_    0.887291 0.751322 0.160535 0.134648
C23   C     C_2   0.779715 0.224961 0.794389 0.621881
C24   C     C_2   0.617354 0.181156 0.817717 -0.355705
H8    H     H_    0.482377 0.194564 0.787522 0.099125
C25   C     C_2   0.790399 0.289111 0.723950 -0.184571
C26   C     C_2   0.637228 0.320626 0.682408 -0.375881
H9    H     H_    0.933487 0.312509 0.706900 0.160419
H10   H     H_    0.492137 0.301216 0.699704 0.136767
C27   C     C_2   0.778016 0.216465 0.206354 -0.114988
C28   C     C_2   0.612350 0.186914 0.173154 -0.352309
H11   H     H_    0.911701 0.183393 0.187912 0.149239
H12   H     H_    0.477019 0.219961 0.189047 0.133231
C29   C     C_2   0.791747 0.296506 0.263273 0.162739
C30   C     C_2   0.648274 0.314564 0.319123 -0.356128
H13   H     H_    0.518046 0.274092 0.318467 0.124308
O11   O     O_R   0.770210 0.079270 0.910680 -0.510600
O12   O     O_R   0.440150 0.091160 0.082270 -0.550994
O13   O     O_R   0.269970 0.914530 0.082860 -0.545507
C31   C     C_R   0.607948 0.113901 0.110097 0.753607
O14   O     O_R   0.440480 0.090100 0.911240 -0.539906
O15   O     O_R   0.270310 0.913460 0.910610 -0.546377
C32   C     C_R   0.610035 0.113269 0.884320 0.794565
O16   O     O_R   0.769870 0.080340 0.082930 -0.538451
O17   O     O_3   0.603660 0.938980 0.996790 -0.379045
V3    V     V_3+5 0.328750 0.007610 0.996740 1.445960
O18   O     O_R   0.940600 0.902510 0.911180 -0.539102
C33   C     C_R   0.110650 0.881905 0.881780 0.672680
O19   O     O_R   0.940270 0.903570 0.082200 -0.548680
C34   C     C_R   0.108352 0.885917 0.113048 0.736598
V4    V     V_3+5 0.828770 0.986010 0.996670 1.465686
O20   O     O_3   0.103730 0.054750 0.996710 -0.355149
C35   C     C_3   0.255196 0.873920 0.257045 -0.327610
C36   C     C_3   0.215841 0.973988 0.275819 -0.737046
H14   H     H_    0.244399 0.016307 0.220888 0.216843
H15   H     H_    0.063670 0.983777 0.296128 0.230831
H16   H     H_    0.311926 0.997349 0.325999 0.221453
H17   H     H_    0.242995 0.838904 0.316781 0.205332
H18   H     H_    0.406030 0.865689 0.234415 0.195248
F1    F     F_    0.946299 0.211199 0.836189 -0.697739
C37   C     C_3   0.973185 0.354721 0.259803 -0.309808
C38   C     C_3   0.084193 0.349846 0.177865 -0.781611
H19   H     H_    0.155340 0.283022 0.169634 0.216873
H20   H     H_    0.985873 0.362691 0.125542 0.244127
H21   H     H_    0.198684 0.402187 0.177490 0.216549
H22   H     H_    0.932037 0.426986 0.268569 0.182134
H23   H     H_    0.071425 0.334966 0.310356 0.180068
C39   C     C_3   0.081752 0.015560 0.745920 -0.256728
C40   C     C_3   0.164615 0.077311 0.678972 -0.650196
H24   H     H_    0.269063 0.039274 0.639399 0.230920
H25   H     H_    0.050273 0.106674 0.640062 0.264798
H26   H     H_    0.240560 0.134790 0.708273 0.212994
H27   H     H_    0.971616 0.052636 0.782421 0.237423
H28   H     H_    0.206343 0.000674 0.785265 0.174229
F2    F     F_    0.763422 0.019107 0.635948 -0.700656
F3    F     F_    0.939986 0.736210 0.528356 -0.666160
F4    F     F_    0.814902 0.687770 0.312809 -0.658625

loop_
_geom_bond_atom_site_label_1
_geom_bond_atom_site_label_2
_ccdc_geom_bond_type
C39   C40   S    
O9    C4    A    
C36   H14   S    
C6    C7    A    
C1    O6    A    
C38   H19   S    
C21   H7    S    
C1    C26   S    
C29   C30   D    
C12   C15   A    
C13   C14   A    
C16   C17   A    
C28   C31   S    
C15   C16   A    
C20   H6    S    
O5    C3    A    
C17   C18   A    
O17   V4    S    
C27   C29   S    
O12   C31   A    
V2    O10   S    
O14   C32   A    
C5    C6    A    
C3    C20   S    
C19   F4    S    
C35   H18   S    
C11   C33   S    
O8    V2    S    
O19   C34   A    
C27   H11   S    
C28   H12   S    
C40   H26   S    
V4    O20   S    
O1    V2    S    
C10   C14   A    
C4    C14   S    
O7    V1    S    
C7    H4    S    
O18   C33   A    
C23   F1    S    
C39   H27   S    
H1    C17   S    
C36   H15   S    
C38   H20   S    
C25   H9    S    
C26   H10   S    
C22   C34   S    
C5    C10   A    
C29   C37   S    
C11   C12   A    
C6    H3    S    
C21   C22   D    
O4    C2    A    
C35   C36   S    
C12   C13   A    
V3    O20   S    
C23   C25   S    
O2    C1    A    
C24   H8    S    
C37   H22   S    
O15   V3    S    
O15   C33   A    
O13   V3    S    
O16   V4    S    
C15   C39   S    
C40   H24   S    
O3    C4    A    
C40   H25   S    
O14   V3    S    
O6    V2    S    
O11   V4    S    
O9    V2    S    
C36   H16   S    
C9    C11   A    
C5    H2    S    
C23   C24   D    
O2    V1    S    
C38   H21   S    
C30   H13   S    
C19   C20   D    
C22   C35   S    
O1    C2    A    
C19   C21   S    
O12   V3    S    
C37   C38   S    
O5    V1    S    
C35   H17   S    
O8    C3    A    
O13   C34   A    
C8    H5    S    
O18   V4    S    
C31   O16   A    
O17   V3    S    
O7    V2    S    
O4    V1    S    
O3    V1    S    
V1    O10   S    
C16   F2    S    
C18   F3    S    
C39   H28   S    
O11   C32   A    
C25   C26   D    
C37   H23   S    
C13   C18   A    
C7    C8    A    
O19   V4    S    
C27   C28   D    
C9    C10   A    
C2    C30   S    
C8    C9    A    
C24   C32   S    
