data_mof_unit_53430.cif
_audit_creation_date              2012-12-10T18:04:43-0500
_audit_creation_method            fapswitch 2.2
_symmetry_space_group_name_H-M    P1
_symmetry_Int_Tables_number       1
_space_group_crystal_system       triclinic
_cell_length_a                    19.551881
_cell_length_b                    17.595501
_cell_length_c                    12.60527
_cell_angle_alpha                 89.950973
_cell_angle_beta                  99.089338
_cell_angle_gamma                 90.032606
_cell_volume                      4282.07496959

loop_
_atom_site_label
_atom_site_type_symbol
_atom_type_description
_atom_site_fract_x
_atom_site_fract_y
_atom_site_fract_z
_atom_type_partial_charge
C1    C     C_R   0.411682 0.103352 0.444120 0.839930
C2    C     C_R   0.781431 0.788951 0.644722 0.175918
C3    C     C_R   0.193596 0.810977 0.581831 0.179822
C4    C     C_R   0.281432 0.288955 0.644715 0.175916
C5    C     C_R   0.222406 0.883067 0.577391 -0.255769
C6    C     C_R   0.348461 0.260283 0.668132 -0.257396
C7    C     C_R   0.722404 0.383068 0.577384 -0.255769
C8    C     C_R   0.848459 0.760275 0.668143 -0.257399
C9    C     C_R   0.273606 0.895291 0.514597 -0.207488
C10   C     C_R   0.377117 0.222266 0.589367 -0.200068
C11   C     C_R   0.773605 0.395290 0.514592 -0.207489
C12   C     C_R   0.408392 0.900393 0.441827 0.853864
C13   C     C_R   0.877117 0.722262 0.589378 -0.200067
C14   C     C_R   0.685683 0.179713 0.525223 -0.252103
C15   C     C_R   0.676916 0.810317 0.518151 -0.259923
C16   C     C_R   0.185682 0.679714 0.525220 -0.252103
C17   C     C_R   0.176912 0.310312 0.518153 -0.259922
C18   C     C_R   0.612358 0.226432 0.648393 -0.201625
C19   C     C_R   0.685195 0.856168 0.700507 -0.204731
C20   C     C_R   0.112361 0.726431 0.648398 -0.201624
C21   C     C_R   0.185200 0.356176 0.700503 -0.204731
C22   C     C_R   0.356198 0.843205 0.404916 -0.115096
C23   C     C_R   0.911683 0.603353 0.444121 0.839932
C24   C     C_R   0.362295 0.163722 0.409337 -0.108638
C25   C     C_R   0.856199 0.343203 0.404917 -0.115094
C26   C     C_R   0.862299 0.663728 0.409340 -0.108643
C27   C     C_R   0.642878 0.999660 0.133041 -0.312206
C28   C     C_R   0.142878 0.499660 0.133041 -0.312205
C29   C     C_R   0.378774 0.001259 0.762198 0.037058
C30   C     C_R   0.878774 0.501258 0.762198 0.037058
C31   C     C_R   0.352951 0.001628 0.858400 -0.250430
C32   C     C_R   0.852951 0.501627 0.858400 -0.250430
C33   C     C_R   0.590778 0.899510 0.557517 0.862662
C34   C     C_R   0.908392 0.400392 0.441827 0.853864
C35   C     C_R   0.589245 0.102184 0.556432 0.849594
C36   C     C_R   0.090778 0.399511 0.557517 0.862661
C37   C     C_R   0.089246 0.602184 0.556432 0.849594
C38   C     C_R   0.398984 0.001008 0.954406 -0.196992
C39   C     C_R   0.898984 0.501008 0.954406 -0.196993
C40   C     C_R   0.471381 0.000242 0.953929 0.016129
C41   C     C_R   0.971381 0.500242 0.953929 0.016129
C42   C     C_R   0.494854 0.999926 0.853713 0.232363
C43   C     C_R   0.994855 0.499927 0.853713 0.232362
C44   C     C_R   0.521180 0.000024 0.048175 -0.012558
C45   C     C_R   0.713536 0.251710 0.516621 0.081153
C46   C     C_R   0.021180 0.500024 0.048175 -0.012559
C47   C     C_R   0.593080 0.999755 0.040527 0.198598
C48   C     C_R   0.093080 0.499755 0.040527 0.198597
C49   C     C_R   0.614521 0.999705 0.940727 -0.294958
C50   C     C_R   0.114520 0.499705 0.940727 -0.294956
C51   C     C_R   0.565869 0.999877 0.848570 -0.215296
C52   C     C_R   0.065869 0.499877 0.848570 -0.215295
C53   C     C_R   0.502681 0.000092 0.150606 -0.054744
C54   C     C_R   0.002681 0.500092 0.150606 -0.054746
C55   C     C_R   0.620998 0.999813 0.232038 0.009537
C56   C     C_R   0.744626 0.783709 0.538432 0.077131
C57   C     C_R   0.120998 0.499813 0.232038 0.009538
C58   C     C_R   0.644049 0.297416 0.648953 -0.199929
C59   C     C_R   0.750855 0.823963 0.725558 -0.202544
C60   C     C_R   0.144052 0.797414 0.648961 -0.199929
C61   C     C_R   0.250860 0.323973 0.725551 -0.202544
C62   C     C_R   0.632239 0.168435 0.583687 -0.046608
C63   C     C_R   0.649318 0.850918 0.595463 -0.047699
C64   C     C_R   0.132240 0.668434 0.583687 -0.046610
C65   C     C_R   0.149318 0.350919 0.595464 -0.047696
C66   C     C_R   0.369986 0.789677 0.328593 -0.192117
C67   C     C_R   0.213535 0.751711 0.516620 0.081151
C68   C     C_R   0.331589 0.166790 0.300988 -0.191010
C69   C     C_R   0.869991 0.289673 0.328599 -0.192118
C70   C     C_R   0.831599 0.666805 0.300988 -0.191007
C71   C     C_R   0.328080 0.726139 0.307406 -0.148139
C72   C     C_R   0.275393 0.214091 0.269150 -0.150228
C73   C     C_R   0.828086 0.226134 0.307414 -0.148138
C74   C     C_R   0.775408 0.714113 0.269149 -0.150227
C75   C     C_R   0.275250 0.712938 0.367120 -0.187711
C76   C     C_R   0.246526 0.254498 0.345820 -0.193530
C77   C     C_R   0.775255 0.212933 0.367127 -0.187710
C78   C     C_R   0.244623 0.283706 0.538430 0.077133
C79   C     C_R   0.746539 0.754517 0.345820 -0.193531
C80   C     C_R   0.261507 0.765723 0.446149 0.087635
C81   C     C_R   0.275913 0.250669 0.456060 0.083634
C82   C     C_R   0.761509 0.265721 0.446151 0.087635
C83   C     C_R   0.775920 0.750677 0.456062 0.083634
C84   C     C_R   0.297191 0.835470 0.455057 0.092279
C85   C     C_R   0.339167 0.212153 0.485180 0.084863
C86   C     C_R   0.797193 0.335469 0.455057 0.092279
C87   C     C_R   0.839171 0.712156 0.485186 0.084863
C88   C     C_R   0.693595 0.310978 0.581827 0.179821
H1    H     H_    0.669100 0.999588 0.933780 0.152177
H2    H     H_    0.876290 0.501438 0.026884 0.135210
H3    H     H_    0.297605 0.002533 0.858597 0.147036
H4    H     H_    0.797605 0.502532 0.858597 0.147037
H5    H     H_    0.585317 0.000149 0.774216 0.212708
H6    H     H_    0.085317 0.500149 0.774216 0.212707
H7    H     H_    0.206209 0.929706 0.623759 0.142355
H8    H     H_    0.378298 0.265998 0.747841 0.148556
H9    H     H_    0.706205 0.429708 0.623749 0.142356
H10   H     H_    0.878292 0.765984 0.747857 0.148556
H11   H     H_    0.627907 0.342401 0.698194 0.136464
H12   H     H_    0.169100 0.499589 0.933780 0.152176
H13   H     H_    0.778687 0.828902 0.806718 0.135406
H14   H     H_    0.127913 0.842398 0.698205 0.136464
H15   H     H_    0.278696 0.328918 0.806706 0.135407
H16   H     H_    0.702734 0.131480 0.483487 0.141570
H17   H     H_    0.644932 0.802526 0.440963 0.148891
H18   H     H_    0.202731 0.631482 0.483480 0.141573
H19   H     H_    0.144925 0.302518 0.440970 0.148886
H20   H     H_    0.414448 0.795697 0.287719 0.158610
H21   H     H_    0.349725 0.130967 0.241326 0.152611
H22   H     H_    0.914452 0.295693 0.287726 0.158609
H23   H     H_    0.697812 0.999502 0.128755 0.141872
H24   H     H_    0.849736 0.630985 0.241324 0.152613
H25   H     H_    0.744996 0.162098 0.347837 0.130989
H26   H     H_    0.702444 0.789681 0.316273 0.134339
H27   H     H_    0.244989 0.662104 0.347828 0.130990
H28   H     H_    0.202427 0.289657 0.316273 0.134339
H29   H     H_    0.338360 0.685310 0.247679 0.141647
H30   H     H_    0.252309 0.217066 0.185322 0.142226
H31   H     H_    0.838368 0.185303 0.247691 0.141647
H32   H     H_    0.752329 0.717096 0.185319 0.142223
H33   H     H_    0.293914 0.952319 0.511791 0.158025
H34   H     H_    0.197812 0.499503 0.128755 0.141872
H35   H     H_    0.429649 0.201759 0.610607 0.168151
H36   H     H_    0.793914 0.452319 0.511786 0.158024
H37   H     H_    0.929648 0.701753 0.610621 0.168157
H38   H     H_    0.658404 0.999765 0.305118 0.131674
H39   H     H_    0.158404 0.499766 0.305118 0.131675
H40   H     H_    0.570232 0.218144 0.693657 0.152140
H41   H     H_    0.664177 0.888004 0.761337 0.151066
H42   H     H_    0.070236 0.718141 0.693665 0.152141
H43   H     H_    0.164185 0.388016 0.761331 0.151061
H44   H     H_    0.449919 0.000162 0.165124 0.124008
H45   H     H_    0.949919 0.500162 0.165124 0.124009
H46   H     H_    0.343517 0.002316 0.687061 0.134427
H47   H     H_    0.843517 0.502316 0.687061 0.134428
H48   H     H_    0.376290 0.001439 0.026884 0.135209
N1    N     N_R   0.552340 0.000000 0.237260 -0.102247
N2    N     N_R   0.052340 0.500000 0.237260 -0.102248
N3    N     N_R   0.448170 0.000000 0.762060 -0.132562
N4    N     N_R   0.948170 0.500000 0.762060 -0.132563
O1    O     O_R   0.448200 0.076800 0.373930 -0.610173
O2    O     O_R   0.585240 0.076800 0.457600 -0.607718
O3    O     O_R   0.085240 0.423200 0.457600 -0.615250
O4    O     O_R   0.085240 0.576800 0.457600 -0.607720
O5    O     O_R   0.551780 0.923190 0.626070 -0.627951
O6    O     O_R   0.551780 0.076810 0.626070 -0.643329
O7    O     O_R   0.051780 0.423190 0.626070 -0.627950
O8    O     O_R   0.051780 0.576810 0.626070 -0.643331
O9    O     O_R   0.448200 0.923200 0.373930 -0.616185
O10   O     O_R   0.948200 0.576800 0.373930 -0.610174
O11   O     O_R   0.948200 0.423200 0.373930 -0.616184
O12   O     O_R   0.414750 0.076790 0.542400 -0.624645
O13   O     O_R   0.414750 0.923210 0.542400 -0.605454
O14   O     O_R   0.914750 0.576790 0.542400 -0.624648
O15   O     O_R   0.914750 0.423210 0.542400 -0.605453
O16   O     O_R   0.585240 0.923200 0.457600 -0.615252
Zn1   Zn    Zn3+2 0.522330 0.000000 0.387520 0.935930
Zn2   Zn    Zn3+2 0.022330 0.500000 0.387520 0.935930
Zn3   Zn    Zn3+2 0.477660 0.000000 0.612480 0.924800
Zn4   Zn    Zn3+2 0.977660 0.500000 0.612480 0.924798

loop_
_geom_bond_atom_site_label_1
_geom_bond_atom_site_label_2
_ccdc_geom_bond_type
C19   H41   S    
C83   C87   A    
C10   C85   A    
O13   Zn3   S    
C8    C13   A    
C73   H31   S    
C37   O4    A    
C60   H14   S    
C11   H36   S    
C12   O13   A    
C80   C84   A    
C33   O16   A    
C39   C41   A    
C54   N2    A    
C28   C57   A    
C5    C9    A    
O3    Zn2   S    
C53   N1    A    
O16   Zn1   S    
C38   C40   A    
C36   O3    A    
C17   H19   S    
O5    Zn3   S    
C28   H34   S    
C43   C52   A    
C32   C39   A    
C11   C86   A    
C14   C62   A    
C12   C22   S    
C1    O12   A    
O8    Zn4   S    
C23   C26   S    
C7    C88   A    
C8    H10   S    
C22   C66   A    
C18   H40   S    
C14   H16   S    
C44   C53   A    
C18   C58   A    
C21   H43   S    
C45   C82   A    
C19   C63   A    
C26   C87   A    
C49   C51   A    
C70   C74   A    
C50   C52   A    
C41   C46   A    
C69   C73   A    
C38   H48   S    
C20   C60   A    
O10   Zn2   S    
C75   C80   A    
C39   H2    S    
C21   C61   A    
C44   C47   A    
C16   H18   S    
C42   C51   A    
C13   H37   S    
C3    C60   A    
C40   C42   A    
C29   H46   S    
O15   Zn4   S    
O12   Zn3   S    
N3    Zn3   S    
C41   C43   A    
C13   C87   A    
C77   H25   S    
O7    Zn4   S    
C21   C65   A    
C5    H7    S    
C14   C45   A    
C29   N3    A    
C46   C48   A    
C30   N4    A    
O14   Zn4   S    
C71   H29   S    
C59   H13   S    
O11   Zn2   S    
C45   C88   A    
C47   C49   A    
C10   H35   S    
C20   H42   S    
C53   H44   S    
C2    C59   A    
C18   C62   A    
O6    Zn3   S    
C9    C84   A    
C19   C59   A    
C34   O15   A    
C54   H45   S    
C4    C61   A    
C68   C72   A    
C35   O6    A    
C22   C84   A    
C20   C64   A    
C7    C11   A    
C4    C78   A    
C30   C32   A    
C69   H22   S    
N2    Zn2   S    
C36   O7    A    
C9    H33   S    
C66   C71   A    
C55   H38   S    
C33   C63   S    
C46   C54   A    
C43   N4    A    
C16   C67   A    
C52   H6    S    
C33   O5    A    
C51   H5    S    
O1    Zn1   S    
C23   O10   A    
C6    H8    S    
C74   C79   A    
C26   C70   A    
C25   C86   A    
C23   O14   A    
C4    C6    A    
C25   C69   A    
O2    Zn1   S    
O4    Zn2   S    
C3    C5    A    
C37   C64   S    
C56   C83   A    
C24   C85   A    
C27   C47   A    
C28   C48   A    
C73   C77   A    
C7    H9    S    
C61   H15   S    
C42   N3    A    
C36   C65   S    
C17   C65   A    
C12   O9    A    
C2    C8    A    
C67   C80   A    
C31   H3    S    
C49   H1    S    
C58   H11   S    
C58   C88   A    
C76   C81   A    
C57   H39   S    
C34   O11   A    
C74   H32   S    
C25   C34   S    
C50   H12   S    
C55   N1    A    
C31   C38   A    
N1    Zn1   S    
C15   C56   A    
C15   H17   S    
C29   C31   A    
C82   C86   A    
N4    Zn4   S    
C71   C75   A    
C78   C81   A    
C32   H4    S    
C3    C67   A    
C77   C82   A    
C72   C76   A    
C48   C50   A    
C17   C78   A    
C76   H28   S    
C57   N2    A    
C35   C62   S    
C27   C55   A    
C68   H21   S    
C37   O8    A    
C70   H24   S    
C66   H20   S    
C1    O1    A    
C6    C10   A    
C24   C68   A    
C35   O2    A    
C27   H23   S    
C79   C83   A    
C40   C44   A    
C75   H27   S    
C1    C24   S    
C30   H47   S    
C79   H26   S    
C72   H30   S    
C15   C63   A    
C2    C56   A    
C16   C64   A    
O9    Zn1   S    
C81   C85   A    
