data_mof_unit_46531.cif
_audit_creation_date              2012-12-11T16:44:24-0500
_audit_creation_method            fapswitch 2.2
_symmetry_space_group_name_H-M    P1
_symmetry_Int_Tables_number       1
_space_group_crystal_system       triclinic
_cell_length_a                    27.363885
_cell_length_b                    7.184895
_cell_length_c                    22.81202
_cell_angle_alpha                 89.996159
_cell_angle_beta                  100.998434
_cell_angle_gamma                 89.978479
_cell_volume                      4402.61566612

loop_
_atom_site_label
_atom_site_type_symbol
_atom_type_description
_atom_site_fract_x
_atom_site_fract_y
_atom_site_fract_z
_atom_type_partial_charge
O1    O     O_R   0.707300 0.594030 0.176840 -0.527773
O2    O     O_R   0.292700 0.405970 0.823160 -0.538325
O3    O     O_R   0.792700 0.094030 0.323160 -0.527783
O4    O     O_R   0.207300 0.905970 0.676840 -0.538574
O5    O     O_R   0.697330 0.262360 0.295660 -0.541885
O6    O     O_R   0.302670 0.737640 0.704340 -0.541748
O7    O     O_R   0.802670 0.762360 0.204340 -0.541732
O8    O     O_R   0.197330 0.237640 0.795660 -0.541909
C1    C     C_R   0.684972 0.432430 0.312034 0.664159
C2    C     C_R   0.314604 0.567731 0.687405 0.692814
C3    C     C_R   0.815037 0.932403 0.187992 0.664385
C4    C     C_R   0.185343 0.067762 0.812513 0.692908
O9    O     O_R   0.701410 0.264250 0.175600 -0.537254
O10   O     O_R   0.298590 0.735750 0.824400 -0.536366
O11   O     O_R   0.798590 0.764250 0.324400 -0.537301
O12   O     O_R   0.201410 0.235750 0.675600 -0.536636
O13   O     O_R   0.796800 0.094950 0.202240 -0.538365
O14   O     O_R   0.203200 0.905050 0.797760 -0.538979
O15   O     O_R   0.703200 0.594950 0.297760 -0.538410
O16   O     O_R   0.296800 0.405050 0.702240 -0.539295
C5    C     C_R   0.689600 0.432285 0.153645 0.689085
C6    C     C_R   0.310594 0.567144 0.846025 0.706239
C7    C     C_R   0.810381 0.932214 0.346370 0.689079
C8    C     C_R   0.189402 0.067188 0.653983 0.706050
O17   O     O_3   0.781290 0.427390 0.258880 -0.366490
O18   O     O_3   0.218710 0.572610 0.741120 -0.378384
O19   O     O_3   0.718710 0.927390 0.241120 -0.366634
O20   O     O_3   0.281290 0.072610 0.758880 -0.378102
V1    V     V_3+5 0.744190 0.152150 0.248350 1.422377
V2    V     V_3+5 0.255810 0.847850 0.751650 1.395280
V3    V     V_3+5 0.755810 0.652150 0.251650 1.422576
V4    V     V_3+5 0.244190 0.347850 0.748350 1.394542
C9    C     C_R   0.153484 0.060022 0.596680 -0.072535
C10   C     C_R   0.846173 0.929928 0.404031 -0.076521
C11   C     C_R   0.346507 0.559803 0.903341 -0.072379
C12   C     C_R   0.653830 0.430241 0.095966 -0.076510
C13   C     C_R   0.138440 0.123521 0.490744 -0.163270
C14   C     C_R   0.867985 0.775217 0.499547 -0.181170
C15   C     C_R   0.361388 0.620638 0.009443 -0.163017
C16   C     C_R   0.632145 0.276620 0.000261 -0.180982
C17   C     C_R   0.170877 0.109988 0.545269 -0.186476
C18   C     C_R   0.833882 0.813630 0.448082 -0.175128
C19   C     C_R   0.328976 0.607384 0.954877 -0.186176
C20   C     C_R   0.666168 0.314241 0.051861 -0.174929
C21   C     C_R   0.102156 0.018754 0.593260 -0.062746
C22   C     C_R   0.894137 0.014567 0.412882 -0.082865
C23   C     C_R   0.397941 0.520577 0.906706 -0.063138
C24   C     C_R   0.605876 0.515136 0.087071 -0.083119
C25   C     C_R   0.068842 0.017841 0.535912 0.038989
C26   C     C_R   0.931962 0.956773 0.462892 0.022211
C27   C     C_R   0.431207 0.518666 0.964060 0.038969
C28   C     C_R   0.568110 0.457795 0.036975 0.022137
C29   C     C_R   0.087899 0.080949 0.485718 0.129727
C30   C     C_R   0.916738 0.841237 0.506802 0.129796
C31   C     C_R   0.412033 0.579735 0.014388 0.129658
C32   C     C_R   0.583403 0.342927 0.992950 0.129809
C33   C     C_R   0.017525 0.958433 0.525814 0.056350
C34   C     C_R   0.984405 0.000446 0.470543 0.051534
C35   C     C_R   0.482583 0.460017 0.974016 0.056440
C36   C     C_R   0.515654 0.501231 0.029368 0.051528
C37   C     C_R   0.006142 0.061294 0.422743 -0.182706
C38   C     C_R   0.999868 0.838711 0.565817 -0.172199
C39   C     C_R   0.493863 0.560818 0.077280 -0.182678
C40   C     C_R   0.500335 0.341454 0.933763 -0.172145
C41   C     C_R   0.056655 0.098786 0.430076 -0.195865
C42   C     C_R   0.950708 0.782928 0.556811 -0.204583
C43   C     C_R   0.443276 0.597166 0.070048 -0.196085
C44   C     C_R   0.549503 0.285599 0.942759 -0.204642
H1    H     H_    0.071495 0.141957 0.391409 0.123432
H2    H     H_    0.939430 0.688515 0.588872 0.122143
H3    H     H_    0.428377 0.639058 0.108804 0.123067
H4    H     H_    0.560838 0.191853 0.910551 0.121981
H5    H     H_    0.797411 0.749442 0.442120 0.120011
H6    H     H_    0.209781 0.144433 0.547743 0.111721
H7    H     H_    0.702630 0.249867 0.057846 0.120045
H8    H     H_    0.289983 0.640335 0.952471 0.111627
H9    H     H_    0.153055 0.168043 0.452072 0.116514
H10   H     H_    0.856763 0.684878 0.532685 0.117560
H11   H     H_    0.346668 0.663509 0.048214 0.116587
H12   H     H_    0.643415 0.186679 0.967051 0.117668
H13   H     H_    0.985841 0.065791 0.377622 0.140677
H14   H     H_    0.024326 0.771789 0.602022 0.144616
H15   H     H_    0.514204 0.564962 0.122391 0.140311
H16   H     H_    0.475918 0.275276 0.897380 0.144354
C45   C     C_R   0.862192 0.112671 0.122338 -0.174806
C46   C     C_R   0.139627 0.888228 0.879884 -0.170922
C47   C     C_R   0.636944 0.613821 0.376552 -0.175232
C48   C     C_R   0.361176 0.386905 0.621136 -0.171226
H17   H     H_    0.840826 0.236050 0.128003 0.123217
H18   H     H_    0.160631 0.764525 0.873541 0.122221
H19   H     H_    0.657243 0.738564 0.369453 0.122947
H20   H     H_    0.341313 0.261831 0.628985 0.122265
C49   C     C_R   0.898329 0.125546 0.086692 -0.151446
C50   C     C_R   0.104007 0.875516 0.916234 -0.159164
C51   C     C_R   0.600929 0.626525 0.412372 -0.151967
C52   C     C_R   0.396727 0.374269 0.584682 -0.161244
H21   H     H_    0.903300 0.257578 0.065708 0.103799
H22   H     H_    0.099128 0.743330 0.937171 0.105956
H23   H     H_    0.594104 0.760795 0.430818 0.104465
H24   H     H_    0.403553 0.239853 0.566337 0.105913
C53   C     C_R   0.926906 0.969656 0.077245 0.096994
C54   C     C_R   0.075642 0.031507 0.926168 0.089830
C55   C     C_R   0.573571 0.469175 0.423476 0.096625
C56   C     C_R   0.423857 0.531704 0.573127 0.089725
C57   C     C_R   0.918167 0.799958 0.104427 -0.144818
C58   C     C_R   0.084254 0.201399 0.899026 -0.158532
C59   C     C_R   0.583125 0.298519 0.397412 -0.146173
C60   C     C_R   0.414318 0.702649 0.599006 -0.158057
H25   H     H_    0.939822 0.677428 0.098702 0.099960
H26   H     H_    0.062726 0.323971 0.905070 0.100448
H27   H     H_    0.563212 0.173894 0.405570 0.103485
H28   H     H_    0.434064 0.827299 0.590480 0.104827
C61   C     C_R   0.881946 0.787019 0.140256 -0.170732
C62   C     C_R   0.119980 0.214252 0.862541 -0.154278
C63   C     C_R   0.619148 0.285807 0.361304 -0.170848
C64   C     C_R   0.378748 0.715370 0.635696 -0.155411
H29   H     H_    0.876498 0.654534 0.160719 0.117725
H30   H     H_    0.125120 0.346630 0.841844 0.118361
H31   H     H_    0.625466 0.152204 0.342060 0.118255
H32   H     H_    0.372647 0.848982 0.655061 0.118759
C65   C     C_R   0.853558 0.943571 0.149875 -0.048340
C66   C     C_R   0.147917 0.057300 0.852101 -0.030289
C67   C     C_R   0.646513 0.443586 0.350266 -0.048100
C68   C     C_R   0.351906 0.557197 0.647626 -0.030092
C69   C     C_R   0.972600 0.839066 0.000242 -0.151686
C70   C     C_R   0.030103 0.161773 0.003365 -0.151303
C71   C     C_R   0.490109 0.386010 0.447799 -0.153548
C72   C     C_R   0.507318 0.614340 0.548872 -0.157193
H33   H     H_    0.950194 0.714046 0.997413 0.107178
H34   H     H_    0.052491 0.286834 0.006180 0.108041
H35   H     H_    0.482201 0.299271 0.408320 0.109224
H36   H     H_    0.515231 0.700959 0.588383 0.106028
C73   C     C_R   0.008070 0.854686 0.963620 -0.158122
C74   C     C_R   0.994613 0.146197 0.039959 -0.154756
C75   C     C_R   0.454007 0.402139 0.483563 -0.150738
C76   C     C_R   0.543416 0.598217 0.513114 -0.151253
H37   H     H_    0.011975 0.740992 0.933703 0.102414
H38   H     H_    0.990653 0.260004 0.069813 0.104986
H39   H     H_    0.419339 0.326978 0.470661 0.110022
H40   H     H_    0.578093 0.673281 0.526069 0.109312
C77   C     C_R   0.037372 0.016187 0.964702 0.084687
C78   C     C_R   0.965319 0.984686 0.038888 0.082707
C79   C     C_R   0.462104 0.516550 0.534598 0.081909
C80   C     C_R   0.535304 0.484000 0.462024 0.079545
C81   C     C_R   0.901133 0.176766 0.374947 0.072634
C82   C     C_R   0.910224 0.353652 0.401021 -0.099112
C83   C     C_R   0.916970 0.507359 0.365846 -0.105663
C84   C     C_R   0.914511 0.486261 0.304501 -0.095428
C85   C     C_R   0.905819 0.310760 0.278242 -0.089196
C86   C     C_R   0.899170 0.156267 0.313192 -0.108707
H41   H     H_    0.912101 0.372329 0.448523 0.115622
H42   H     H_    0.924312 0.642748 0.386135 0.120790
H43   H     H_    0.919660 0.605720 0.277407 0.092497
H44   H     H_    0.904557 0.294480 0.230873 0.104273
H45   H     H_    0.893303 0.020460 0.292487 0.071259
C87   C     C_R   0.083475 0.006584 0.650140 0.049808
C88   C     C_R   0.051311 0.144302 0.664626 -0.110310
C89   C     C_R   0.030786 0.126569 0.715970 -0.127130
C90   C     C_R   0.041859 0.970798 0.752807 -0.083626
C91   C     C_R   0.074370 0.834473 0.739137 -0.126467
C92   C     C_R   0.095711 0.853228 0.688477 -0.148083
H46   H     H_    0.041644 0.263638 0.635713 0.108861
H47   H     H_    0.005846 0.232533 0.726834 0.107746
H48   H     H_    0.025477 0.956197 0.792146 0.119349
H49   H     H_    0.082928 0.713911 0.767711 0.111256
H50   H     H_    0.119854 0.744352 0.677635 0.132243
C93   C     C_R   0.598841 0.677510 0.124921 0.073093
C94   C     C_R   0.589716 0.854271 0.098732 -0.098879
C95   C     C_R   0.582902 0.008172 0.133795 -0.106061
C96   C     C_R   0.585304 0.987391 0.195140 -0.095512
C97   C     C_R   0.594003 0.812013 0.221498 -0.089244
C98   C     C_R   0.600762 0.657337 0.186675 -0.108903
H51   H     H_    0.587870 0.872706 0.051226 0.115546
H52   H     H_    0.575538 0.143448 0.113416 0.120856
H53   H     H_    0.580100 0.106975 0.222162 0.092763
H54   H     H_    0.595158 0.795994 0.268844 0.104077
H55   H     H_    0.606648 0.521640 0.207470 0.071172
C99   C     C_R   0.416797 0.512124 0.849894 0.051504
C100  C     C_R   0.448617 0.652137 0.836152 -0.107892
C101  C     C_R   0.469394 0.637940 0.784896 -0.128929
C102  C     C_R   0.458996 0.483230 0.747478 -0.083100
C103  C     C_R   0.426903 0.344446 0.760493 -0.125336
C104  C     C_R   0.405155 0.360007 0.810937 -0.151612
H56   H     H_    0.457809 0.770582 0.865563 0.108397
H57   H     H_    0.494041 0.745746 0.774577 0.106255
H58   H     H_    0.475621 0.471267 0.708234 0.118483
H59   H     H_    0.418967 0.224452 0.731568 0.112368
H60   H     H_    0.381254 0.249484 0.821201 0.131635

loop_
_geom_bond_atom_site_label_1
_geom_bond_atom_site_label_2
_ccdc_geom_bond_type
C98   H55   S    
O17   V3    S    
C97   C98   A    
C48   C52   A    
O1    C5    A    
C88   C89   A    
C47   H19   S    
O19   V1    S    
C9    C21   A    
C95   C96   A    
O3    C7    A    
C83   C84   A    
C10   C18   A    
C73   H37   S    
C48   C68   A    
C11   C23   A    
C55   C80   S    
C99   C100  A    
C25   C33   A    
C33   C38   A    
C5    C12   S    
C102  C103  A    
C75   H39   S    
C6    C11   S    
C35   C40   A    
C26   C30   A    
C58   C62   A    
C36   C39   A    
C40   C44   A    
C57   C61   A    
C87   C88   A    
C71   C75   A    
C14   C18   A    
C23   C99   S    
C2    C68   S    
C72   C76   A    
C58   H26   S    
O4    C8    A    
C51   H23   S    
C22   C81   S    
C96   C97   A    
C70   H34   S    
O1    V3    S    
O13   V1    S    
O2    V4    S    
O3    V1    S    
C103  C104  A    
C40   H16   S    
C46   C50   A    
C17   H6    S    
C45   C49   A    
C1    O15   A    
C15   C31   A    
C48   H20   S    
C2    O16   A    
C16   C32   A    
C47   C51   A    
O2    C6    A    
C95   H52   S    
C16   H12   S    
C45   C65   A    
C10   C22   A    
C54   C77   S    
C11   C19   A    
C16   C20   A    
C43   H3    S    
C99   C104  A    
C76   H40   S    
C103  H59   S    
C13   C29   A    
C34   C37   A    
O11   C7    A    
C38   H14   S    
O15   V3    S    
C35   C36   A    
O12   C8    A    
C3    C65   S    
O10   V2    S    
C72   H36   S    
C51   C55   A    
C81   C82   A    
O5    V1    S    
C96   H53   S    
C53   C57   A    
C94   H51   S    
C39   C43   A    
O7    V3    S    
C38   C42   A    
C101  H57   S    
C26   C34   A    
O14   V2    S    
C63   C67   A    
C84   C85   A    
C4    C66   S    
C46   H18   S    
C49   C53   A    
C93   C94   A    
C45   H17   S    
O18   V4    S    
C23   C27   A    
C14   H10   S    
C32   C44   A    
C13   H9    S    
C64   H32   S    
C39   H15   S    
C44   H4    S    
O8    V4    S    
C20   H7    S    
O7    C3    A    
C85   H44   S    
O5    C1    A    
C37   C41   A    
C74   C78   A    
C53   C78   S    
C31   C43   A    
C90   C91   A    
C14   C30   A    
C21   C25   A    
C69   C78   A    
O8    C4    A    
C7    C10   S    
C56   C79   S    
O9    C5    A    
C21   C87   S    
C91   H49   S    
C59   C63   A    
C62   H30   S    
C89   H47   S    
C61   H29   S    
C94   C95   A    
O6    V2    S    
C87   C92   A    
C63   H31   S    
C86   H45   S    
C52   C56   A    
C69   H33   S    
C89   C90   A    
C12   C20   A    
C27   C35   A    
C84   H43   S    
O9    V1    S    
C49   H21   S    
C56   C60   A    
C29   C41   A    
C101  C102  A    
C82   C83   A    
O16   V4    S    
C69   C73   A    
C19   H8    S    
C57   H25   S    
C3    O13   A    
C18   H5    S    
C64   C68   A    
C59   H27   S    
C81   C86   A    
C74   H38   S    
C15   C19   A    
C102  H58   S    
O11   V3    S    
C93   C98   A    
C30   C42   A    
C100  C101  A    
O12   V4    S    
C97   H54   S    
C22   C26   A    
C70   C77   A    
C73   C77   A    
C8    C9    S    
C9    C17   A    
C91   C92   A    
C60   C64   A    
O20   V2    S    
C83   H42   S    
C76   C80   A    
C37   H13   S    
C104  H60   S    
C47   C67   A    
O10   C6    A    
C33   C34   A    
C42   H2    S    
C24   C93   S    
C41   H1    S    
C52   H24   S    
C75   C79   A    
C1    C67   S    
C12   C24   A    
C27   C31   A    
C71   C80   A    
C13   C17   A    
C46   C66   A    
C72   C79   A    
C71   H35   S    
C25   C29   A    
O6    C2    A    
C92   H50   S    
C82   H41   S    
C62   C66   A    
C100  H56   S    
C60   H28   S    
C24   C28   A    
C61   C65   A    
C70   C74   A    
C28   C36   A    
C54   C58   A    
C4    O14   A    
C50   H22   S    
C90   H48   S    
C55   C59   A    
C85   C86   A    
C88   H46   S    
O4    V2    S    
C28   C32   A    
C50   C54   A    
C15   H11   S    
