data_mof_unit_41458.cif
_audit_creation_date              2012-12-10T16:58:30-0500
_audit_creation_method            fapswitch 2.2
_symmetry_space_group_name_H-M    P1
_symmetry_Int_Tables_number       1
_space_group_crystal_system       triclinic
_cell_length_a                    7.741072
_cell_length_b                    8.564816
_cell_length_c                    23.391999
_cell_angle_alpha                 91.055836
_cell_angle_beta                  86.024051
_cell_angle_gamma                 93.191413
_cell_volume                      1544.61223717

loop_
_atom_site_label
_atom_site_type_symbol
_atom_type_description
_atom_site_fract_x
_atom_site_fract_y
_atom_site_fract_z
_atom_type_partial_charge
C1    C     C_R   0.544656 0.794743 0.498593 0.951395
C2    C     C_R   0.647683 0.504178 0.292414 -0.179167
C3    C     C_R   0.671345 0.495040 0.757080 -0.086255
C4    C     C_R   0.643204 0.506454 0.233307 -0.095945
C5    C     C_R   0.516124 0.494109 0.791295 0.316797
C6    C     C_R   0.483982 0.506526 0.208709 0.316578
C7    C     C_2   0.561420 0.954905 0.487804 -0.084935
C8    C     C_2   0.438580 0.045095 0.512196 -0.084938
C9    C     C_R   0.502435 0.499734 0.610668 0.886836
C10   C     C_R   0.497570 0.500290 0.389333 0.886824
C11   C     C_R   0.443894 0.368211 0.120138 0.507321
C12   C     C_R   0.455344 0.205257 0.501407 0.951423
C13   C     C_R   0.556243 0.632438 0.879858 0.507337
C14   C     C_R   0.522713 0.642437 0.119612 0.507724
C15   C     C_R   0.477402 0.358216 0.880387 0.507752
C16   C     C_R   0.531110 0.643121 0.059824 -0.014923
C17   C     C_R   0.469017 0.357531 0.940174 -0.014936
C18   C     C_R   0.495318 0.501683 0.030081 -0.019687
C19   C     C_R   0.504813 0.498970 0.969916 -0.019685
C20   C     C_R   0.450411 0.362884 0.060362 -0.014457
C21   C     C_R   0.549722 0.637769 0.939635 -0.014481
C22   C     C_R   0.575726 0.780736 0.029281 -0.166265
C23   C     C_R   0.356914 0.494870 0.766707 -0.096021
C24   C     C_R   0.424402 0.219918 0.970717 -0.166275
C25   C     C_R   0.585015 0.778070 0.969648 -0.165944
C26   C     C_R   0.415118 0.222583 0.030349 -0.165933
C27   C     C_R   0.328711 0.504703 0.242918 -0.086108
C28   C     C_R   0.352397 0.496932 0.707600 -0.179078
C29   C     C_R   0.332683 0.502933 0.302160 -0.197058
C30   C     C_R   0.507650 0.497837 0.672791 -0.036276
C31   C     C_R   0.492382 0.502360 0.327213 -0.036240
C32   C     C_R   0.667337 0.496591 0.697837 -0.197034
H1    H     H_    0.604038 0.890582 0.051298 0.195396
H2    H     H_    0.772389 0.504149 0.310742 0.167498
H3    H     H_    0.794396 0.494681 0.776459 0.137629
H4    H     H_    0.763068 0.507442 0.206485 0.138046
H5    H     H_    0.014292 0.382560 0.456794 0.207532
H6    H     H_    0.985708 0.617440 0.543206 0.207542
H7    H     H_    0.396089 0.110072 0.948699 0.195390
H8    H     H_    0.619801 0.886014 0.947212 0.195297
H9    H     H_    0.380334 0.114638 0.052785 0.195307
H10   H     H_    0.237088 0.494542 0.793537 0.137956
H11   H     H_    0.205643 0.504500 0.223534 0.137713
H12   H     H_    0.227692 0.497521 0.689282 0.167495
H13   H     H_    0.211293 0.501279 0.328188 0.164470
H14   H     H_    0.788690 0.497506 0.671804 0.164543
I1    I     I_    0.747675 0.017178 0.418110 -0.297199
I2    I     I_    0.252327 0.982820 0.581891 -0.297200
N1    N     N_R   0.480798 0.506235 0.148099 -0.364451
N2    N     N_R   0.519325 0.494415 0.851901 -0.364486
N3    N     N_2   0.950330 0.457950 0.484560 -0.160193
N4    N     N_2   0.049670 0.542050 0.515440 -0.160197
O1    O     O_R   0.389250 0.738570 0.503790 -0.594443
O2    O     O_2   0.596932 0.763962 0.849770 -0.523504
O3    O     O_2   0.556664 0.776134 0.149218 -0.521974
O4    O     O_2   0.443414 0.224527 0.850780 -0.521943
O5    O     O_R   0.610750 0.261430 0.496210 -0.594437
O6    O     O_R   0.678390 0.711620 0.493890 -0.606517
O7    O     O_R   0.321610 0.288380 0.506110 -0.606506
O8    O     O_R   0.355400 0.513520 0.588790 -0.610939
O9    O     O_R   0.644600 0.486480 0.411210 -0.610922
O10   O     O_R   0.644550 0.486570 0.578900 -0.632613
O11   O     O_R   0.355450 0.513430 0.421100 -0.632600
O12   O     O_2   0.403236 0.236674 0.150222 -0.523547
Zn1   Zn    Zn3+2 0.306930 0.518000 0.506610 0.996755
Zn2   Zn    Zn3+2 0.693070 0.482000 0.493390 0.996755

loop_
_geom_bond_atom_site_label_1
_geom_bond_atom_site_label_2
_ccdc_geom_bond_type
C2    C4    A    
C8    I2    S    
C25   H8    S    
C11   N1    A    
C27   C29   A    
O1    Zn1   S    
C6    C27   A    
C5    C23   A    
C3    H3    S    
O5    Zn2   S    
C8    C12   S    
C9    O8    A    
C32   H14   S    
C15   O4    S    
C2    H2    S    
C28   C30   A    
C14   O3    S    
C13   C21   A    
C7    C8    D    
C29   C31   A    
C1    O6    A    
O7    Zn1   S    
C30   C32   A    
C23   H10   S    
C20   C26   A    
C9    C30   S    
H5    N3    S    
C12   O5    A    
O9    Zn2   S    
C4    C6    A    
C13   N2    A    
C17   C19   A    
C24   C26   A    
O8    Zn1   S    
C11   O12   S    
C18   C20   A    
C6    N1    S    
C3    C32   A    
O11   Zn1   S    
C14   C16   A    
C11   C20   A    
C17   C24   A    
H6    N4    S    
C23   C28   A    
O10   Zn2   S    
C9    O10   A    
C14   N1    A    
C27   H11   S    
C5    N2    S    
C24   H7    S    
N3    N4    D    
C4    H4    S    
C22   C25   A    
C28   H12   S    
C16   C18   A    
C13   O2    S    
C15   N2    A    
C29   H13   S    
C15   C17   A    
C22   H1    S    
C1    O1    A    
C18   C19   A    
C21   C25   A    
C19   C21   A    
C1    C7    S    
C12   O7    A    
C10   O9    A    
C10   C31   S    
O6    Zn2   S    
N4    Zn1   S    
C10   O11   A    
C26   H9    S    
C16   C22   A    
C2    C31   A    
C3    C5    A    
N3    Zn2   S    
C7    I1    S    
