data_mof_unit_30036.cif
_audit_creation_date              2012-12-10T19:06:30-0500
_audit_creation_method            fapswitch 2.2
_symmetry_space_group_name_H-M    P1
_symmetry_Int_Tables_number       1
_space_group_crystal_system       triclinic
_cell_length_a                    23.51474
_cell_length_b                    10.812295
_cell_length_c                    9.540694
_cell_angle_alpha                 90.068978
_cell_angle_beta                  89.892084
_cell_angle_gamma                 90.27741
_cell_volume                      2425.67081912

loop_
_atom_site_label
_atom_site_type_symbol
_atom_type_description
_atom_site_fract_x
_atom_site_fract_y
_atom_site_fract_z
_atom_type_partial_charge
C1    C     C_R   0.498786 0.262292 0.499926 0.800037
C2    C     C_R   0.970009 0.273070 0.514092 -0.155006
C3    C     C_R   0.029348 0.273133 0.513367 -0.149813
C4    C     C_R   0.059838 0.385127 0.509157 -0.016238
C5    C     C_R   0.030111 0.497931 0.505988 -0.015101
C6    C     C_R   0.060261 0.610820 0.501938 -0.016669
C7    C     C_R   0.030200 0.722742 0.498912 -0.149302
C8    C     C_R   0.970867 0.722638 0.499524 -0.154834
C9    C     C_R   0.119489 0.387548 0.507666 0.569813
C10   C     C_R   0.119897 0.608552 0.500718 0.571827
C11   C     C_R   0.238763 0.498313 0.627571 -0.128079
C12   C     C_R   0.390898 0.499728 0.500145 0.810386
C13   C     C_R   0.298021 0.498808 0.627582 -0.201711
C14   C     C_R   0.328247 0.499189 0.500375 -0.076655
C15   C     C_R   0.298077 0.498857 0.373289 -0.231621
C16   C     C_R   0.238715 0.498329 0.373065 0.206442
C17   C     C_R   0.208937 0.498166 0.500815 0.313518
C18   C     C_R   0.760350 0.458987 0.622939 -0.093968
C19   C     C_R   0.701051 0.459487 0.621239 -0.221290
C20   C     C_R   0.671676 0.498530 0.501101 -0.046479
C21   C     C_R   0.702699 0.536801 0.382868 -0.202128
C22   C     C_R   0.761973 0.536431 0.384742 -0.099622
C23   C     C_R   0.498696 0.737697 0.500009 0.819121
C24   C     C_R   0.791018 0.497614 0.504760 0.349617
C25   C     C_R   0.494131 0.063752 0.625869 0.132391
C26   C     C_R   0.492679 0.129193 0.500008 -0.093245
C27   C     C_R   0.482373 0.064197 0.374745 -0.216245
C28   C     C_R   0.481982 0.935168 0.375017 -0.210697
C29   C     C_R   0.492425 0.870686 0.500186 -0.093741
C30   C     C_R   0.494108 0.936583 0.625833 0.145755
C31   C     C_3   0.535398 0.930342 0.744140 -0.490159
C32   C     C_3   0.535449 0.070792 0.744407 -0.467383
C33   C     C_R   0.528735 0.589697 0.073964 0.178283
C34   C     C_R   0.609077 0.499737 0.500035 0.812697
C35   C     C_R   0.467388 0.418845 0.074466 -0.080020
C36   C     C_R   0.467350 0.418893 0.925575 -0.067010
C37   C     C_R   0.528963 0.589446 0.926039 0.166515
C38   C     C_3   0.591312 0.615395 0.917332 -0.549845
C39   C     C_3   0.591546 0.612873 0.077052 0.305128
C40   C     C_R   0.880714 0.608210 0.503413 0.537216
C41   C     C_R   0.880276 0.387216 0.510318 0.535569
C42   C     C_R   0.939934 0.385005 0.510647 -0.014359
C43   C     C_R   0.970091 0.497847 0.506698 -0.014941
C44   C     C_R   0.940371 0.610604 0.503189 -0.015355
Cu1   Cu    Cu3+1 0.500000 0.499980 0.640670 0.948472
Cu2   Cu    Cu3+1 0.500000 0.500020 0.359330 0.961781
H1    H     H_    0.947828 0.185083 0.517155 0.190570
H2    H     H_    0.678263 0.428070 0.713295 0.147442
H3    H     H_    0.681339 0.568662 0.289791 0.183077
H4    H     H_    0.785416 0.566392 0.292959 0.148644
H5    H     H_    0.477230 0.112289 0.276079 0.159768
H6    H     H_    0.476189 0.886633 0.276774 0.162003
H7    H     H_    0.515763 0.889558 0.839514 0.193034
H8    H     H_    0.576886 0.889879 0.712559 0.201336
H9    H     H_    0.516086 0.111042 0.840474 0.195841
H10   H     H_    0.576974 0.112050 0.713012 0.204528
H11   H     H_    0.441863 0.351531 0.130383 0.141983
H12   H     H_    0.051204 0.185214 0.515888 0.191275
H13   H     H_    0.441800 0.351614 0.869724 0.140352
H14   H     H_    0.615360 0.536985 0.871684 0.185511
H15   H     H_    0.600669 0.705577 0.867289 0.197428
H16   H     H_    0.614590 0.530774 0.117074 0.105955
H17   H     H_    0.052387 0.810723 0.495835 0.191620
H18   H     H_    0.949020 0.810563 0.496906 0.190386
H19   H     H_    0.215875 0.498129 0.726193 0.164766
H20   H     H_    0.320092 0.498908 0.727126 0.171414
H21   H     H_    0.320449 0.498969 0.273963 0.176208
H22   H     H_    0.782526 0.428836 0.716117 0.144670
N1    N     N_R   0.852015 0.497666 0.506557 -0.471078
N2    N     N_R   0.148050 0.498071 0.502895 -0.465150
N3    N     N_R   0.500360 0.500930 0.147930 -0.207988
N4    N     N_R   0.500360 0.500890 0.852020 -0.173151
O1    O     O_R   0.500000 0.319640 0.618810 -0.583695
O2    O     O_2   0.850707 0.279951 0.512367 -0.528982
O3    O     O_2   0.148790 0.280583 0.510502 -0.512760
O4    O     O_2   0.149594 0.715609 0.497033 -0.511169
O5    O     O_R   0.500010 0.319680 0.381230 -0.590065
O6    O     O_R   0.417880 0.499940 0.618820 -0.583350
O7    O     O_R   0.417880 0.499980 0.381240 -0.583650
O8    O     O_R   0.499990 0.680320 0.618770 -0.575324
O9    O     O_R   0.500000 0.680360 0.381190 -0.564979
O10   O     O_R   0.582120 0.500020 0.618760 -0.584275
O11   O     O_R   0.582120 0.500060 0.381180 -0.574276
O12   O     O_2   0.851564 0.715395 0.501360 -0.525435
O13   O     O_3   0.609206 0.722338 0.148933 -0.554140
C45   C     C_3   0.583490 0.832782 0.101904 -0.250567
H23   H     H_    0.537420 0.822727 0.079609 0.125934
H24   H     H_    0.606481 0.869924 0.009349 0.166266
H25   H     H_    0.587545 0.903055 0.186119 0.189243
I1    I     I_    0.195694 0.497469 0.178133 -0.322274

loop_
_geom_bond_atom_site_label_1
_geom_bond_atom_site_label_2
_ccdc_geom_bond_type
C16   I1    S    
C1    O5    A    
C41   C42   A    
C40   O12   S    
C19   C20   A    
C36   H13   S    
C21   H3    S    
C7    C8    A    
O13   C45   S    
C26   C27   A    
C29   C30   A    
C18   C24   A    
C5    C6    A    
C23   C29   S    
C28   C29   A    
C30   C31   S    
C45   H24   S    
C18   H22   S    
C15   C16   A    
C12   O7    A    
Cu1   O1    S    
C18   C19   A    
C41   O2    S    
C10   O4    S    
Cu2   O7    S    
Cu1   O10   S    
C16   C17   A    
C12   O6    A    
Cu1   O6    S    
C23   O8    A    
C32   H9    S    
C22   H4    S    
C38   H15   S    
C20   C34   S    
C25   C32   S    
C5    C43   A    
C35   N3    A    
C17   N2    S    
C21   C22   A    
Cu1   N4    S    
C27   H5    S    
C24   N1    S    
C13   H20   S    
C40   N1    A    
C9    N2    A    
C45   H23   S    
C25   C26   A    
Cu1   Cu2   S    
C33   C37   A    
C35   C36   A    
C43   C44   A    
C37   C38   S    
Cu2   O9    S    
C31   C32   S    
C15   H21   S    
C33   C39   S    
C31   H7    S    
C7    H17   S    
Cu2   N3    S    
C8    H18   S    
C38   H14   S    
C10   N2    A    
C12   C14   S    
C1    C26   S    
C22   C24   A    
C34   O11   A    
C39   O13   S    
C3    C4    A    
C41   N1    A    
C25   C30   A    
C39   H16   S    
C11   C17   A    
C23   O9    A    
C19   H2    S    
C8    C44   A    
C4    C5    A    
C45   H25   S    
C6    C10   A    
Cu2   O5    S    
C6    C7    A    
C28   H6    S    
C2    H1    S    
C9    O3    S    
C35   H11   S    
C1    O1    A    
C2    C3    A    
C11   C13   A    
C38   C39   S    
C2    C42   A    
Cu1   O8    S    
C31   H8    S    
C33   N3    A    
Cu2   O11   S    
C3    H12   S    
C11   H19   S    
C40   C44   A    
C20   C21   A    
C42   C43   A    
C37   N4    A    
C27   C28   A    
C14   C15   A    
C34   O10   A    
C4    C9    A    
C13   C14   A    
C32   H10   S    
C36   N4    A    
