data_mof_unit_37724.cif
_audit_creation_date              2012-12-10T19:48:37-0500
_audit_creation_method            fapswitch 2.2
_symmetry_space_group_name_H-M    P1
_symmetry_Int_Tables_number       1
_space_group_crystal_system       triclinic
_cell_length_a                    13.096821
_cell_length_b                    14.190071
_cell_length_c                    14.809038
_cell_angle_alpha                 89.517556
_cell_angle_beta                  89.720826
_cell_angle_gamma                 69.73371
_cell_volume                      2581.70617267

loop_
_atom_site_label
_atom_site_type_symbol
_atom_type_description
_atom_site_fract_x
_atom_site_fract_y
_atom_site_fract_z
_atom_type_partial_charge
C1    C     C_R   0.496485 0.500713 0.672952 0.970378
C2    C     C_R   0.985887 0.450061 0.472230 0.150957
C3    C     C_R   0.875821 0.471512 0.450863 -0.061517
C4    C     C_R   0.028868 0.528560 0.464962 -0.041983
C5    C     C_R   0.968473 0.621026 0.422301 -0.206624
C6    C     C_R   0.865950 0.633252 0.386520 0.678862
C7    C     C_R   0.820635 0.559142 0.400329 -0.243971
C8    C     C_R   0.129142 0.518207 0.502431 -0.255397
C9    C     C_R   0.115350 0.684929 0.452230 0.360622
C10   C     C_R   0.823239 0.405896 0.482656 -0.207173
C11   C     C_R   0.475319 0.427057 0.913095 -0.255242
C12   C     C_R   0.704606 0.443976 0.494434 0.925498
C13   C     C_R   0.497831 0.419274 0.821631 0.643405
C14   C     C_R   0.474610 0.506853 0.769019 -0.267141
C15   C     C_R   0.423167 0.601585 0.807649 -0.346980
C16   C     C_R   0.397996 0.609454 0.898952 0.559192
C17   C     C_R   0.429219 0.521704 0.952089 0.008852
C18   C     C_R   0.510709 0.567915 0.084664 0.567748
C19   C     C_R   0.530927 0.562039 0.176778 0.335113
C20   C     C_R   0.481150 0.509030 0.231521 -0.282062
C21   C     C_R   0.404496 0.471210 0.196116 -0.341619
C22   C     C_R   0.377949 0.483730 0.104906 0.416671
C23   C     C_R   0.499522 0.500794 0.327293 0.957493
C24   C     C_R   0.435466 0.528034 0.049019 -0.158474
C25   C     C_R   0.582505 0.867899 0.542770 -0.316558
C26   C     C_R   0.579472 0.770044 0.544490 0.787125
C27   C     C_R   0.421656 0.820481 0.453800 -0.180233
C28   C     C_R   0.419491 0.920229 0.453038 -0.281861
C29   C     C_R   0.501013 0.946203 0.497782 0.135326
C30   C     C_R   0.444660 0.124143 0.432250 -0.361600
C31   C     C_R   0.443884 0.223313 0.435057 0.650412
C32   C     C_R   0.557032 0.185462 0.563787 0.691889
C33   C     C_R   0.557175 0.086432 0.564987 -0.371323
C34   C     C_R   0.294998 0.556003 0.500126 0.900451
C35   C     C_R   0.500988 0.053134 0.498264 0.009537
C36   C     C_R   0.012096 0.698900 0.416921 0.590455
C37   C     C_R   0.176958 0.590473 0.488978 -0.276146
C38   C     C_R   0.885634 0.307521 0.511504 0.506692
C39   C     C_R   0.998369 0.281394 0.519742 -0.257374
C40   C     C_R   0.047844 0.351736 0.501782 -0.222349
H1    H     H_    0.402323 0.669636 0.767231 0.200355
H2    H     H_    0.363993 0.433600 0.239730 0.237212
H3    H     H_    0.649472 0.880827 0.576305 0.167989
H4    H     H_    0.360023 0.801401 0.417658 0.190308
H5    H     H_    0.353142 0.976004 0.418327 0.159606
H6    H     H_    0.401956 0.103942 0.377690 0.180873
H7    H     H_    0.600460 0.037400 0.618972 0.192219
H8    H     H_    0.173646 0.452400 0.541422 0.186958
H9    H     H_    0.135006 0.326395 0.510088 0.165791
H10   H     H_    0.047510 0.207881 0.544973 0.154587
H11   H     H_    0.741724 0.571118 0.370866 0.193933
H12   H     H_    0.500175 0.359650 0.954611 0.202368
N1    N     N_R   0.500000 0.747530 0.500020 -0.150770
N2    N     N_R   0.499940 0.252470 0.500020 -0.209918
O1    O     O_R   0.499990 0.420530 0.630930 -0.521311
O2    O     O_R   0.499990 0.579480 0.630940 -0.600473
O3    O     O_R   0.653620 0.381060 0.499970 -0.566095
O4    O     O_R   0.653620 0.540010 0.499980 -0.567579
O5    O     O_R   0.500010 0.420520 0.369060 -0.580795
O6    O     O_R   0.500010 0.579470 0.369070 -0.639688
O7    O     O_R   0.346380 0.459990 0.500020 -0.592295
O8    O     O_R   0.346380 0.618940 0.500030 -0.614402
Zn1   Zn    Zn3+2 0.500000 0.393860 0.499990 1.057274
Zn2   Zn    Zn3+2 0.500000 0.606140 0.500010 0.985445
O9    O     O_3   0.156811 0.762073 0.444667 -0.613107
C41   C     C_3   0.151883 0.808284 0.529906 0.119481
H13   H     H_    0.210496 0.849028 0.528491 0.165420
H14   H     H_    0.177696 0.752922 0.586635 0.118674
C42   C     C_3   0.038094 0.884598 0.548490 -0.364194
H15   H     H_    0.011684 0.936740 0.489954 0.247118
H16   H     H_    0.979128 0.844785 0.557689 0.233875
C43   C     C_3   0.037584 0.944758 0.633583 -0.952731
H17   H     H_    0.066973 0.893486 0.692384 0.269176
H18   H     H_    0.953522 0.995823 0.648152 0.284313
H19   H     H_    0.090533 0.990617 0.624090 0.264969
F1    F     F_    0.547260 0.326740 0.785974 -0.587876
O10   O     O_3   0.354897 0.703480 0.937409 -0.605900
C44   C     C_3   0.243128 0.724050 0.954494 0.036248
H20   H     H_    0.229044 0.662108 0.993468 0.134122
H21   H     H_    0.197854 0.735130 0.889474 0.141821
C45   C     C_3   0.199081 0.819968 0.010067 -0.314254
H22   H     H_    0.246397 0.810354 0.073750 0.226545
H23   H     H_    0.208881 0.883709 0.971252 0.237189
C46   C     C_3   0.079045 0.844297 0.033254 -0.909554
H24   H     H_    0.029891 0.855338 0.970564 0.267746
H25   H     H_    0.049476 0.914452 0.073294 0.275217
H26   H     H_    0.067862 0.782407 0.073939 0.266847
F2    F     F_    0.568897 0.607252 0.029276 -0.631331
O11   O     O_3   0.608422 0.597955 0.211225 -0.624371
C47   C     C_3   0.560810 0.701962 0.230142 0.143792
H27   H     H_    0.573500 0.712294 0.302976 0.186566
H28   H     H_    0.471133 0.734753 0.217704 0.100718
C48   C     C_3   0.618049 0.761011 0.175462 -0.271255
H29   H     H_    0.707605 0.725677 0.183661 0.276296
H30   H     H_    0.598395 0.759429 0.102775 0.263190
C49   C     C_3   0.582521 0.870147 0.206201 -0.888160
H31   H     H_    0.493271 0.907360 0.197567 0.249174
H32   H     H_    0.624757 0.911266 0.165016 0.277463
H33   H     H_    0.603734 0.873909 0.278330 0.297071
O12   O     O_3   0.302424 0.446395 0.068400 -0.621190
C50   C     C_3   0.197522 0.495957 0.105560 0.067994
H34   H     H_    0.140810 0.528529 0.048756 0.159964
H35   H     H_    0.192245 0.560058 0.150996 0.128627
C51   C     C_3   0.158251 0.420111 0.155943 -0.320840
H36   H     H_    0.151684 0.362881 0.107732 0.236279
H37   H     H_    0.217855 0.380893 0.208921 0.248974
C52   C     C_3   0.047713 0.471631 0.200483 -0.900413
H38   H     H_    0.053152 0.528294 0.249683 0.263553
H39   H     H_    0.021830 0.415023 0.237081 0.267580
H40   H     H_    0.985515 0.509223 0.148725 0.276385
F3    F     F_    0.656838 0.697632 0.591221 -0.643232
F4    F     F_    0.807213 0.718085 0.341158 -0.644671
F5    F     F_    0.386835 0.290358 0.371999 -0.667091
F6    F     F_    0.614953 0.214189 0.626570 -0.565361
F7    F     F_    0.955496 0.788470 0.377421 -0.615784
O13   O     O_3   0.834787 0.242375 0.542556 -0.579966
C53   C     C_3   0.861924 0.155718 0.487766 0.111484
H41   H     H_    0.841948 0.097366 0.527015 0.190182
H42   H     H_    0.950324 0.123480 0.471680 0.109891
C54   C     C_3   0.794520 0.176318 0.400673 -0.408232
H43   H     H_    0.706570 0.207554 0.417561 0.248436
H44   H     H_    0.815337 0.232081 0.358236 0.212051
C55   C     C_3   0.815903 0.080166 0.346739 -0.848769
H45   H     H_    0.903329 0.047526 0.328010 0.274417
H46   H     H_    0.766558 0.097371 0.284011 0.269532
H47   H     H_    0.792788 0.024191 0.387008 0.287263

loop_
_geom_bond_atom_site_label_1
_geom_bond_atom_site_label_2
_ccdc_geom_bond_type
C41   H14   S    
C5    C36   A    
C48   H29   S    
C34   C37   S    
C19   C20   A    
C46   H26   S    
C4    C8    A    
C25   H3    S    
C51   H37   S    
C45   H22   S    
C55   H45   S    
O10   C44   S    
C23   O5    A    
C50   H34   S    
C30   C35   A    
C18   C24   A    
C28   C29   A    
C1    O2    A    
C46   H25   S    
C18   C19   A    
C3    C7    A    
C53   H42   S    
C30   C31   A    
N1    Zn2   S    
C44   H21   S    
C55   H46   S    
C41   C42   S    
N2    Zn1   S    
C15   C16   A    
C49   H33   S    
C34   O8    A    
O13   C53   S    
C42   H16   S    
C16   O10   S    
O7    Zn1   S    
O8    Zn2   S    
C11   H12   S    
C27   H4    S    
C16   C17   A    
C49   H32   S    
C9    C36   A    
C52   H38   S    
O2    Zn2   S    
C54   C55   S    
C12   O4    A    
C41   H13   S    
C50   H35   S    
C21   C22   A    
C25   C29   A    
C52   H39   S    
C43   H19   S    
C32   N2    A    
C51   H36   S    
C45   H23   S    
C54   H44   S    
O3    Zn1   S    
O4    Zn2   S    
C23   O6    A    
C28   H5    S    
C17   C24   S    
C22   O12   S    
C38   C39   A    
C46   H24   S    
C15   H1    S    
C43   H18   S    
C53   C54   S    
C39   C40   A    
C44   H20   S    
C43   H17   S    
C55   H47   S    
C25   C26   A    
C20   C23   S    
C34   O7    A    
C18   F2    S    
O1    Zn1   S    
C42   C43   S    
C2    C4    A    
C8    H8    S    
C19   O11   S    
C38   O13   S    
C47   H28   S    
C13   F1    S    
C49   H31   S    
C9    C37   A    
C10   C12   S    
C12   O3    A    
C48   C49   S    
C33   H7    S    
C52   H40   S    
C22   C24   A    
C8    C37   A    
C26   N1    A    
C45   C46   S    
C54   H43   S    
C47   C48   S    
C11   C17   A    
C6    F4    S    
C30   H6    S    
C4    C5    A    
C27   N1    A    
C6    C7    A    
C50   C51   S    
C29   C35   S    
O5    Zn1   S    
O6    Zn2   S    
C10   C38   A    
C32   C33   A    
C2    C3    A    
C1    O1    A    
C7    H11   S    
C3    C10   A    
C53   H41   S    
C11   C13   A    
C44   C45   S    
C47   H27   S    
C5    C6    A    
O12   C50   S    
C33   C35   A    
C31   N2    A    
C42   H15   S    
C9    O9    S    
C21   H2    S    
C2    C40   A    
C39   H10   S    
C20   C21   A    
C48   H30   S    
O9    C41   S    
C27   C28   A    
C14   C15   A    
C1    C14   S    
C32   F6    S    
O11   C47   S    
C13   C14   A    
C36   F7    S    
C26   F3    S    
C31   F5    S    
C51   C52   S    
C40   H9    S    
