data_mof_unit_57059.cif
_audit_creation_date              2012-12-10T16:50:12-0500
_audit_creation_method            fapswitch 2.2
_symmetry_space_group_name_H-M    P1
_symmetry_Int_Tables_number       1
_space_group_crystal_system       triclinic
_cell_length_a                    7.813697
_cell_length_b                    8.576602
_cell_length_c                    10.716738
_cell_angle_alpha                 92.588738
_cell_angle_beta                  83.770716
_cell_angle_gamma                 93.732516
_cell_volume                      711.901327058

loop_
_atom_site_label
_atom_site_type_symbol
_atom_type_description
_atom_site_fract_x
_atom_site_fract_y
_atom_site_fract_z
_atom_type_partial_charge
C1    C     C_R   0.545797 0.794615 0.495692 0.922463
C2    C     C_R   0.454687 0.205228 0.499987 0.966149
C3    C     C_R   0.502760 0.510151 0.260604 0.886418
C4    C     C_R   0.168472 0.532057 0.918907 -0.092638
C5    C     C_R   0.043640 0.611129 0.995686 -0.156843
C6    C     C_R   0.086384 0.690417 0.104731 -0.156299
C7    C     C_R   0.247424 0.674304 0.144715 -0.138694
C8    C     C_R   0.365808 0.576010 0.075811 0.102043
C9    C     C_3   0.002401 0.778618 0.622841 0.214114
C10   C     C_3   0.102746 0.844705 0.730190 -0.417917
C11   C     C_3   0.098945 0.022022 0.745250 -0.878572
C12   C     C_R   0.337996 0.525958 0.953613 0.026239
C13   C     C_R   0.480441 0.468084 0.874351 -0.221796
C14   C     C_R   0.620166 0.412454 0.927194 0.376868
C15   C     C_R   0.628539 0.433135 0.054014 -0.282814
C16   C     C_R   0.505069 0.516996 0.127625 -0.182183
C17   C     C_2   0.570403 0.958158 0.494656 -0.360413
C18   C     C_2   0.432517 0.041411 0.492078 -0.374142
C19   C     C_R   0.494672 0.486764 0.739983 0.913096
Cl1   Cl    Cl    0.779815 0.303738 0.841261 -0.672218
H1    H     H_    0.126383 0.470257 0.836764 0.233837
H2    H     H_    0.069839 0.812652 0.530180 0.101560
H3    H     H_    0.040831 0.796947 0.818654 0.238341
H4    H     H_    0.237871 0.810280 0.716209 0.256818
H5    H     H_    0.969066 0.051894 0.787368 0.311640
H6    H     H_    0.126266 0.078484 0.653839 0.270844
H7    H     H_    0.195049 0.068255 0.808846 0.272684
H8    H     H_    0.915782 0.617081 0.967354 0.174329
H9    H     H_    0.992905 0.759539 0.160526 0.144380
H10   H     H_    0.276473 0.735465 0.231179 0.144702
H11   H     H_    0.731268 0.381454 0.095153 0.205215
H12   H     H_    0.700435 0.009695 0.500106 0.175251
H13   H     H_    0.304063 0.989490 0.482976 0.160327
H14   H     H_    0.015183 0.392382 0.395763 0.147105
H15   H     H_    0.877216 0.834296 0.632743 0.150269
N1    N     N_2   0.950330 0.457950 0.466250 -0.091381
N2    N     N_2   0.049670 0.542050 0.533750 0.111505
O1    O     O_R   0.389250 0.738570 0.508280 -0.641143
O2    O     O_R   0.678390 0.711630 0.486650 -0.632862
O3    O     O_R   0.355400 0.513470 0.694050 -0.644521
O4    O     O_R   0.644540 0.486530 0.672420 -0.504574
O5    O     O_R   0.321610 0.288370 0.513350 -0.642234
O6    O     O_R   0.610750 0.261430 0.491720 -0.602727
O7    O     O_R   0.355460 0.513470 0.327580 -0.648273
O8    O     O_R   0.644600 0.486530 0.305950 -0.633806
O9    O     O_3   0.965910 0.615829 0.633473 -0.504324
Zn1   Zn    Zn3+2 0.306930 0.517990 0.514440 0.964229
Zn2   Zn    Zn3+2 0.693070 0.482010 0.485560 1.009948

loop_
_geom_bond_atom_site_label_1
_geom_bond_atom_site_label_2
_ccdc_geom_bond_type
O3    Zn1   S    
C15   H11   S    
C6    C7    A    
C10   H3    S    
C2    C18   S    
C5    H8    S    
O6    Zn2   S    
C1    C17   S    
N2    Zn1   S    
O7    Zn1   S    
C11   H7    S    
C2    O6    A    
C8    C12   A    
C17   C18   D    
C9    O9    S    
C8    C16   A    
C7    H10   S    
C13   C14   A    
C4    H1    S    
O1    Zn1   S    
C1    O1    A    
C2    O5    A    
C9    C10   S    
N1    N2    D    
O4    Zn2   S    
N1    Zn2   S    
H14   N1    S    
O5    Zn1   S    
C5    C6    A    
C3    O7    A    
C18   H13   S    
C9    H2    S    
C4    C12   A    
C19   O3    A    
C11   H5    S    
C15   C16   A    
C14   Cl1   S    
C7    C8    A    
C6    H9    S    
C12   C13   A    
C10   C11   S    
O8    Zn2   S    
C9    H15   S    
C17   H12   S    
C1    O2    A    
C14   C15   A    
O2    Zn2   S    
C13   C19   S    
C11   H6    S    
C10   H4    S    
N2    O9    S    
C3    O8    A    
C3    C16   S    
C19   O4    A    
C4    C5    A    
