data_mof_unit_64202.cif
_audit_creation_date              2013-03-05T16:42:15-0500
_audit_creation_method            fapswitch 2.2
_symmetry_space_group_name_H-M    P1
_symmetry_Int_Tables_number       1
_space_group_crystal_system       triclinic
_cell_length_a                    15.893549
_cell_length_b                    17.777259
_cell_length_c                    16.558503
_cell_angle_alpha                 90.231101
_cell_angle_beta                  90.182112
_cell_angle_gamma                 92.136288
_cell_volume                      4675.18571938

loop_
_atom_site_label
_atom_site_type_symbol
_atom_site_description
_atom_site_fract_x
_atom_site_fract_y
_atom_site_fract_z
_atom_type_partial_charge
O1    O     O_R   0.499990 0.391240 0.567930 -0.534322
O2    O     O_R   0.500010 0.608760 0.432070 -0.534295
O3    O     O_R   0.500000 0.391270 0.432120 -0.514559
O4    O     O_R   0.500000 0.608730 0.567880 -0.514537
C1    C     C_R   0.503490 0.355382 0.499986 0.918627
C2    C     C_R   0.496509 0.644619 0.500014 0.918503
O5    O     O_R   0.379070 0.499980 0.567900 -0.567577
O6    O     O_R   0.620930 0.500020 0.432100 -0.567604
O7    O     O_R   0.379080 0.500010 0.432080 -0.543468
O8    O     O_R   0.620920 0.499990 0.567920 -0.543440
C3    C     C_R   0.339751 0.499772 0.499871 0.816310
C4    C     C_R   0.660249 0.500227 0.500128 0.816338
Cu1   Cu    Cu3+1 0.500000 0.499980 0.580420 1.132312
Cu2   Cu    Cu3+1 0.500000 0.500020 0.419580 1.132277
C5    C     C_3   0.969403 0.434239 0.528322 0.471718
C6    C     C_3   0.030596 0.565748 0.471676 0.471692
C7    C     C_3   0.025215 0.444027 0.452809 0.481424
C8    C     C_3   0.974784 0.555960 0.547189 0.481422
C9    C     C_1   0.250344 0.499753 0.499627 -0.007897
C10   C     C_1   0.749656 0.500241 0.500372 -0.007813
C11   C     C_3   0.027997 0.490103 0.575262 0.487710
C12   C     C_3   0.972002 0.509884 0.424736 0.487707
C13   C     C_3   0.083648 0.499887 0.499745 -0.477065
C14   C     C_3   0.916351 0.500100 0.500254 -0.477075
C15   C     C_1   0.175007 0.499786 0.499592 0.324684
C16   C     C_1   0.824992 0.500204 0.500407 0.324700
C17   C     C_R   0.507789 0.847177 0.572157 0.617282
C18   C     C_R   0.492011 0.152807 0.427924 0.617258
C19   C     C_R   0.505177 0.768801 0.572346 0.555930
C20   C     C_R   0.494625 0.231181 0.427706 0.555883
C21   C     C_R   0.490819 0.727754 0.499982 -0.382703
C22   C     C_R   0.509176 0.272249 0.500023 -0.382687
C23   C     C_R   0.473226 0.767863 0.428021 0.291978
C24   C     C_R   0.526956 0.232166 0.571955 0.291967
C25   C     C_R   0.477650 0.846640 0.428916 -0.225469
C26   C     C_R   0.522531 0.153389 0.571094 -0.225422
H1    H     H_    0.464986 0.877429 0.374077 0.240004
H2    H     H_    0.535341 0.122618 0.625911 0.239992
C27   C     C_R   0.495344 0.885890 0.500349 -0.197619
C28   C     C_R   0.504650 0.114116 0.499713 -0.197608
C29   C     C_1   0.498612 0.966275 0.500097 0.188410
C30   C     C_1   0.501385 0.033729 0.499989 0.188378
C31   C     C_R   0.565867 0.533064 0.830646 -0.307619
C32   C     C_R   0.434117 0.467007 0.169339 -0.307642
H3    H     H_    0.618465 0.559430 0.863204 0.241326
H4    H     H_    0.381498 0.440685 0.136771 0.241369
C33   C     C_R   0.565810 0.533244 0.745209 0.475787
C34   C     C_R   0.434160 0.466817 0.254775 0.475665
N1    N     N_R   0.499980 0.499970 0.701220 -0.313336
N2    N     N_R   0.500020 0.500030 0.298780 -0.313291
C35   C     C_R   0.434744 0.465038 0.743787 0.344293
C36   C     C_R   0.565294 0.534916 0.256217 0.344259
C37   C     C_R   0.433347 0.465498 0.829461 0.562060
C38   C     C_R   0.566699 0.534460 0.170543 0.562060
C39   C     C_R   0.499295 0.499762 0.873838 -0.134710
C40   C     C_R   0.500724 0.500256 0.126157 -0.134708
C41   C     C_1   0.499729 0.499910 0.962950 0.197221
C42   C     C_1   0.500298 0.500111 0.037045 0.197225
F1    F     F_    0.051501 0.386201 0.404029 -0.492184
F2    F     F_    0.948498 0.613786 0.595969 -0.492203
N3    N     N_R   0.367219 0.425555 0.702851 0.179375
O9    O     O_R   0.290818 0.448052 0.711764 -0.225311
O10   O     O_R   0.378178 0.357845 0.675959 -0.269470
N4    N     N_R   0.632857 0.574346 0.297154 0.179381
O11   O     O_R   0.709243 0.551827 0.288194 -0.225264
O12   O     O_R   0.621940 0.642034 0.324134 -0.269444
F3    F     F_    0.368146 0.430703 0.869042 -0.552915
F4    F     F_    0.631938 0.569205 0.130970 -0.552900
F5    F     F_    0.937568 0.366291 0.557618 -0.501060
F6    F     F_    0.062431 0.633697 0.442381 -0.501090
F7    F     F_    0.942824 0.520115 0.346956 -0.484199
F8    F     F_    0.057175 0.479872 0.653043 -0.484210
F9    F     F_    0.522762 0.885403 0.642250 -0.556082
F10   F     F_    0.476845 0.114557 0.357879 -0.556099
F11   F     F_    0.516356 0.733681 0.643900 -0.541343
F12   F     F_    0.483241 0.266279 0.356174 -0.541296
N5    N     N_R   0.446401 0.730312 0.354926 0.179756
O13   O     O_R   0.475343 0.753794 0.285686 -0.248923
O14   O     O_R   0.381117 0.683900 0.355961 -0.293862
N6    N     N_R   0.553969 0.269748 0.644971 0.179729
O15   O     O_R   0.525246 0.246268 0.714294 -0.248968
O16   O     O_R   0.619199 0.316214 0.643752 -0.293933
N7    N     N_R   0.637992 0.566764 0.706391 0.161863
O17   O     O_R   0.712370 0.543338 0.724178 -0.264240
O18   O     O_R   0.632166 0.630358 0.668870 -0.232114
N8    N     N_R   0.361939 0.433340 0.293573 0.161905
O19   O     O_R   0.287570 0.456697 0.275634 -0.264205
O20   O     O_R   0.367747 0.369831 0.331261 -0.232003

loop_
_geom_bond_atom_site_label_1
_geom_bond_atom_site_label_2
_geom_bond_distance
_ccdc_geom_bond_type
C17   C19   1.392394 A    
C8    C11   1.541998 S    
C29   C30   1.198321 T    
C37   C39   1.397675 A    
C35   N3    1.428030 S    
C18   F10   1.358437 S    
C33   N1    1.385894 A    
N5    O13   1.301246 A    
O5    C3    1.286370 A    
C3    C9    1.420983 S    
C7    C13   1.540468 S    
C8    C14   1.540467 S    
C25   H1    1.084313 S    
C14   C16   1.452101 S    
N8    O20   1.298347 A    
C38   F4    1.358616 S    
C18   C28   1.393506 A    
O4    Cu1   1.945227 S    
N3    O10   1.299741 A    
C24   N6    1.435722 S    
C17   C27   1.393479 A    
N1    C35   1.384787 A    
N2    C36   1.384853 A    
C21   C23   1.423382 A    
C33   N7    1.428701 S    
C24   C26   1.399592 A    
O7    C3    1.286508 A    
C1    C22   1.483997 S    
C28   C30   1.428093 S    
C2    C21   1.484046 S    
Cu1   Cu2   2.663273 S    
O2    C2    1.293238 A    
C37   F3    1.358608 S    
C36   C38   1.418877 A    
N5    O14   1.301552 A    
C5    F5    1.382448 S    
C38   C40   1.397638 A    
C11   F8    1.382489 S    
C26   C28   1.393434 A    
C6    F6    1.382448 S    
O4    C2    1.296531 A    
C36   N4    1.428043 S    
N8    O19   1.301195 A    
C34   N8    1.428747 S    
O6    Cu2   1.932500 S    
C35   C37   1.418873 A    
N4    O12   1.299752 A    
C25   C27   1.393412 A    
O7    Cu2   1.933609 S    
C20   F12   1.355728 S    
C32   C40   1.393879 A    
N7    O17   1.301185 A    
O5    Cu1   1.932500 S    
O6    C4    1.286368 A    
C4    C10   1.420983 S    
C31   H3    1.084015 S    
O3    Cu2   1.945228 S    
O8    C4    1.286508 A    
C7    F1    1.382457 S    
Cu1   N1    2.000267 S    
C31   C39   1.393918 A    
C5    C14   1.540551 S    
N7    O18   1.298377 A    
C6    C13   1.540551 S    
C39   C41   1.475552 S    
O1    C1    1.293236 A    
O1    Cu1   1.943295 S    
C26   H2    1.084304 S    
C12   F7    1.382489 S    
C8    F2    1.382459 S    
C5    C7    1.542039 S    
C6    C12   1.542028 S    
N6    O15   1.301246 A    
O3    C1    1.296519 A    
O8    Cu1   1.933609 S    
C19   F11   1.355755 S    
C7    C12   1.542001 S    
N4    O11   1.301191 A    
C11   C13   1.540628 S    
C18   C20   1.392363 A    
C19   C21   1.413899 A    
C20   C22   1.413861 A    
C23   N5    1.435728 S    
C41   C42   1.226893 T    
Cu2   N2    2.000271 S    
C10   C16   1.197384 T    
C34   N2    1.385939 A    
C23   C25   1.399601 A    
N6    O16   1.301533 A    
C40   C42   1.475553 S    
C12   C14   1.540629 S    
C13   C15   1.452102 S    
N3    O9    1.301189 A    
O2    Cu2   1.943293 S    
C9    C15   1.197385 T    
C5    C11   1.542030 S    
C27   C29   1.428063 S    
C6    C8    1.542037 S    
C17   F9    1.358443 S    
C31   C33   1.414710 A    
C32   H4    1.084013 S    
C32   C34   1.414711 A    
C22   C24   1.423376 A    
