data_mof_unit_50931.cif
_audit_creation_date              2012-12-11T15:30:41-0500
_audit_creation_method            fapswitch 2.2
_symmetry_space_group_name_H-M    P1
_symmetry_Int_Tables_number       1
_space_group_crystal_system       triclinic
_cell_length_a                    7.04157
_cell_length_b                    20.504957
_cell_length_c                    24.234978
_cell_angle_alpha                 90.082448
_cell_angle_beta                  89.456255
_cell_angle_gamma                 89.765441
_cell_volume                      3499.02723527

loop_
_atom_site_label
_atom_site_type_symbol
_atom_type_description
_atom_site_fract_x
_atom_site_fract_y
_atom_site_fract_z
_atom_type_partial_charge
O1    O     O_R   0.507310 0.423620 0.460450 -0.533497
O2    O     O_R   0.170760 0.556060 0.437190 -0.536530
O3    O     O_R   0.004040 0.576380 0.539550 -0.538628
C1    C     C_R   0.340010 0.575887 0.421452 0.724245
O4    O     O_R   0.177350 0.422870 0.454070 -0.536687
O5    O     O_R   0.010680 0.442240 0.556560 -0.533674
C2    C     C_R   0.346706 0.398740 0.444204 0.693395
O6    O     O_R   0.500670 0.557760 0.443440 -0.532433
O7    O     O_3   0.340380 0.506510 0.533610 -0.370509
V1    V     V_3+5 0.064130 0.498790 0.493770 1.400954
O8    O     O_R   0.681170 0.443940 0.562810 -0.535999
C3    C     C_R   0.848789 0.424177 0.578655 0.731293
O9    O     O_R   0.674570 0.577130 0.545930 -0.534067
C4    C     C_R   0.841341 0.601784 0.556087 0.692487
V2    V     V_3+5 0.564560 0.501210 0.506230 1.405210
O10   O     O_3   0.838170 0.493490 0.466390 -0.366396
C5    C     C_R   0.983005 0.838088 0.909633 -0.120224
C6    C     C_R   0.838903 0.665302 0.586227 -0.089224
C7    C     C_R   0.084440 0.725086 0.895526 0.171830
C8    C     C_R   0.047013 0.778230 0.931843 0.126720
C9    C     C_R   0.939199 0.841628 0.853250 -0.237118
C10   C     C_R   0.982539 0.789376 0.816504 0.011467
C11   C     C_R   0.085070 0.735537 0.837384 0.036870
C12   C     C_R   0.928614 0.788656 0.759752 0.035470
C13   C     C_R   0.996922 0.737925 0.723815 0.002372
C14   C     C_R   0.155295 0.700676 0.742028 0.124711
C15   C     C_R   0.193812 0.696943 0.799514 0.142690
C16   C     C_R   0.802613 0.835607 0.738375 -0.163308
C17   C     C_R   0.740006 0.832051 0.684408 -0.201248
C18   C     C_R   0.787154 0.778809 0.651051 0.103760
C19   C     C_R   0.910299 0.729418 0.670538 0.093978
C20   C     C_R   0.703368 0.773654 0.599188 -0.189263
C21   C     C_R   0.726681 0.717809 0.566604 0.133505
C22   C     C_R   0.927884 0.671440 0.638087 -0.272937
H1    H     H_    0.999636 0.628980 0.654270 0.137129
H2    H     H_    0.643546 0.869447 0.669786 0.121482
H3    H     H_    0.885252 0.887616 0.838367 0.111573
H4    H     H_    0.745628 0.875088 0.762914 0.122082
H5    H     H_    0.612625 0.812759 0.584572 0.118695
C23   C     C_3   0.721307 0.227739 0.784852 0.018226
C24   C     C_3   0.060949 0.272426 0.801180 -0.056381
C25   C     C_3   0.999062 0.326192 0.758694 -0.038644
H6    H     H_    0.620572 0.317292 0.746674 0.136357
H7    H     H_    0.676307 0.258055 0.820395 0.154289
H8    H     H_    0.209848 0.259329 0.789856 0.130320
H9    H     H_    0.892440 0.357044 0.780692 0.123736
C26   C     C_1   0.855006 0.378991 0.624618 -0.215930
C27   C     C_3   0.937164 0.208818 0.792608 0.190032
C28   C     C_3   0.697785 0.272702 0.733119 -0.449386
C29   C     C_3   0.891673 0.293162 0.708889 0.204319
C30   C     C_3   0.996249 0.228413 0.689172 0.031709
C31   C     C_3   0.008322 0.177873 0.737518 -0.393848
C32   C     C_1   0.865581 0.340671 0.662723 -0.055746
C33   C     C_1   0.959754 0.161044 0.838591 -0.029847
C34   C     C_1   0.969538 0.122096 0.876218 -0.217467
H10   H     H_    0.929448 0.132680 0.729168 0.172198
H11   H     H_    0.157287 0.161128 0.741799 0.118271
H12   H     H_    0.612916 0.249989 0.700202 0.167791
H13   H     H_    0.144194 0.242208 0.680078 0.099156
C35   C     C_3   0.606734 0.715688 0.275092 -0.376942
C36   C     C_3   0.268875 0.694474 0.245152 -0.402255
C37   C     C_3   0.282817 0.748420 0.199953 -0.420580
H14   H     H_    0.661531 0.665169 0.270040 0.149329
H15   H     H_    0.119191 0.689189 0.258986 0.146364
H16   H     H_    0.312048 0.646263 0.228143 0.159873
H17   H     H_    0.295604 0.726076 0.158305 0.141922
H18   H     H_    0.154745 0.777452 0.197421 0.172833
C38   C     C_1   0.472278 0.879956 0.125025 -0.197773
C39   C     C_3   0.393558 0.712347 0.295145 0.215728
C40   C     C_3   0.631685 0.756247 0.219528 0.267774
C41   C     C_3   0.443745 0.797171 0.212128 0.220827
C42   C     C_3   0.394484 0.832077 0.269797 0.007129
C43   C     C_3   0.324366 0.781610 0.313784 0.010277
C44   C     C_1   0.459302 0.842909 0.163971 -0.068243
C45   C     C_1   0.369209 0.662424 0.339623 -0.046269
C46   C     C_1   0.352587 0.622492 0.376441 -0.205323
H19   H     H_    0.166208 0.781859 0.314943 0.147535
H20   H     H_    0.525372 0.849257 0.288393 0.183616
H21   H     H_    0.693124 0.737524 0.308417 0.130812
C47   C     C_R   0.465650 0.162487 0.086977 -0.087409
C48   C     C_R   0.357457 0.337743 0.412451 -0.034212
C49   C     C_R   0.433204 0.280707 0.087247 0.144384
C50   C     C_R   0.452148 0.221227 0.058746 -0.161324
C51   C     C_R   0.458682 0.161464 0.144461 -0.219555
C52   C     C_R   0.434944 0.219600 0.175646 0.084172
C53   C     C_R   0.425539 0.279751 0.146214 0.076828
C54   C     C_R   0.419392 0.219732 0.234981 0.040187
C55   C     C_R   0.401978 0.279959 0.264313 0.055693
C56   C     C_R   0.396743 0.338142 0.233421 -0.168095
C57   C     C_R   0.407438 0.337939 0.176304 -0.212610
C58   C     C_R   0.417317 0.161318 0.265677 -0.226188
C59   C     C_R   0.400848 0.160340 0.323175 0.123970
C60   C     C_R   0.384556 0.219775 0.352606 0.108953
C61   C     C_R   0.387303 0.280203 0.323461 0.051053
C62   C     C_R   0.365557 0.220244 0.410759 -0.165050
C63   C     C_R   0.351811 0.278416 0.440054 -0.179891
C64   C     C_R   0.375374 0.338860 0.354907 -0.197354
H22   H     H_    0.400765 0.384878 0.156153 0.115736
H23   H     H_    0.381169 0.386499 0.336427 0.088120
H24   H     H_    0.337744 0.277118 0.484614 0.101541
H25   H     H_    0.456569 0.219384 0.014168 0.117198
H26   H     H_    0.471967 0.114072 0.163035 0.098791
H27   H     H_    0.381066 0.385577 0.251920 0.117321
H28   H     H_    0.423973 0.114453 0.245884 0.123869
H29   H     H_    0.360362 0.175899 0.434658 0.124494
O11   O     O_R   0.323590 0.942280 0.056590 -0.533354
O12   O     O_R   0.647030 0.077140 0.045940 -0.536773
O13   O     O_R   0.813570 0.057750 0.943430 -0.535980
C65   C     C_R   0.477653 0.101336 0.055633 0.706350
O14   O     O_R   0.653510 0.943950 0.062820 -0.535676
O15   O     O_R   0.820100 0.923600 0.960440 -0.538674
C66   C     C_R   0.484304 0.924331 0.078614 0.722494
O16   O     O_R   0.317060 0.076430 0.039590 -0.533297
O17   O     O_3   0.483830 0.993520 0.966410 -0.370661
V3    V     V_3+5 0.760140 0.001200 0.006230 1.406458
O18   O     O_R   0.149560 0.922820 0.954030 -0.534163
C67   C     C_R   0.982461 0.898851 0.943277 0.709228
O19   O     O_R   0.143080 0.056020 0.937150 -0.537635
C68   C     C_R   0.975521 0.076119 0.921574 0.727377
V4    V     V_3+5 0.259690 0.998730 0.993720 1.409680
O20   O     O_3   0.986120 0.006480 0.033580 -0.365752
C69   C     C_3   0.367461 0.659128 0.818721 -0.770718
H30   H     H_    0.497386 0.675559 0.796803 0.212812
H31   H     H_    0.400854 0.667303 0.862661 0.217110
H32   H     H_    0.347156 0.606185 0.811320 0.204172
C70   C     C_3   0.078023 0.297687 0.861821 -0.356427
C71   C     C_3   0.893064 0.313498 0.892710 -0.776139
H33   H     H_    0.802171 0.347650 0.869252 0.213401
H34   H     H_    0.814358 0.268188 0.902653 0.224005
H35   H     H_    0.927581 0.337249 0.932570 0.220412
H36   H     H_    0.155359 0.260834 0.886578 0.179074
H37   H     H_    0.168091 0.341921 0.862431 0.176891
C72   C     C_3   0.154991 0.377520 0.744068 -0.364212
C73   C     C_3   0.295141 0.359038 0.698356 -0.763732
H38   H     H_    0.349666 0.309794 0.705728 0.210024
H39   H     H_    0.229998 0.360824 0.657025 0.234780
H40   H     H_    0.415557 0.393853 0.698137 0.217710
H41   H     H_    0.084505 0.423742 0.731455 0.182554
H42   H     H_    0.237386 0.389538 0.781474 0.175057
C74   C     C_3   0.929608 0.198813 0.632853 -0.318832
C75   C     C_3   0.779421 0.144786 0.634553 -0.767804
H43   H     H_    0.845603 0.097335 0.645433 0.214152
H44   H     H_    0.662374 0.155299 0.663856 0.221528
H45   H     H_    0.717393 0.139073 0.592868 0.210738
H46   H     H_    0.877945 0.237722 0.605017 0.179616
H47   H     H_    0.056088 0.177717 0.611375 0.163306
C76   C     C_3   0.582036 0.168692 0.783260 -0.355742
C77   C     C_3   0.486381 0.155161 0.839044 -0.774719
H48   H     H_    0.591102 0.140599 0.870467 0.240809
H49   H     H_    0.409936 0.199093 0.854042 0.207847
H50   H     H_    0.382563 0.114952 0.834480 0.227002
H51   H     H_    0.466752 0.178343 0.753633 0.168827
H52   H     H_    0.653100 0.123301 0.769170 0.188097
C78   C     C_3   0.659317 0.706428 0.169596 -0.353166
C79   C     C_3   0.849190 0.669930 0.165787 -0.825218
H53   H     H_    0.963116 0.702423 0.150854 0.228868
H54   H     H_    0.887386 0.647418 0.205605 0.229789
H55   H     H_    0.837665 0.630074 0.134917 0.221621
H56   H     H_    0.552101 0.667254 0.171159 0.189012
H57   H     H_    0.639498 0.732312 0.129762 0.174615
C80   C     C_3   0.386273 0.800637 0.372630 -0.846101
H58   H     H_    0.542091 0.795736 0.377706 0.214171
H59   H     H_    0.345038 0.851947 0.381542 0.223790
H60   H     H_    0.313601 0.769505 0.403574 0.220804
C81   C     C_3   0.621830 0.715565 0.512266 -0.363706
C82   C     C_3   0.409402 0.704491 0.522012 -0.689899
H61   H     H_    0.385111 0.658903 0.545660 0.239263
H62   H     H_    0.345568 0.745991 0.545225 0.208183
H63   H     H_    0.336099 0.700266 0.481926 0.192064
H64   H     H_    0.642079 0.762441 0.490009 0.167881
H65   H     H_    0.678731 0.677143 0.484324 0.177394
C83   C     C_3   0.812346 0.801380 0.220231 -0.329120
C84   C     C_3   0.807264 0.873583 0.238279 -0.840209
H66   H     H_    0.682849 0.901724 0.224507 0.239913
H67   H     H_    0.822593 0.877981 0.283689 0.214821
H68   H     H_    0.925690 0.899659 0.218358 0.229013
H69   H     H_    0.916205 0.777209 0.247244 0.182416
H70   H     H_    0.867760 0.804076 0.177220 0.196913
C85   C     C_3   0.271352 0.894258 0.266955 -0.843245
H71   H     H_    0.354271 0.937297 0.280649 0.207563
H72   H     H_    0.226331 0.904949 0.224449 0.227658
H73   H     H_    0.146199 0.891346 0.294789 0.229062
C86   C     C_3   0.400992 0.094048 0.351264 -0.359839
C87   C     C_3   0.199176 0.071895 0.364922 -0.758640
H74   H     H_    0.126738 0.107008 0.393027 0.226030
H75   H     H_    0.115592 0.067407 0.326455 0.232138
H76   H     H_    0.203931 0.023486 0.385360 0.213626
H77   H     H_    0.467329 0.056493 0.324008 0.173338
H78   H     H_    0.490031 0.094452 0.388792 0.168728
C88   C     C_3   0.418807 0.345104 0.055716 -0.352622
C89   C     C_3   0.423074 0.340586 0.992620 -0.793803
H79   H     H_    0.559430 0.319035 0.977946 0.229338
H80   H     H_    0.301695 0.311252 0.977629 0.228267
H81   H     H_    0.410583 0.390296 0.974859 0.220277
H82   H     H_    0.283360 0.369611 0.067600 0.178885
H83   H     H_    0.538445 0.376912 0.068198 0.177514
C90   C     C_3   0.091646 0.656327 0.918428 -0.816574
H84   H     H_    0.962748 0.647099 0.943904 0.201614
H85   H     H_    0.089840 0.618862 0.885393 0.219533
H86   H     H_    0.219368 0.648907 0.944080 0.212511
C91   C     C_3   0.077209 0.771383 0.993794 -0.351513
C92   C     C_3   0.287784 0.774872 0.008121 -0.735220
H87   H     H_    0.369057 0.734923 0.987865 0.216974
H88   H     H_    0.348426 0.822178 0.994674 0.234393
H89   H     H_    0.304709 0.770371 0.053462 0.201927
H90   H     H_    0.000928 0.810191 0.017191 0.161078
H91   H     H_    0.016777 0.725054 0.009489 0.180355
C93   C     C_3   0.300669 0.673980 0.700891 -0.765435
H92   H     H_    0.443848 0.693350 0.709829 0.218460
H93   H     H_    0.304260 0.619887 0.702527 0.203970
H94   H     H_    0.275637 0.690379 0.658056 0.212738

loop_
_geom_bond_atom_site_label_1
_geom_bond_atom_site_label_2
_ccdc_geom_bond_type
C83   H69   S    
C81   H65   S    
C54   C55   A    
C35   H21   S    
C13   C19   A    
C88   C89   S    
V3    O20   S    
C54   C58   A    
C79   H54   S    
C51   H26   S    
C24   C25   S    
C4    C6    S    
O2    C1    A    
C62   C63   A    
C77   H50   S    
C58   H28   S    
C1    O6    A    
C73   H40   S    
C71   H34   S    
C80   H58   S    
C34   C68   S    
C52   C53   A    
C87   H74   S    
C27   C33   S    
C17   H2    S    
C14   C15   A    
C81   C82   S    
C92   H88   S    
C37   H18   S    
C25   C72   S    
C35   C39   S    
O13   V3    S    
C9    C10   A    
C16   C17   A    
C77   H49   S    
C8    C91   S    
C55   C56   A    
C3    C26   S    
O5    C3    A    
C18   C19   A    
C38   C44   T    
V2    O10   S    
C5    C8    A    
C30   C31   S    
O18   C67   A    
C22   H1    S    
C38   C66   S    
C20   H5    S    
C90   H85   S    
C40   C83   S    
O19   C68   A    
C43   C80   S    
C62   H29   S    
C76   C77   S    
C64   H23   S    
O8    V2    S    
C7    C8    A    
C93   H92   S    
C92   H89   S    
C47   C65   S    
C42   H20   S    
C91   H90   S    
C12   C13   A    
C39   C43   S    
C40   C41   S    
O1    V2    S    
C11   C15   A    
O7    V1    S    
C23   H7    S    
C93   H94   S    
C65   O16   A    
C26   C32   T    
C85   H73   S    
C30   C74   S    
C84   H67   S    
V4    O20   S    
C72   H41   S    
C60   C62   A    
O1    C2    A    
O9    C4    A    
C49   C88   S    
C79   H55   S    
C82   H62   S    
C47   C51   A    
O12   C65   A    
O13   C68   A    
C90   H84   S    
C47   C50   A    
C86   H78   S    
C80   H59   S    
C15   C69   S    
O17   V3    S    
O19   V4    S    
C52   C54   A    
C70   H37   S    
C55   C61   A    
C7    C90   S    
C29   C32   S    
C92   H87   S    
C37   H17   S    
C31   H10   S    
C89   H79   S    
C51   C52   A    
C53   C57   A    
C75   H45   S    
C74   H47   S    
C58   C59   A    
O4    C2    A    
C48   C63   A    
H6    C28   S    
O11   C66   A    
C61   C64   A    
C13   C14   A    
C84   H66   S    
C14   C93   S    
C49   C50   A    
C5    C9    A    
C28   H12   S    
O18   V4    S    
C90   H86   S    
C7    C11   A    
C45   C46   T    
C89   H80   S    
C86   C87   S    
C78   H57   S    
C17   C18   A    
O16   V4    S    
O15   V3    S    
O9    V2    S    
C35   C40   S    
C29   C30   S    
C91   H91   S    
C19   C22   A    
C9    H3    S    
C60   C61   A    
C74   C75   S    
C6    C22   A    
O12   V3    S    
C78   C79   S    
O3    C4    A    
C88   H82   S    
C25   C29   S    
C2    C48   S    
C71   H35   S    
C72   H42   S    
O6    V2    S    
C35   H14   S    
C25   H9    S    
C82   H61   S    
C10   C12   A    
C30   H13   S    
C69   H31   S    
C71   H33   S    
O2    V1    S    
C80   H60   S    
C78   H56   S    
C83   C84   S    
C84   H68   S    
C83   H70   S    
C81   H64   S    
C23   C27   S    
C56   C57   A    
C33   C34   T    
C43   H19   S    
C50   H25   S    
C23   C76   S    
O11   V4    S    
C40   C78   S    
C24   C70   S    
C21   C81   S    
C12   C16   A    
C42   C43   S    
C59   C86   S    
C74   H46   S    
O5    V1    S    
C41   C44   S    
C73   H39   S    
O8    C3    A    
C73   H38   S    
C5    C67   S    
C87   H76   S    
O15   C67   A    
C36   C39   S    
C20   C21   A    
C69   H32   S    
C75   H44   S    
C76   H51   S    
O7    V2    S    
C89   H81   S    
O4    V1    S    
O3    V1    S    
C49   C53   A    
C86   H77   S    
C56   H27   S    
C36   H15   S    
C18   C20   A    
C88   H83   S    
C72   C73   S    
C48   C64   A    
C70   H36   S    
C70   C71   S    
C63   H24   S    
C59   C60   A    
C24   C27   S    
C87   H75   S    
C37   C41   S    
C39   C45   S    
C77   H48   S    
C36   C37   S    
C76   H52   S    
C6    C21   A    
O14   C66   A    
C1    C46   S    
C31   H11   S    
C85   H71   S    
C36   H16   S    
C27   C31   S    
C41   C42   S    
C91   C92   S    
C82   H63   S    
C93   H93   S    
C28   C29   S    
C79   H53   S    
C69   H30   S    
C24   H8    S    
C10   C11   A    
V1    O10   S    
C42   C85   S    
C16   H4    S    
C75   H43   S    
O14   V3    S    
C57   H22   S    
O17   V4    S    
C23   C28   S    
C85   H72   S    
