data_mof_unit_61745.cif
_audit_creation_date              2012-12-10T17:01:05-0500
_audit_creation_method            fapswitch 2.2
_symmetry_space_group_name_H-M    P1
_symmetry_Int_Tables_number       1
_space_group_crystal_system       triclinic
_cell_length_a                    21.803595
_cell_length_b                    21.803082
_cell_length_c                    30.088774
_cell_angle_alpha                 90.000094
_cell_angle_beta                  89.999908
_cell_angle_gamma                 90.00121
_cell_volume                      14303.7689657

loop_
_atom_site_label
_atom_site_type_symbol
_atom_type_description
_atom_site_fract_x
_atom_site_fract_y
_atom_site_fract_z
_atom_type_partial_charge
C1    C     C_R   0.500000 0.118169 0.499995 0.789004
C2    C     C_R   0.118169 0.500000 0.499999 0.789328
C3    C     C_R   0.500000 0.881831 0.499996 0.789012
C4    C     C_R   0.881831 0.499999 0.499999 0.789312
C5    C     C_R   0.000000 0.618168 0.999999 0.789006
C6    C     C_R   0.618169 0.000001 0.999996 0.789316
C7    C     C_R   1.000000 0.381831 0.999999 0.789009
C8    C     C_R   0.381831 0.999999 0.999996 0.789313
C9    C     C_R   0.582426 0.275692 0.607065 -0.270241
C10   C     C_R   0.275680 0.417570 0.607069 -0.270402
C11   C     C_R   0.417572 0.724307 0.607064 -0.270237
C12   C     C_R   0.724317 0.582440 0.607061 -0.270402
C13   C     C_R   0.582432 0.724298 0.392935 -0.270301
C14   C     C_R   0.275686 0.582426 0.392929 -0.270415
C15   C     C_R   0.417581 0.275705 0.392929 -0.270185
C16   C     C_R   0.724318 0.417556 0.392933 -0.270407
C17   C     C_R   0.082429 0.775696 0.107065 -0.270244
C18   C     C_R   0.775677 0.917554 0.107059 -0.270448
C19   C     C_R   0.917578 0.224302 0.107067 -0.270233
C20   C     C_R   0.224324 0.082444 0.107063 -0.270397
C21   C     C_R   0.082421 0.224302 0.892931 -0.270246
C22   C     C_R   0.775689 0.082430 0.892928 -0.270375
C23   C     C_R   0.917577 0.775699 0.892934 -0.270276
C24   C     C_R   0.224310 0.917571 0.892929 -0.270384
C25   C     C_R   0.570991 0.307152 0.566978 0.447164
C26   C     C_R   0.307148 0.429000 0.566982 0.447128
C27   C     C_R   0.429005 0.692848 0.566977 0.447174
C28   C     C_R   0.692852 0.571006 0.566974 0.447169
C29   C     C_R   0.571005 0.692845 0.433027 0.447114
C30   C     C_R   0.307152 0.571000 0.433017 0.447142
C31   C     C_R   0.429009 0.307158 0.433019 0.447145
C32   C     C_R   0.692850 0.428988 0.433020 0.447071
C33   C     C_R   0.070997 0.807153 0.066977 0.447141
C34   C     C_R   0.807145 0.928991 0.066973 0.447147
C35   C     C_R   0.929009 0.192846 0.066978 0.447169
C36   C     C_R   0.192854 0.071006 0.066978 0.447131
C37   C     C_R   0.070994 0.192846 0.933020 0.447136
C38   C     C_R   0.807153 0.071003 0.933017 0.447107
C39   C     C_R   0.929004 0.807153 0.933025 0.447148
C40   C     C_R   0.192846 0.928998 0.933018 0.447127
C41   C     C_R   0.531272 0.280103 0.534552 -0.042236
C42   C     C_R   0.280103 0.468722 0.534554 -0.042217
C43   C     C_R   0.468724 0.719897 0.534551 -0.042265
C44   C     C_R   0.719897 0.531279 0.534550 -0.042216
C45   C     C_R   0.531279 0.719895 0.465447 -0.042171
C46   C     C_R   0.280104 0.531278 0.465446 -0.042199
C47   C     C_R   0.468724 0.280106 0.465445 -0.042249
C48   C     C_R   0.719896 0.468715 0.465446 -0.042185
C49   C     C_R   0.031276 0.780103 0.034553 -0.042243
C50   C     C_R   0.780101 0.968720 0.034549 -0.042184
C51   C     C_R   0.968727 0.219896 0.034553 -0.042238
C52   C     C_R   0.219898 0.031281 0.034551 -0.042218
C53   C     C_R   0.031275 0.219896 0.965446 -0.042223
C54   C     C_R   0.780105 0.031281 0.965444 -0.042208
C55   C     C_R   0.968725 0.780103 0.965448 -0.042205
C56   C     C_R   0.219895 0.968721 0.965445 -0.042194
C57   C     C_R   0.522429 0.216118 0.537223 0.001998
C58   C     C_R   0.216119 0.477566 0.537224 0.001970
C59   C     C_R   0.477567 0.783882 0.537223 0.002021
C60   C     C_R   0.783881 0.522436 0.537221 0.001986
C61   C     C_R   0.522434 0.783879 0.462772 0.002048
C62   C     C_R   0.216120 0.522435 0.462775 0.001997
C63   C     C_R   0.477567 0.216121 0.462771 0.002059
C64   C     C_R   0.783881 0.477559 0.462775 0.001957
C65   C     C_R   0.022432 0.716119 0.037225 0.002027
C66   C     C_R   0.716118 0.977564 0.037220 0.001949
C67   C     C_R   0.977570 0.283880 0.037225 0.002026
C68   C     C_R   0.283882 0.022437 0.037221 0.001955
C69   C     C_R   0.022431 0.283880 0.962773 0.002040
C70   C     C_R   0.716120 0.022437 0.962773 0.001997
C71   C     C_R   0.977569 0.716120 0.962774 0.002043
C72   C     C_R   0.283879 0.977564 0.962773 0.001995
C73   C     C_R   0.499998 0.313184 0.500000 -0.203075
C74   C     C_R   0.313184 0.500000 0.500000 -0.202935
C75   C     C_R   0.500001 0.686816 0.500000 -0.203066
C76   C     C_R   0.686816 0.499997 0.499998 -0.202972
C77   C     C_R   0.000001 0.813184 0.000000 -0.203070
C78   C     C_R   0.813183 0.000002 0.999998 -0.202957
C79   C     C_R   0.000001 0.186816 1.000000 -0.203069
C80   C     C_R   0.186816 0.000000 0.999999 -0.202959
C81   C     C_R   0.499999 0.184549 0.499996 -0.121398
C82   C     C_R   0.184549 0.500001 0.500000 -0.121645
C83   C     C_R   0.499999 0.815451 0.499996 -0.121423
C84   C     C_R   0.815451 0.499998 0.499998 -0.121603
C85   C     C_R   0.000001 0.684548 0.999999 -0.121410
C86   C     C_R   0.684549 0.000002 0.999996 -0.121616
C87   C     C_R   0.999999 0.315451 0.999999 -0.121418
C88   C     C_R   0.315451 0.999999 0.999997 -0.121611
C89   C     C_R   0.380813 0.500000 0.500000 0.946455
C90   C     C_R   0.499999 0.619186 0.500000 0.946494
C91   C     C_R   0.619187 0.499998 0.500000 0.946505
C92   C     C_R   0.500000 0.380814 0.500000 0.946440
C93   C     C_R   0.880813 0.000002 1.000000 0.946503
C94   C     C_R   0.000000 0.119186 1.000000 0.946455
C95   C     C_R   0.119187 0.000000 1.000000 0.946475
C96   C     C_R   0.000001 0.880813 0.000000 0.946501
C97   C     C_R   0.500000 0.000000 0.585577 0.777286
C98   C     C_R   1.000000 0.500000 0.585589 0.777473
C99   C     C_R   0.500000 0.000000 0.414431 0.777234
C100  C     C_R   1.000000 0.500000 0.414414 0.777454
C101  C     C_R   1.000000 0.500000 0.085574 0.777261
C102  C     C_R   0.500000 0.000000 0.085591 0.777497
C103  C     C_R   0.000000 0.500000 0.914428 0.777244
C104  C     C_R   0.500000 1.000000 0.914417 0.777428
C105  C     C_R   0.461859 0.040713 0.843037 -0.231293
C106  C     C_R   0.960315 0.460786 0.843083 -0.231448
C107  C     C_R   0.538141 0.959287 0.843037 -0.231294
C108  C     C_R   0.039685 0.539214 0.843083 -0.231449
C109  C     C_R   0.462664 0.958547 0.156997 -0.231157
C110  C     C_R   0.960098 0.538991 0.156926 -0.231425
C111  C     C_R   0.537336 0.041453 0.156997 -0.231158
C112  C     C_R   0.039901 0.461009 0.156925 -0.231423
C113  C     C_R   0.962166 0.540998 0.343024 -0.231241
C114  C     C_R   0.460572 0.960528 0.343095 -0.231488
C115  C     C_R   0.037833 0.459001 0.343024 -0.231239
C116  C     C_R   0.539429 0.039472 0.343095 -0.231488
C117  C     C_R   0.962395 0.458790 0.656986 -0.231206
C118  C     C_R   0.459807 0.038690 0.656939 -0.231377
C119  C     C_R   0.037606 0.541209 0.656986 -0.231206
C120  C     C_R   0.540193 0.961311 0.656938 -0.231377
C121  C     C_R   0.500000 1.000000 0.866090 -0.054345
C122  C     C_R   0.000000 0.500000 0.866122 -0.053112
C123  C     C_R   0.500000 0.000000 0.133934 -0.055251
C124  C     C_R   1.000000 0.500000 0.133884 -0.053363
C125  C     C_R   1.000000 0.500000 0.366081 -0.054692
C126  C     C_R   0.500000 1.000000 0.366130 -0.052819
C127  C     C_R   0.000000 0.500000 0.633926 -0.054950
C128  C     C_R   0.500000 0.000000 0.633893 -0.053705
C129  C     C_R   0.538995 0.959515 0.796643 0.124020
C130  C     C_R   0.039423 0.540075 0.796690 0.124468
C131  C     C_R   0.461005 0.040485 0.796643 0.124021
C132  C     C_R   0.960578 0.459925 0.796690 0.124468
C133  C     C_R   0.538184 0.041250 0.203392 0.123684
C134  C     C_R   0.039645 0.460150 0.203319 0.124371
C135  C     C_R   0.461816 0.958750 0.203392 0.123684
C136  C     C_R   0.960354 0.539850 0.203319 0.124372
C137  C     C_R   0.038684 0.459220 0.296630 0.123895
C138  C     C_R   0.539158 0.040333 0.296702 0.124572
C139  C     C_R   0.961314 0.540780 0.296630 0.123891
C140  C     C_R   0.460843 0.959666 0.296702 0.124572
C141  C     C_R   0.038456 0.540998 0.703380 0.123802
C142  C     C_R   0.539947 0.960453 0.703332 0.124244
C143  C     C_R   0.961544 0.459001 0.703380 0.123797
C144  C     C_R   0.460053 0.039547 0.703332 0.124245
C145  C     C_R   0.500000 0.000000 0.773324 0.077682
C146  C     C_R   0.000000 0.500000 0.773370 0.077086
C147  C     C_R   0.500000 1.000000 0.226711 0.078062
C148  C     C_R   1.000000 0.500000 0.226639 0.077223
C149  C     C_R   0.999999 0.500000 0.273310 0.077833
C150  C     C_R   0.500000 1.000000 0.273382 0.076936
C151  C     C_R   0.000000 0.500000 0.726700 0.077935
C152  C     C_R   0.500000 0.000000 0.726652 0.077393
C153  C     C_R   0.578161 0.920111 0.773182 -0.194411
C154  C     C_R   0.077743 0.580305 0.773231 -0.193780
C155  C     C_R   0.421839 0.079889 0.773182 -0.194412
C156  C     C_R   0.922257 0.419695 0.773231 -0.193781
C157  C     C_R   0.576551 0.081436 0.226854 -0.194821
C158  C     C_R   0.078193 0.420141 0.226779 -0.193926
C159  C     C_R   0.423450 0.918563 0.226854 -0.194823
C160  C     C_R   0.921806 0.579858 0.226779 -0.193937
C161  C     C_R   0.077545 0.419513 0.273168 -0.194564
C162  C     C_R   0.577208 0.080817 0.273243 -0.193621
C163  C     C_R   0.922454 0.580486 0.273168 -0.194581
C164  C     C_R   0.422793 0.919182 0.273243 -0.193622
C165  C     C_R   0.077092 0.580928 0.726842 -0.194686
C166  C     C_R   0.578803 0.920744 0.726793 -0.194113
C167  C     C_R   0.922909 0.419071 0.726842 -0.194688
C168  C     C_R   0.421197 0.079257 0.726793 -0.194114
C169  C     C_R   0.537128 0.184596 0.576902 -0.203125
C170  C     C_R   0.184593 0.462869 0.576901 -0.202935
C171  C     C_R   0.462869 0.815404 0.576902 -0.203120
C172  C     C_R   0.815405 0.537136 0.576898 -0.202945
C173  C     C_R   0.537133 0.815397 0.423091 -0.203257
C174  C     C_R   0.184596 0.537128 0.423097 -0.202971
C175  C     C_R   0.462869 0.184603 0.423089 -0.203274
C176  C     C_R   0.815406 0.462857 0.423099 -0.202973
C177  C     C_R   0.037131 0.684598 0.076905 -0.203175
C178  C     C_R   0.684592 0.962862 0.076896 -0.202891
C179  C     C_R   0.962873 0.315401 0.076906 -0.203179
C180  C     C_R   0.315409 0.037140 0.076896 -0.202893
C181  C     C_R   0.037126 0.315400 0.923091 -0.203210
C182  C     C_R   0.684597 0.037134 0.923094 -0.203029
C183  C     C_R   0.962873 0.684601 0.923092 -0.203211
C184  C     C_R   0.315402 0.962867 0.923095 -0.203032
C185  C     C_R   0.564076 0.215154 0.612360 -0.025834
C186  C     C_R   0.215142 0.435919 0.612360 -0.025845
C187  C     C_R   0.435922 0.784846 0.612360 -0.025843
C188  C     C_R   0.784854 0.564090 0.612355 -0.025853
C189  C     C_R   0.564078 0.784834 0.387635 -0.025753
C190  C     C_R   0.215148 0.564075 0.387638 -0.025831
C191  C     C_R   0.435929 0.215167 0.387631 -0.025800
C192  C     C_R   0.784856 0.435904 0.387642 -0.025800
C193  C     C_R   0.064078 0.715158 0.112363 -0.025812
C194  C     C_R   0.715140 0.935903 0.112351 -0.025843
C195  C     C_R   0.935929 0.284840 0.112364 -0.025823
C196  C     C_R   0.284862 0.064097 0.112353 -0.025858
C197  C     C_R   0.064069 0.284839 0.887633 -0.025791
C198  C     C_R   0.715151 0.064081 0.887636 -0.025810
C199  C     C_R   0.935930 0.715163 0.887635 -0.025786
C200  C     C_R   0.284847 0.935921 0.887636 -0.025812
Cu1   Cu    Cu3+1 0.438180 0.000000 0.500000 0.952057
Cu2   Cu    Cu3+1 0.000000 0.561820 0.500000 0.951536
Cu3   Cu    Cu3+1 0.561820 0.000000 0.500000 0.952059
Cu4   Cu    Cu3+1 1.000000 0.438180 0.500000 0.951542
Cu5   Cu    Cu3+1 0.938180 0.500000 0.000000 0.952069
Cu6   Cu    Cu3+1 0.500000 0.061820 0.000000 0.951550
Cu7   Cu    Cu3+1 0.061820 0.500000 0.000000 0.952072
Cu8   Cu    Cu3+1 0.500000 0.938180 0.000000 0.951548
Cu9   Cu    Cu3+1 0.500000 0.500000 0.455560 1.064047
Cu10  Cu    Cu3+1 0.500000 0.500000 0.544440 1.064134
Cu11  Cu    Cu3+1 0.000000 0.000000 0.955560 1.064059
Cu12  Cu    Cu3+1 0.000000 0.000000 0.044440 1.064105
H1    H     H_    0.432109 0.071636 0.861292 0.142429
H2    H     H_    0.930200 0.430230 0.861352 0.141393
H3    H     H_    0.567890 0.928364 0.861292 0.142432
H4    H     H_    0.069800 0.569769 0.861352 0.141391
H5    H     H_    0.433521 0.927041 0.138753 0.143194
H6    H     H_    0.929813 0.569379 0.138660 0.141618
H7    H     H_    0.566479 0.072959 0.138753 0.143191
H8    H     H_    0.070186 0.430621 0.138660 0.141613
H9    H     H_    0.932648 0.572146 0.361275 0.142735
H10   H     H_    0.430657 0.929779 0.361367 0.141134
H11   H     H_    0.067351 0.427853 0.361275 0.142715
H12   H     H_    0.569343 0.070220 0.361367 0.141136
H13   H     H_    0.933049 0.427476 0.638738 0.142935
H14   H     H_    0.429293 0.068851 0.638677 0.141915
H15   H     H_    0.066952 0.572523 0.638738 0.142935
H16   H     H_    0.570708 0.931149 0.638676 0.141910
H17   H     H_    0.608417 0.888977 0.790718 0.144233
H18   H     H_    0.108040 0.611403 0.790767 0.144137
H19   H     H_    0.391583 0.111023 0.790718 0.144232
H20   H     H_    0.891961 0.388596 0.790767 0.144137
H21   H     H_    0.606176 0.113173 0.209318 0.144289
H22   H     H_    0.108665 0.389218 0.209242 0.144158
H23   H     H_    0.393825 0.886826 0.209318 0.144291
H24   H     H_    0.891334 0.610781 0.209243 0.144162
H25   H     H_    0.107560 0.388147 0.290704 0.144252
H26   H     H_    0.607294 0.112116 0.290780 0.144114
H27   H     H_    0.892438 0.611852 0.290704 0.144261
H28   H     H_    0.392707 0.887883 0.290780 0.144114
H29   H     H_    0.106929 0.612467 0.709307 0.144266
H30   H     H_    0.609513 0.890057 0.709256 0.144188
H31   H     H_    0.893072 0.387532 0.709307 0.144267
H32   H     H_    0.390488 0.109944 0.709257 0.144190
H33   H     H_    0.526528 0.136392 0.580983 0.139837
H34   H     H_    0.136390 0.473473 0.580980 0.140002
H35   H     H_    0.473469 0.863608 0.580983 0.139835
H36   H     H_    0.863607 0.526532 0.580979 0.140007
H37   H     H_    0.526534 0.863601 0.419008 0.139678
H38   H     H_    0.136393 0.526525 0.419017 0.139959
H39   H     H_    0.473464 0.136399 0.419007 0.139685
H40   H     H_    0.863609 0.473460 0.419019 0.139965
H41   H     H_    0.026531 0.636394 0.080986 0.139776
H42   H     H_    0.636389 0.973466 0.080976 0.140054
H43   H     H_    0.973472 0.363605 0.080987 0.139777
H44   H     H_    0.363612 0.026537 0.080975 0.140056
H45   H     H_    0.026527 0.363604 0.919010 0.139730
H46   H     H_    0.636394 0.026532 0.919014 0.139907
H47   H     H_    0.973473 0.636397 0.919010 0.139729
H48   H     H_    0.363605 0.973470 0.919014 0.139907
H49   H     H_    0.607431 0.297864 0.633590 0.148116
H50   H     H_    0.297841 0.392569 0.633600 0.148116
H51   H     H_    0.392568 0.702135 0.633591 0.148116
H52   H     H_    0.702154 0.607445 0.633590 0.148112
H53   H     H_    0.607433 0.702127 0.366409 0.148092
H54   H     H_    0.297849 0.607425 0.366397 0.148093
H55   H     H_    0.392583 0.297882 0.366403 0.148099
H56   H     H_    0.702156 0.392554 0.366403 0.148087
H57   H     H_    0.107433 0.797868 0.133591 0.148114
H58   H     H_    0.797836 0.892546 0.133587 0.148108
H59   H     H_    0.892575 0.202129 0.133593 0.148115
H60   H     H_    0.202164 0.107449 0.133592 0.148109
H61   H     H_    0.107420 0.202129 0.866403 0.148093
H62   H     H_    0.797853 0.107429 0.866397 0.148089
H63   H     H_    0.892576 0.797872 0.866407 0.148092
H64   H     H_    0.202145 0.892571 0.866399 0.148091
O1    O     O_R   0.447800 0.090110 0.500010 -0.584187
O2    O     O_R   0.090110 0.552200 0.500010 -0.584173
O3    O     O_R   0.552200 0.909890 0.500010 -0.584186
O4    O     O_R   0.909890 0.447800 0.500010 -0.584174
O5    O     O_R   0.447800 0.909890 0.499990 -0.584187
O6    O     O_R   0.090110 0.447800 0.499990 -0.584175
O7    O     O_R   0.552200 0.090110 0.499990 -0.584187
O8    O     O_R   0.909890 0.552200 0.499990 -0.584176
O9    O     O_R   0.947800 0.590110 0.000010 -0.584185
O10   O     O_R   0.590110 0.052200 0.000010 -0.584172
O11   O     O_R   0.052200 0.409890 0.000010 -0.584185
O12   O     O_R   0.409890 0.947800 0.000010 -0.584171
O13   O     O_R   0.947800 0.409890 0.999990 -0.584188
O14   O     O_R   0.590110 0.947800 0.999990 -0.584178
O15   O     O_R   0.052200 0.590110 0.999990 -0.584189
O16   O     O_R   0.409890 0.052200 0.999990 -0.584178
O17   O     O_R   0.447790 0.999910 0.564880 -0.583839
O18   O     O_R   0.999910 0.552210 0.564880 -0.584119
O19   O     O_R   0.552210 0.000090 0.564880 -0.583835
O20   O     O_R   0.000090 0.447790 0.564880 -0.584117
O21   O     O_R   0.447790 0.000090 0.435120 -0.583609
O22   O     O_R   0.999910 0.447790 0.435120 -0.584047
O23   O     O_R   0.552210 0.999910 0.435120 -0.583609
O24   O     O_R   0.000090 0.552210 0.435120 -0.584054
O25   O     O_R   0.947790 0.499910 0.064880 -0.583752
O26   O     O_R   0.499910 0.052210 0.064880 -0.584197
O27   O     O_R   0.052210 0.500090 0.064880 -0.583749
O28   O     O_R   0.500090 0.947790 0.064880 -0.584198
O29   O     O_R   0.947790 0.500090 0.935120 -0.583681
O30   O     O_R   0.499910 0.947790 0.935120 -0.583963
O31   O     O_R   0.052210 0.499910 0.935120 -0.583681
O32   O     O_R   0.500090 0.052210 0.935120 -0.583962
O33   O     O_R   0.409850 0.499950 0.462440 -0.548583
O34   O     O_R   0.499950 0.590150 0.462440 -0.548692
O35   O     O_R   0.590150 0.500050 0.462440 -0.548640
O36   O     O_R   0.500050 0.409850 0.462440 -0.548694
O37   O     O_R   0.409850 0.500050 0.537560 -0.548591
O38   O     O_R   0.499950 0.409850 0.537560 -0.548681
O39   O     O_R   0.590150 0.499950 0.537560 -0.548600
O40   O     O_R   0.500050 0.590150 0.537560 -0.548673
O41   O     O_R   0.909850 0.999950 0.962440 -0.548624
O42   O     O_R   0.999950 0.090150 0.962440 -0.548678
O43   O     O_R   0.090150 0.000050 0.962440 -0.548616
O44   O     O_R   0.000050 0.909850 0.962440 -0.548679
O45   O     O_R   0.909850 0.000050 0.037560 -0.548599
O46   O     O_R   0.999950 0.909850 0.037560 -0.548696
O47   O     O_R   0.090150 0.999950 0.037560 -0.548603
O48   O     O_R   0.000050 0.090150 0.037560 -0.548677
C201  C     C_1   0.423807 0.183094 0.346698 0.241275
N1    N     N_1   0.414190 0.157226 0.313841 -0.263307
C202  C     C_1   0.183057 0.576197 0.346712 0.241789
N2    N     N_1   0.157167 0.585812 0.313864 -0.263474
C203  C     C_1   0.576200 0.816907 0.346701 0.241269
N3    N     N_1   0.585817 0.842775 0.313845 -0.263309
C204  C     C_1   0.816949 0.423774 0.346718 0.241757
N4    N     N_1   0.842839 0.414154 0.313871 -0.263470
C205  C     C_1   0.423796 0.816928 0.653289 0.241538
N5    N     N_1   0.414178 0.842808 0.686140 -0.263383
C206  C     C_1   0.183046 0.423791 0.653283 0.241847
N6    N     N_1   0.157152 0.414173 0.686129 -0.263492
C207  C     C_1   0.576202 0.183070 0.653288 0.241529
N7    N     N_1   0.585821 0.157191 0.686140 -0.263382
C208  C     C_1   0.816948 0.576222 0.653278 0.241856
N8    N     N_1   0.842840 0.585844 0.686124 -0.263492
C209  C     C_1   0.923810 0.683088 0.846702 0.241363
N9    N     N_1   0.914196 0.657217 0.813846 -0.263336
C210  C     C_1   0.683062 0.076206 0.846710 0.241691
N10   N     N_1   0.657176 0.085822 0.813861 -0.263441
C211  C     C_1   0.076188 0.316916 0.846701 0.241359
N11   N     N_1   0.085803 0.342788 0.813846 -0.263336
C212  C     C_1   0.316935 0.923797 0.846709 0.241696
N12   N     N_1   0.342820 0.914181 0.813860 -0.263442
C213  C     C_1   0.923806 0.316919 0.153294 0.241443
N13   N     N_1   0.914189 0.342794 0.186148 -0.263353
C214  C     C_1   0.683042 0.923766 0.153272 0.241916
N14   N     N_1   0.657146 0.914140 0.186115 -0.263517
C215  C     C_1   0.076203 0.683079 0.153292 0.241435
N15   N     N_1   0.085821 0.657204 0.186146 -0.263353
C216  C     C_1   0.316962 0.076234 0.153273 0.241910
N16   N     N_1   0.342859 0.085859 0.186116 -0.263514
O49   O     O_3   0.600213 0.362654 0.559009 -0.603398
C217  C     C_3   0.665011 0.356030 0.560379 0.022752
H65   H     H_    0.683835 0.374322 0.528840 0.162517
H66   H     H_    0.681365 0.307547 0.562462 0.129571
C218  C     C_3   0.691739 0.393687 0.598742 -0.310812
H67   H     H_    0.679892 0.442709 0.594100 0.236798
H68   H     H_    0.671714 0.378837 0.630845 0.207688
C219  C     C_3   0.761322 0.386781 0.601229 -0.912165
H69   H     H_    0.773638 0.338663 0.609421 0.253596
H70   H     H_    0.779801 0.417298 0.627570 0.258635
H71   H     H_    0.782756 0.399335 0.569025 0.265262
O50   O     O_3   0.362667 0.399801 0.559022 -0.603450
C220  C     C_3   0.356131 0.334997 0.560523 0.022727
H72   H     H_    0.374412 0.316082 0.529007 0.162367
H73   H     H_    0.307673 0.318587 0.562662 0.129599
C221  C     C_3   0.393871 0.308459 0.598912 -0.310531
H74   H     H_    0.442877 0.320312 0.594194 0.236781
H75   H     H_    0.379075 0.328621 0.630984 0.207643
C222  C     C_3   0.387007 0.238881 0.601569 -0.912687
H76   H     H_    0.338913 0.226574 0.609841 0.253697
H77   H     H_    0.417585 0.220536 0.627922 0.258343
H78   H     H_    0.399508 0.217312 0.569403 0.265309
O51   O     O_3   0.399784 0.637345 0.559008 -0.603402
C223  C     C_3   0.334986 0.643965 0.560383 0.022748
H79   H     H_    0.316159 0.625672 0.528845 0.162507
H80   H     H_    0.318630 0.692449 0.562467 0.129572
C224  C     C_3   0.308264 0.606309 0.598748 -0.310800
H81   H     H_    0.320110 0.557287 0.594104 0.236799
H82   H     H_    0.328294 0.621157 0.630850 0.207686
C225  C     C_3   0.238681 0.613215 0.601242 -0.912166
H83   H     H_    0.226366 0.661333 0.609435 0.253594
H84   H     H_    0.220207 0.582698 0.627585 0.258634
H85   H     H_    0.217241 0.600661 0.569041 0.265262
O52   O     O_3   0.637337 0.600210 0.559008 -0.603430
C226  C     C_3   0.643890 0.665014 0.560484 0.022805
H86   H     H_    0.625608 0.683911 0.528964 0.162448
H87   H     H_    0.692353 0.681413 0.562612 0.129582
C227  C     C_3   0.606167 0.691588 0.598869 -0.310607
H88   H     H_    0.557159 0.679735 0.594167 0.236783
H89   H     H_    0.620973 0.671451 0.630947 0.207644
C228  C     C_3   0.613038 0.761167 0.601497 -0.912640
H90   H     H_    0.661137 0.773476 0.609752 0.253697
H91   H     H_    0.582474 0.779536 0.627850 0.258325
H92   H     H_    0.600524 0.782713 0.569325 0.265316
O53   O     O_3   0.600218 0.637338 0.441001 -0.603438
C229  C     C_3   0.665018 0.643917 0.439553 0.022794
H93   H     H_    0.683897 0.625641 0.471081 0.162463
H94   H     H_    0.681400 0.692388 0.437431 0.129604
C230  C     C_3   0.691636 0.606207 0.401178 -0.310737
H95   H     H_    0.679788 0.557194 0.405869 0.236796
H96   H     H_    0.671529 0.621018 0.369092 0.207665
C231  C     C_3   0.761215 0.613093 0.398588 -0.912325
H97   H     H_    0.773522 0.661198 0.390346 0.253623
H98   H     H_    0.779614 0.582538 0.372241 0.258596
H99   H     H_    0.782731 0.600574 0.430770 0.265261
O54   O     O_3   0.362671 0.600199 0.440979 -0.603464
C232  C     C_3   0.356139 0.665003 0.439473 0.022789
H100  H     H_    0.374420 0.683924 0.470986 0.162377
H101  H     H_    0.307681 0.681414 0.437332 0.129610
C233  C     C_3   0.393879 0.691534 0.401080 -0.310506
H102  H     H_    0.442884 0.679681 0.405799 0.236777
H103  H     H_    0.379082 0.671365 0.369011 0.207595
C234  C     C_3   0.387019 0.761111 0.398414 -0.912903
H104  H     H_    0.338925 0.773417 0.390145 0.253789
H105  H     H_    0.417594 0.779450 0.372056 0.258059
H106  H     H_    0.399527 0.782689 0.430577 0.265356
O55   O     O_3   0.399782 0.362657 0.440988 -0.603395
C235  C     C_3   0.334984 0.356018 0.439631 0.022748
H107  H     H_    0.316171 0.374313 0.471173 0.162515
H108  H     H_    0.318639 0.307530 0.437557 0.129574
C236  C     C_3   0.308228 0.393660 0.401272 -0.310823
H109  H     H_    0.320079 0.442684 0.405900 0.236799
H110  H     H_    0.328228 0.378798 0.369163 0.207655
C237  C     C_3   0.238642 0.386749 0.398813 -0.912192
H111  H     H_    0.226319 0.338627 0.390638 0.253621
H112  H     H_    0.220142 0.417253 0.372472 0.258538
H113  H     H_    0.217232 0.399317 0.431022 0.265278
O56   O     O_3   0.637328 0.399794 0.440982 -0.603475
C238  C     C_3   0.643852 0.334989 0.439472 0.022813
H114  H     H_    0.625566 0.316067 0.470983 0.162372
H115  H     H_    0.692308 0.318574 0.437333 0.129612
C239  C     C_3   0.606112 0.308468 0.401075 -0.310507
H116  H     H_    0.557107 0.320320 0.405795 0.236770
H117  H     H_    0.620909 0.328644 0.369008 0.207594
C240  C     C_3   0.612973 0.238892 0.398400 -0.912910
H118  H     H_    0.661067 0.226588 0.390129 0.253789
H119  H     H_    0.582397 0.220559 0.372041 0.258064
H120  H     H_    0.600466 0.217307 0.430561 0.265356
O57   O     O_3   0.100216 0.862657 0.059006 -0.603410
C241  C     C_3   0.165014 0.856048 0.060401 0.022739
H121  H     H_    0.183855 0.874335 0.028864 0.162491
H122  H     H_    0.181377 0.807568 0.062496 0.129580
C242  C     C_3   0.191708 0.893723 0.098766 -0.310808
H123  H     H_    0.179861 0.942742 0.094108 0.236800
H124  H     H_    0.171658 0.878886 0.130865 0.207698
C243  C     C_3   0.261290 0.886823 0.101285 -0.912102
H125  H     H_    0.273603 0.838711 0.109498 0.253571
H126  H     H_    0.279744 0.917358 0.127625 0.258736
H127  H     H_    0.282749 0.899360 0.069087 0.265239
O58   O     O_3   0.862662 0.899793 0.059005 -0.603458
C244  C     C_3   0.856129 0.834990 0.060510 0.022791
H128  H     H_    0.874404 0.816070 0.028994 0.162403
H129  H     H_    0.807671 0.818578 0.062655 0.129600
C245  C     C_3   0.893875 0.808463 0.098899 -0.310534
H130  H     H_    0.942880 0.820314 0.094175 0.236781
H131  H     H_    0.879088 0.828638 0.130969 0.207636
C246  C     C_3   0.887010 0.738888 0.101572 -0.912788
H132  H     H_    0.838916 0.726585 0.109847 0.253733
H133  H     H_    0.917589 0.720553 0.127929 0.258242
H134  H     H_    0.899510 0.717304 0.069410 0.265332
O59   O     O_3   0.899786 0.137344 0.059008 -0.603403
C247  C     C_3   0.834988 0.143963 0.060388 0.022728
H135  H     H_    0.816157 0.125674 0.028850 0.162500
H136  H     H_    0.818632 0.192446 0.062477 0.129575
C248  C     C_3   0.808272 0.106300 0.098751 -0.310824
H137  H     H_    0.820121 0.057279 0.094104 0.236800
H138  H     H_    0.828305 0.121146 0.130854 0.207697
C249  C     C_3   0.738690 0.113203 0.101249 -0.912082
H139  H     H_    0.726374 0.161319 0.109448 0.253572
H140  H     H_    0.720220 0.082680 0.127590 0.258726
H141  H     H_    0.717249 0.100654 0.069047 0.265242
O60   O     O_3   0.137335 0.100204 0.059016 -0.603447
C250  C     C_3   0.143878 0.165008 0.060498 0.022779
H142  H     H_    0.125588 0.183909 0.028981 0.162403
H143  H     H_    0.192339 0.181414 0.062623 0.129591
C251  C     C_3   0.106156 0.191569 0.098888 -0.310555
H144  H     H_    0.057148 0.179715 0.094185 0.236778
H145  H     H_    0.120965 0.171425 0.130962 0.207629
C252  C     C_3   0.113024 0.261148 0.101525 -0.912747
H146  H     H_    0.161122 0.273458 0.109779 0.253731
H147  H     H_    0.082460 0.279508 0.127881 0.258225
H148  H     H_    0.100505 0.282701 0.069356 0.265335
O61   O     O_3   0.100213 0.137342 0.940989 -0.603419
C253  C     C_3   0.165012 0.143953 0.939592 0.022774
H149  H     H_    0.183855 0.125663 0.971127 0.162487
H150  H     H_    0.181375 0.192433 0.937499 0.129589
C254  C     C_3   0.191705 0.106283 0.901224 -0.310753
H151  H     H_    0.179854 0.057263 0.905878 0.236794
H152  H     H_    0.171656 0.121125 0.869126 0.207647
C255  C     C_3   0.261288 0.113181 0.898704 -0.912355
H153  H     H_    0.273605 0.161296 0.890503 0.253653
H154  H     H_    0.279740 0.082657 0.872357 0.258460
H155  H     H_    0.282747 0.100628 0.930899 0.265292
O62   O     O_3   0.862672 0.100203 0.940979 -0.603461
C256  C     C_3   0.856133 0.165006 0.939485 0.022790
H156  H     H_    0.874419 0.183918 0.971000 0.162388
H157  H     H_    0.807673 0.181413 0.937352 0.129606
C257  C     C_3   0.893862 0.191554 0.901093 -0.310540
H158  H     H_    0.942869 0.179702 0.905803 0.236777
H159  H     H_    0.879058 0.171398 0.869021 0.207605
C258  C     C_3   0.886997 0.261132 0.898443 -0.912815
H160  H     H_    0.838900 0.273438 0.890183 0.253762
H161  H     H_    0.917564 0.279483 0.872086 0.258146
H162  H     H_    0.899511 0.282697 0.930609 0.265343
O63   O     O_3   0.899784 0.862655 0.940999 -0.603421
C259  C     C_3   0.834986 0.856049 0.939590 0.022797
H163  H     H_    0.816134 0.874332 0.971124 0.162504
H164  H     H_    0.818620 0.807571 0.937488 0.129589
C260  C     C_3   0.808311 0.893731 0.901222 -0.310755
H165  H     H_    0.820161 0.942748 0.905886 0.236798
H166  H     H_    0.828375 0.878898 0.869127 0.207651
C261  C     C_3   0.738730 0.886835 0.898684 -0.912372
H167  H     H_    0.726416 0.838721 0.890475 0.253655
H168  H     H_    0.720291 0.917364 0.872336 0.258470
H169  H     H_    0.717256 0.899381 0.930876 0.265292
O64   O     O_3   0.137330 0.899796 0.940982 -0.603457
C262  C     C_3   0.143873 0.834993 0.939493 0.022793
H170  H     H_    0.125590 0.816084 0.971009 0.162401
H171  H     H_    0.192335 0.818589 0.937360 0.129605
C263  C     C_3   0.106145 0.808437 0.901103 -0.310553
H172  H     H_    0.057138 0.820288 0.905812 0.236775
H173  H     H_    0.120949 0.828588 0.869030 0.207606
C264  C     C_3   0.113013 0.738859 0.898459 -0.912809
H174  H     H_    0.161111 0.726553 0.890200 0.253763
H175  H     H_    0.082447 0.720502 0.872103 0.258144
H176  H     H_    0.100500 0.717299 0.930626 0.265344

loop_
_geom_bond_atom_site_label_1
_geom_bond_atom_site_label_2
_ccdc_geom_bond_type
C226  C227  S    
C236  H109  S    
O49   C217  S    
C93   O41   A    
C153  C166  A    
C130  C146  A    
C244  H128  S    
C95   O43   A    
C107  C129  A    
C53   C69   A    
C42   C58   A    
C207  N7    T    
C196  C216  S    
C193  C215  S    
C105  C131  A    
C179  C195  A    
C205  N5    T    
C106  C132  A    
C177  C193  A    
C46   C62   A    
C112  C124  A    
C58   C82   A    
C162  H26   S    
C258  H161  S    
C181  H45   S    
C22   C38   A    
C26   O50   S    
C221  H74   S    
C217  C218  S    
C64   C84   A    
C15   C191  A    
C75   C90   S    
C23   H63   S    
C56   C72   A    
C57   C169  A    
C180  C196  A    
C220  C221  S    
C143  C151  A    
C232  H101  S    
C108  C122  A    
C25   O49   S    
C59   C171  A    
C5    O15   A    
O50   C220  S    
C215  N15   T    
C43   C75   A    
C218  C219  S    
C135  C159  A    
Cu2   O8    S    
C246  H132  S    
C160  C163  A    
C71   C183  A    
C147  C150  A    
C72   C184  A    
C17   H57   S    
C25   C41   A    
C240  H120  S    
C19   H59   S    
C28   C44   A    
C255  H155  S    
C10   H50   S    
C47   C63   A    
C171  H35   S    
C40   O64   S    
C225  H84   S    
C1    O1    A    
C102  O26   A    
C218  H68   S    
Cu11  O42   S    
C3    O3    A    
C216  N16   T    
C4    C84   S    
C11   C27   A    
Cu12  O45   S    
C259  H163  S    
C61   C173  A    
C138  C162  A    
C148  C149  A    
C113  H9    S    
C197  C211  S    
C198  C210  S    
C98   C127  S    
C231  H98   S    
C251  H145  S    
C254  H152  S    
C35   C51   A    
C119  C141  A    
C244  C245  S    
Cu7   O31   S    
C225  H85   S    
C165  H29   S    
C253  H149  S    
C102  C123  S    
C163  H27   S    
C257  H158  S    
C115  H11   S    
C35   O59   S    
C241  H122  S    
Cu2   O2    S    
C21   C197  A    
C176  H40   S    
C222  H76   S    
C261  H167  S    
C251  C252  S    
C221  C222  S    
C173  H37   S    
C233  H102  S    
C228  H91   S    
C194  C214  S    
C109  H5    S    
C19   C35   A    
C230  H95   S    
C137  C161  A    
C249  H139  S    
C168  H32   S    
C186  C206  S    
C94   O48   A    
C131  C155  A    
C138  C150  A    
Cu5   O13   S    
O57   C241  S    
C237  H112  S    
C99   O23   A    
C227  H88   S    
C206  N6    T    
C8    O12   A    
C107  H3    S    
C24   C200  A    
Cu1   O17   S    
C187  C205  S    
C160  H24   S    
C27   O51   S    
C170  H34   S    
C182  H46   S    
Cu3   O19   S    
C103  O29   A    
Cu1   O21   S    
C157  C162  A    
C93   O45   A    
C90   O34   A    
Cu10  O40   S    
C223  H79   S    
C238  H115  S    
C213  N13   T    
C109  C135  A    
C7    O13   A    
C48   C76   A    
C110  C136  A    
C214  N14   T    
C260  C261  S    
C181  C197  A    
C96   O44   A    
C261  H169  S    
O53   C229  S    
C118  H14   S    
C236  H110  S    
O54   C232  S    
Cu12  O48   S    
C190  C202  S    
C5    C85   S    
C248  H138  S    
C114  C126  A    
C262  C263  S    
Cu12  O47   S    
C259  C260  S    
C36   O60   S    
O62   C256  S    
C12   H52   S    
Cu4   O6    S    
C44   C76   A    
Cu5   O25   S    
C115  C137  A    
O58   C244  S    
C184  C200  A    
C94   O42   A    
C154  C165  A    
C133  C147  A    
C114  C140  A    
C64   C176  A    
C38   O62   S    
C108  C130  A    
C241  C242  S    
C257  C258  S    
C43   C59   A    
C37   C53   A    
C256  H156  S    
Cu1   Cu3   S    
C153  H17   S    
C111  H7    S    
Cu9   O34   S    
C97   C128  S    
C96   O46   A    
C70   C182  A    
C264  H174  S    
C99   C126  S    
Cu5   Cu7   S    
C106  H2    S    
C188  C208  S    
C39   C55   A    
C101  C124  S    
C233  C234  S    
C79   C94   S    
C230  C231  S    
Cu3   O3    S    
C1    O7    A    
C109  C123  A    
C242  H124  S    
C8    C88   S    
C6    O14   A    
C217  H66   S    
Cu6   O16   S    
C252  H146  S    
C99   O21   A    
C142  C166  A    
C18   C34   A    
C156  H20   S    
C175  H39   S    
Cu8   O14   S    
C106  C122  A    
C255  H154  S    
Cu9   Cu10  S    
C112  H8    S    
C130  C154  A    
C51   C67   A    
C231  H97   S    
C80   C95   S    
Cu4   O22   S    
C143  C167  A    
C136  C148  A    
C90   O40   A    
Cu10  O38   S    
C223  C224  S    
Cu11  O43   S    
C235  H107  S    
C134  C158  A    
C135  C147  A    
C263  H173  S    
C260  H165  S    
C18   H58   S    
C26   C42   A    
C33   O57   S    
C229  H93   S    
C24   H64   S    
C222  H78   S    
C226  H87   S    
C189  C203  S    
C159  H23   S    
C30   C46   A    
C73   C92   S    
C243  H125  S    
C21   H61   S    
C2    O2    A    
C262  H170  S    
C15   C31   A    
C178  H42   S    
C140  C164  A    
C36   C52   A    
C77   C96   S    
C141  C165  A    
C56   C80   A    
C219  H71   S    
C139  C163  A    
C224  C225  S    
C144  C152  A    
C228  H90   S    
C158  H22   S    
C129  C153  A    
C65   C177  A    
C132  C156  A    
C221  H75   S    
Cu4   O20   S    
C5    O9    A    
O60   C250  S    
C51   C79   A    
C145  C152  A    
C7    O11   A    
O64   C262  S    
C76   C91   S    
C41   C73   A    
C146  C151  A    
C14   C190  A    
Cu3   O7    S    
C247  H135  S    
C6    O10   A    
C242  H123  S    
C256  C257  S    
C69   C181  A    
C159  C164  A    
C240  H119  S    
O63   C259  S    
C220  H73   S    
C119  C127  A    
C232  H100  S    
C244  H129  S    
C250  H142  S    
O56   C238  S    
C250  C251  S    
C9    C25   A    
O51   C223  S    
C2    O6    A    
C178  C194  A    
C184  H48   S    
Cu2   Cu4   S    
C12   C28   A    
C97   O17   A    
C13   C29   A    
C234  H105  S    
C192  C204  S    
C59   C83   A    
C252  H148  S    
C15   H55   S    
Cu7   O11   S    
Cu6   Cu8   S    
Cu8   O12   S    
C161  H25   S    
C33   C49   A    
Cu2   O18   S    
C264  H176  S    
C3    C83   S    
C142  C152  A    
C195  C213  S    
C239  H116  S    
C158  C161  A    
C110  C124  A    
Cu11  O41   S    
C235  C236  S    
C7    C87   S    
C234  H104  S    
Cu12  O46   S    
C40   C56   A    
C259  H164  S    
C117  C143  A    
C246  H134  S    
C120  H16   S    
C69   C87   A    
C8    O16   A    
C62   C82   A    
C31   C47   A    
C254  H151  S    
C32   C48   A    
C17   C33   A    
C243  H127  S    
C50   C78   A    
C191  C201  S    
C257  H159  S    
C42   C74   A    
C111  C123  A    
C34   O58   S    
C226  H86   S    
C47   C73   A    
C61   C83   A    
C29   O53   S    
Cu7   O15   S    
C212  N12   T    
Cu6   O26   S    
C258  H162  S    
Cu1   O1    S    
C199  C209  S    
C139  C149  A    
C104  O30   A    
Cu5   O9    S    
C239  C240  S    
Cu8   O30   S    
C116  H12   S    
C248  H137  S    
C66   C86   A    
C239  H117  S    
C249  H140  S    
C208  N8    T    
C38   C54   A    
C247  C248  S    
C155  C168  A    
C242  C243  S    
C234  H106  S    
C1    C81   S    
C114  H10   S    
C63   C175  A    
C117  C127  A    
C237  H113  S    
C108  H4    S    
C227  H89   S    
C174  C190  A    
C63   C81   A    
C232  C233  S    
C183  H47   S    
C166  H30   S    
C228  H92   S    
C16   C32   A    
C107  C121  A    
C100  O22   A    
C177  H41   S    
C249  H141  S    
C223  H80   S    
C24   C40   A    
C53   C79   A    
C97   O19   A    
C22   C198  A    
C98   O20   A    
C260  H166  S    
C227  C228  S    
C13   H53   S    
C261  H168  S    
C120  C128  A    
O52   C226  S    
C245  C246  S    
Cu2   O24   S    
C132  C146  A    
C30   O54   S    
C225  H83   S    
C41   C57   A    
C202  N2    T    
C67   C179  A    
C262  H171  S    
C32   O56   S    
C44   C60   A    
C115  C125  A    
C45   C61   A    
C219  H70   S    
C201  N1    T    
C169  C185  A    
C20   C36   A    
C27   C43   A    
C21   C37   A    
C245  H130  S    
C251  H144  S    
C254  C255  S    
C29   C45   A    
Cu4   O4    S    
C169  H33   S    
C52   C80   A    
C103  C122  S    
C253  C254  S    
C22   H62   S    
C233  H103  S    
C54   C78   A    
C62   C174  A    
C210  N10   T    
C19   C195  A    
C241  H121  S    
C203  N3    T    
C17   C193  A    
C182  C198  A    
Cu9   O33   S    
C204  N4    T    
C180  H44   S    
C119  H15   S    
C258  H160  S    
C253  H150  S    
C209  N9    T    
C219  H69   S    
C66   C178  A    
C117  H13   S    
C104  O32   A    
C49   C65   A    
C144  C168  A    
C11   C187  A    
C74   C89   S    
C58   C170  A    
C31   O55   S    
C9    C185  A    
C230  H96   S    
C175  C191  A    
C55   C77   A    
C23   C39   A    
C176  C192  A    
C113  C125  A    
C172  H36   S    
C78   C93   S    
C12   C188  A    
C23   C199  A    
C13   C189  A    
C155  H19   S    
C237  H111  S    
C16   C192  A    
C48   C64   A    
C10   C186  A    
C71   C85   A    
Cu11  Cu12  S    
C49   C77   A    
C54   C70   A    
C164  H28   S    
C55   C71   A    
C11   H51   S    
C100  O24   A    
O61   C253  S    
C20   H60   S    
C133  C157  A    
C52   C68   A    
Cu10  O39   S    
C238  C239  S    
C10   C26   A    
C235  H108  S    
C116  C126  A    
C154  H18   S    
C263  C264  S    
C170  C186  A    
C98   O18   A    
C118  C128  A    
C14   C30   A    
C72   C88   A    
C229  H94   S    
C222  H77   S    
C4    O8    A    
C236  C237  S    
C92   O38   A    
C34   C50   A    
C105  H1    S    
C100  C125  S    
C60   C172  A    
Cu7   O27   S    
C120  C142  A    
C18   C194  A    
Cu8   O28   S    
C243  H126  S    
C248  C249  S    
Cu1   O5    S    
O55   C235  S    
C91   O39   A    
C174  H38   S    
C95   O47   A    
C104  C121  S    
C156  C167  A    
C68   C180  A    
C183  C199  A    
C9    H49   S    
C136  C160  A    
C131  C145  A    
C224  H82   S    
C229  C230  S    
C89   O37   A    
O59   C247  S    
C231  H99   S    
C113  C139  A    
C105  C121  A    
C37   O61   S    
C50   C66   A    
C16   H56   S    
C28   O52   S    
C137  C149  A    
C247  H136  S    
C103  O31   A    
C256  H157  S    
C68   C88   A    
C57   C81   A    
Cu9   O35   S    
C118  C144  A    
C70   C86   A    
C116  C138  A    
C140  C150  A    
C6    C86   S    
C46   C74   A    
C141  C151  A    
C220  H72   S    
C92   O36   A    
C200  C212  S    
C101  O25   A    
Cu6   O10   S    
C111  C133  A    
C245  H131  S    
C89   O33   A    
C250  H143  S    
C65   C85   A    
C91   O35   A    
C134  C148  A    
C218  H67   S    
C67   C87   A    
Cu9   O36   S    
C171  C187  A    
C45   C75   A    
C179  H43   S    
C252  H147  S    
Cu3   O23   S    
C60   C84   A    
Cu6   O32   S    
C157  H21   S    
C240  H118  S    
C172  C188  A    
C4    O4    A    
C173  C189  A    
C255  H153  S    
C264  H175  S    
C129  C145  A    
C217  H65   S    
C110  H6    S    
C185  C207  S    
C101  O27   A    
C2    C82   S    
Cu10  O37   S    
C102  O28   A    
C238  H114  S    
C14   H54   S    
Cu11  O44   S    
C3    O5    A    
C39   O63   S    
C246  H133  S    
C263  H172  S    
C211  N11   T    
C112  C134  A    
C20   C196  A    
Cu5   O29   S    
C224  H81   S    
C167  H31   S    
