data_mof_unit_16828.cif
_audit_creation_date              2012-10-26T21:25:51-0400
_audit_creation_method            fapswitch 2.2
_symmetry_space_group_name_H-M    P1
_symmetry_Int_Tables_number       1
_space_group_crystal_system       triclinic
_cell_length_a                    10.82865
_cell_length_b                    10.86193
_cell_length_c                    12.718414
_cell_angle_alpha                 93.034585
_cell_angle_beta                  93.102095
_cell_angle_gamma                 89.977968
_cell_volume                      1491.64912313

loop_
_atom_site_label
_atom_site_type_symbol
_atom_type_description
_atom_site_fract_x
_atom_site_fract_y
_atom_site_fract_z
_atom_type_partial_charge
C1    C     C_R   0.261946 0.495549 0.500460 0.569057
C2    C     C_R   0.810411 0.734125 0.357455 -0.112210
C3    C     C_R   0.129517 0.377036 0.668612 0.021868
C4    C     C_R   0.870483 0.622963 0.331388 0.021867
C5    C     C_R   0.123485 0.417124 0.775001 -0.138572
C6    C     C_R   0.876512 0.582872 0.224998 -0.138570
C7    C     C_R   0.177592 0.347038 0.854213 -0.066076
C8    C     C_R   0.822405 0.652958 0.145786 -0.066076
C9    C     C_R   0.236567 0.235994 0.827763 0.407825
C10   C     C_R   0.763432 0.764002 0.172235 0.407824
C11   C     C_R   0.938406 0.456512 0.583824 -0.090611
C12   C     C_R   0.738054 0.504451 0.499540 0.569057
C13   C     C_R   0.061594 0.543488 0.416175 -0.090612
C14   C     C_R   0.871811 0.506997 0.499364 0.016976
C15   C     C_R   0.128189 0.493002 0.500636 0.016976
C16   C     C_R   0.503790 0.261888 0.500823 0.577439
C17   C     C_R   0.496210 0.738112 0.499177 0.577439
C18   C     C_R   0.933839 0.553389 0.415322 -0.012355
C19   C     C_R   0.066161 0.446611 0.584677 -0.012354
C20   C     C_2   0.470322 0.461608 0.030567 -0.091419
C21   C     C_2   0.529678 0.538392 0.969433 -0.091420
C22   C     C_1   0.523304 0.526358 0.852984 0.194000
C23   C     C_R   0.494346 0.871723 0.497855 0.029155
C24   C     C_1   0.476695 0.473641 0.147016 0.194000
C25   C     C_R   0.788059 0.237945 0.775099 -0.105901
C26   C     C_R   0.211940 0.762056 0.224902 -0.105901
C27   C     C_R   0.728343 0.187093 0.682390 0.351420
C28   C     C_R   0.271656 0.812908 0.317611 0.351419
C29   C     C_R   0.613281 0.127971 0.686385 -0.031824
C30   C     C_R   0.386718 0.872029 0.313615 -0.031824
C31   C     C_R   0.560720 0.118947 0.784357 -0.163650
C32   C     C_R   0.439279 0.881052 0.215643 -0.163650
C33   C     C_R   0.619303 0.172507 0.876192 0.455099
C34   C     C_R   0.505654 0.128277 0.502145 0.029155
C35   C     C_R   0.380696 0.827492 0.123809 0.455099
C36   C     C_R   0.732874 0.232318 0.871509 0.375901
C37   C     C_R   0.267124 0.767682 0.128492 0.375902
C38   C     C_R   0.545356 0.938096 0.587091 -0.138685
C39   C     C_R   0.454644 0.061904 0.412909 -0.138685
C40   C     C_R   0.447430 0.934263 0.409516 0.019921
C41   C     C_R   0.552570 0.065736 0.590484 0.019921
C42   C     C_R   0.242221 0.195405 0.721920 -0.063614
C43   C     C_R   0.757780 0.804594 0.278078 -0.063615
C44   C     C_R   0.189590 0.265875 0.642544 -0.112208
Cu1   Cu    Cu3+1 0.492140 0.492110 0.395880 1.042265
Cu2   Cu    Cu3+1 0.507860 0.507890 0.604120 1.042265
F1    F     F_    0.790859 0.282801 0.960709 -0.587367
F2    F     F_    0.209139 0.717199 0.039292 -0.587365
F3    F     F_    0.784185 0.191841 0.589686 -0.627486
F4    F     F_    0.215814 0.808161 0.410315 -0.627485
F5    F     F_    0.567095 0.163962 0.970082 -0.517609
F6    F     F_    0.432903 0.836037 0.029918 -0.517609
F7    F     F_    0.286789 0.167007 0.904828 -0.573717
F8    F     F_    0.713209 0.832989 0.095169 -0.573717
H1    H     H_    0.076480 0.502093 0.796422 0.160764
H2    H     H_    0.806536 0.767300 0.439054 0.128968
H3    H     H_    0.172625 0.378258 0.936119 0.163675
H4    H     H_    0.827371 0.621735 0.063879 0.163675
H5    H     H_    0.878185 0.280110 0.772960 0.148470
H6    H     H_    0.121813 0.719891 0.227041 0.148471
H7    H     H_    0.475191 0.068975 0.789789 0.199314
H8    H     H_    0.524809 0.931023 0.210211 0.199313
H9    H     H_    0.285774 0.108595 0.700963 0.139352
H10   H     H_    0.714228 0.891405 0.299035 0.139353
H11   H     H_    0.923517 0.497902 0.203578 0.160765
H12   H     H_    0.890058 0.420361 0.647593 0.155962
H13   H     H_    0.109941 0.579638 0.352406 0.155961
H14   H     H_    0.584545 0.613575 0.007053 0.186036
H15   H     H_    0.415453 0.386426 0.992947 0.186033
H16   H     H_    0.583425 0.890081 0.654101 0.157290
H17   H     H_    0.416575 0.109919 0.345899 0.157290
H18   H     H_    0.193467 0.232702 0.560945 0.128966
N1    N     N_1   0.480320 0.480250 0.239400 -0.189458
N2    N     N_1   0.519680 0.519750 0.760600 -0.189458
O1    O     O_R   0.313000 0.493330 0.412070 -0.506859
O2    O     O_R   0.687000 0.506670 0.587930 -0.506859
O3    O     O_R   0.326280 0.506660 0.587930 -0.480992
O4    O     O_R   0.673720 0.493340 0.412070 -0.480992
O5    O     O_R   0.493370 0.312980 0.412070 -0.492324
O6    O     O_R   0.506630 0.687020 0.587930 -0.492323
O7    O     O_R   0.506650 0.326310 0.587930 -0.510027
O8    O     O_R   0.493350 0.673690 0.412070 -0.510027

loop_
_geom_bond_atom_site_label_1
_geom_bond_atom_site_label_2
_ccdc_geom_bond_type
Cu2   O6    S    
C38   H16   S    
C27   C29   A    
C1    O3    A    
C14   C18   A    
Cu1   O8    S    
Cu2   O2    S    
Cu1   Cu2   S    
C15   C19   A    
C11   C19   A    
C9    C42   A    
C17   C23   S    
C13   C18   A    
C35   C37   A    
C11   C14   A    
C24   N1    T    
C23   C40   A    
C33   C36   A    
C36   F1    S    
Cu1   N1    S    
C17   O8    A    
C31   H7    S    
C16   C34   S    
C28   F4    S    
C6    H11   S    
C20   C24   S    
C12   O4    A    
C31   C33   A    
C3    C19   S    
Cu1   O4    S    
C1    C15   S    
C11   H12   S    
C4    C18   S    
C21   C22   S    
C34   C41   A    
C42   C44   A    
C43   H10   S    
C3    C44   A    
C34   C39   A    
C1    O1    A    
C32   C35   A    
C38   C41   A    
C4    C6    A    
C39   C40   A    
C5    C7    A    
C6    C8    A    
C17   O6    A    
C33   F5    S    
C2    C4    A    
Cu2   O7    S    
C2    C43   A    
C30   C40   S    
Cu1   O5    S    
C37   F2    S    
C12   C14   S    
C13   C15   A    
C21   H14   S    
C20   H15   S    
C9    F7    S    
C22   N2    T    
C12   O2    A    
Cu2   N2    S    
C13   H13   S    
C7    C9    A    
C8    H4    S    
C29   C41   S    
C10   C43   A    
C5    H1    S    
C3    C5    A    
Cu2   O3    S    
C26   C37   A    
C25   C27   A    
C23   C38   A    
C26   C28   A    
Cu1   O1    S    
C16   O5    A    
C28   C30   A    
C32   H8    S    
C29   C31   A    
C2    H2    S    
C30   C32   A    
C16   O7    A    
C44   H18   S    
C10   F8    S    
C25   C36   A    
C20   C21   D    
C8    C10   A    
C35   F6    S    
C39   H17   S    
C25   H5    S    
C26   H6    S    
C42   H9    S    
C7    H3    S    
C27   F3    S    
