data_mof_unit_52148.cif
_audit_creation_date              2012-12-10T20:02:19-0500
_audit_creation_method            fapswitch 2.2
_symmetry_space_group_name_H-M    P1
_symmetry_Int_Tables_number       1
_space_group_crystal_system       triclinic
_cell_length_a                    10.909319
_cell_length_b                    14.980353
_cell_length_c                    14.238501
_cell_angle_alpha                 91.518858
_cell_angle_beta                  91.239574
_cell_angle_gamma                 93.27688
_cell_volume                      2321.68783869

loop_
_atom_site_label
_atom_site_type_symbol
_atom_type_description
_atom_site_fract_x
_atom_site_fract_y
_atom_site_fract_z
_atom_type_partial_charge
C1    C     C_R   0.502019 0.328084 0.498818 0.919713
C2    C     C_R   0.502838 0.673151 0.500551 0.868439
C3    C     C_R   0.874075 0.510397 0.503634 -0.240591
C4    C     C_R   0.129021 0.519088 0.499060 -0.291577
C5    C     C_R   0.942732 0.495373 0.586980 -0.109439
C6    C     C_R   0.060720 0.533517 0.415729 -0.155740
C7    C     C_R   0.460295 0.087495 0.556927 0.510553
C8    C     C_R   0.551266 0.906303 0.410338 0.471537
C9    C     C_R   0.448265 0.180222 0.557957 -0.382029
C10   C     C_R   0.531405 0.813709 0.412791 -0.240429
C11   C     C_R   0.515178 0.233348 0.496397 -0.044560
C12   C     C_R   0.520418 0.770734 0.499192 -0.104353
C13   C     C_R   0.600602 0.197184 0.437065 -0.223942
C14   C     C_R   0.537633 0.821178 0.582591 -0.254636
C15   C     C_R   0.622733 0.107497 0.441805 -0.272131
C16   C     C_R   0.567326 0.911522 0.580843 -0.145429
C17   C     C_R   0.551546 0.052289 0.499630 0.017083
C18   C     C_R   0.564497 0.955830 0.495903 0.026756
C19   C     C_R   0.435734 0.431154 0.101795 -0.276123
C20   C     C_R   0.558220 0.563529 0.902289 -0.276773
C21   C     C_R   0.429390 0.435944 0.200409 0.260620
C22   C     C_R   0.548091 0.570658 0.804556 0.267782
C23   C     C_R   0.260313 0.505591 0.499190 0.942672
C24   C     C_R   0.740535 0.501916 0.501193 0.978125
C25   C     C_R   0.582046 0.554792 0.208020 0.015881
C26   C     C_R   0.458335 0.423720 0.790120 -0.000502
C27   C     C_R   0.595223 0.548008 0.110003 -0.279010
C28   C     C_R   0.465935 0.415623 0.889021 -0.304654
C29   C     C_R   0.518807 0.486856 0.054069 0.095671
C30   C     C_R   0.517057 0.486789 0.947354 0.106605
C31   C     C_R   0.218322 0.618974 0.193536 0.070092
C32   C     C_R   0.765066 0.339045 0.753891 0.054374
C33   C     C_R   0.193141 0.611318 0.290679 0.464958
C34   C     C_R   0.821361 0.371395 0.670424 0.523364
C35   C     C_R   0.111990 0.539476 0.319583 0.076038
C36   C     C_R   0.888172 0.455796 0.674072 0.089650
C37   C     C_R   0.059131 0.478392 0.251527 -0.167369
C38   C     C_R   0.904800 0.502244 0.760869 -0.193054
C39   C     C_R   0.080974 0.488467 0.156777 -0.236436
C40   C     C_R   0.856458 0.467667 0.842547 -0.196066
C41   C     C_R   0.158910 0.558131 0.127682 -0.208766
C42   C     C_R   0.787027 0.387125 0.839171 -0.206736
C43   C     C_R   0.933863 0.540843 0.422339 0.414628
C44   C     C_R   0.068794 0.516539 0.586133 0.395190
H1    H     H_    0.172579 0.562668 0.053037 0.150079
H2    H     H_    0.745939 0.363661 0.903273 0.161172
H3    H     H_    0.693551 0.080770 0.398930 0.195713
H4    H     H_    0.581762 0.948271 0.647027 0.169052
H5    H     H_    0.372974 0.384550 0.063040 0.134855
H6    H     H_    0.593020 0.621427 0.943375 0.143448
H7    H     H_    0.638736 0.603111 0.249087 0.141871
H8    H     H_    0.419640 0.367800 0.747579 0.131955
H9    H     H_    0.665335 0.591179 0.079372 0.134550
H10   H     H_    0.433144 0.353194 0.918504 0.132380
H11   H     H_    0.996573 0.423906 0.272050 0.168776
H12   H     H_    0.951861 0.567378 0.765480 0.177284
H13   H     H_    0.037142 0.441764 0.105429 0.158382
H14   H     H_    0.869622 0.505011 0.908489 0.153137
H15   H     H_    0.387399 0.212431 0.605410 0.139708
H16   H     H_    0.524249 0.775947 0.346765 0.173125
H17   H     H_    0.654586 0.239278 0.390823 0.162349
H18   H     H_    0.527579 0.792804 0.649924 0.159078
N1    N     N_R   0.500000 0.499980 0.252470 -0.109146
N2    N     N_R   0.500000 0.500020 0.747530 -0.106245
O1    O     O_R   0.500010 0.369070 0.579480 -0.630581
O2    O     O_R   0.499990 0.630930 0.420520 -0.592736
O3    O     O_R   0.500010 0.369060 0.420520 -0.642567
O4    O     O_R   0.499990 0.630940 0.579480 -0.657180
O5    O     O_R   0.316760 0.500010 0.579480 -0.578695
O6    O     O_R   0.683240 0.499990 0.420520 -0.569581
O7    O     O_R   0.316760 0.500000 0.420520 -0.625432
O8    O     O_R   0.683240 0.500000 0.579480 -0.646236
Zn1   Zn    Zn3+2 0.500000 0.500010 0.606140 0.941936
Zn2   Zn    Zn3+2 0.500000 0.499990 0.393860 0.965152
C45   C     C_3   0.339668 0.369900 0.244421 -0.407443
C46   C     C_3   0.378970 0.273392 0.237589 -0.365260
C47   C     C_3   0.291075 0.212196 0.292446 -0.891437
H19   H     H_    0.289940 0.234511 0.367429 0.260983
H20   H     H_    0.196580 0.212436 0.261822 0.259413
H21   H     H_    0.320591 0.142927 0.289648 0.248819
H22   H     H_    0.377809 0.249726 0.162921 0.209666
H23   H     H_    0.473723 0.269501 0.266674 0.244959
H24   H     H_    0.325964 0.386543 0.318011 0.262451
H25   H     H_    0.248937 0.372579 0.208498 0.190272
C48   C     C_3   0.576619 0.662659 0.769547 -0.405923
C49   C     C_3   0.703395 0.673110 0.724137 -0.279073
C50   C     C_3   0.800492 0.717423 0.791924 -0.950308
H26   H     H_    0.775065 0.785782 0.812815 0.265500
H27   H     H_    0.809579 0.677004 0.855724 0.267559
H28   H     H_    0.890504 0.723091 0.757014 0.242759
H29   H     H_    0.734263 0.607548 0.701325 0.250573
H30   H     H_    0.699307 0.714156 0.660856 0.210596
H31   H     H_    0.497288 0.678757 0.726784 0.195386
H32   H     H_    0.572758 0.714366 0.826667 0.173031
C51   C     C_3   0.306773 0.694063 0.162549 -0.385134
C52   C     C_3   0.337752 0.691610 0.057585 -0.366253
C53   C     C_3   0.436899 0.762972 0.034397 -0.928713
H33   H     H_    0.400239 0.830211 0.040142 0.272307
H34   H     H_    0.518722 0.759300 0.081663 0.264555
H35   H     H_    0.465448 0.752673 0.960955 0.246113
H36   H     H_    0.371140 0.625466 0.037752 0.244516
H37   H     H_    0.254035 0.702686 0.014581 0.221389
H38   H     H_    0.264765 0.758177 0.178622 0.192702
H39   H     H_    0.393622 0.691947 0.204513 0.227906
C54   C     C_3   0.673739 0.259281 0.755926 -0.404463
C55   C     C_3   0.730363 0.178697 0.800975 -0.383996
C56   C     C_3   0.634899 0.101627 0.811226 -0.903587
H40   H     H_    0.563127 0.121466 0.860488 0.268417
H41   H     H_    0.591952 0.082462 0.741794 0.281044
H42   H     H_    0.679455 0.042889 0.839585 0.250549
H43   H     H_    0.805332 0.154765 0.757683 0.239564
H44   H     H_    0.769510 0.198115 0.871797 0.227130
H45   H     H_    0.594680 0.277541 0.798633 0.198336
H46   H     H_    0.633299 0.242029 0.685642 0.223088
O9    O     O_3   0.267587 0.662274 0.354756 -0.639494
C57   C     C_3   0.203428 0.722441 0.410990 0.053202
H47   H     H_    0.253486 0.729551 0.479685 0.162284
H48   H     H_    0.109041 0.699201 0.427858 0.112753
C58   C     C_3   0.203391 0.814313 0.366875 -0.378697
H49   H     H_    0.294631 0.830766 0.337433 0.239951
H50   H     H_    0.133930 0.812748 0.308611 0.197070
C59   C     C_3   0.176251 0.887132 0.439379 -0.968090
H51   H     H_    0.089761 0.869481 0.476034 0.268008
H52   H     H_    0.166962 0.951599 0.403920 0.258234
H53   H     H_    0.252791 0.895698 0.492183 0.290053
O10   O     O_3   0.801646 0.330205 0.582272 -0.679813
C60   C     C_3   0.840991 0.241782 0.574302 0.067478
H54   H     H_    0.851263 0.226960 0.498142 0.175182
H55   H     H_    0.768251 0.193072 0.596349 0.169697
C61   C     C_3   0.964663 0.224336 0.622154 -0.400940
H56   H     H_    0.040257 0.263849 0.588540 0.222841
H57   H     H_    0.965614 0.243968 0.697838 0.211862
C62   C     C_3   0.986518 0.124514 0.613905 -1.001236
H58   H     H_    0.900545 0.082309 0.622241 0.265627
H59   H     H_    0.049697 0.106782 0.671060 0.254278
H60   H     H_    0.025229 0.108120 0.544453 0.267212
O11   O     O_3   0.865082 0.565140 0.344400 -0.622200
C63   C     C_3   0.880439 0.658139 0.328346 0.093627
H61   H     H_    0.826743 0.671518 0.263775 0.151933
H62   H     H_    0.975615 0.678770 0.310891 0.116873
C64   C     C_3   0.834669 0.716401 0.409289 -0.424316
H63   H     H_    0.740383 0.692244 0.426952 0.232127
H64   H     H_    0.894765 0.711619 0.472732 0.193357
C65   C     C_3   0.834051 0.814215 0.382180 -0.913939
H65   H     H_    0.926475 0.838959 0.360411 0.265396
H66   H     H_    0.806829 0.855567 0.443282 0.270482
H67   H     H_    0.768059 0.821787 0.322863 0.279923
O12   O     O_3   0.132534 0.533690 0.670611 -0.616171
C66   C     C_3   0.159446 0.627406 0.679457 0.103603
H68   H     H_    0.075200 0.665073 0.668139 0.099884
H69   H     H_    0.228503 0.649557 0.627314 0.143990
C67   C     C_3   0.211978 0.651786 0.777711 -0.318318
H70   H     H_    0.144024 0.631835 0.831382 0.207510
H71   H     H_    0.296010 0.615123 0.790528 0.232166
C68   C     C_3   0.243384 0.752326 0.788008 -1.018560
H72   H     H_    0.312137 0.773920 0.735579 0.268790
H73   H     H_    0.282261 0.768891 0.859263 0.276215
H74   H     H_    0.159442 0.789909 0.777828 0.268268
O13   O     O_3   0.391416 0.027975 0.611957 -0.652658
C69   C     C_3   0.281415 0.059422 0.646888 0.092204
H75   H     H_    0.212481 0.001849 0.646259 0.172162
H76   H     H_    0.240000 0.108816 0.600910 0.106776
C70   C     C_3   0.300872 0.095093 0.748515 -0.386492
H77   H     H_    0.380637 0.144525 0.753304 0.218999
H78   H     H_    0.219002 0.130102 0.770919 0.178691
C71   C     C_3   0.321723 0.019472 0.816021 -0.823880
H79   H     H_    0.239414 0.972274 0.816308 0.248272
H80   H     H_    0.338599 0.047721 0.888336 0.234208
H81   H     H_    0.402437 0.982251 0.795112 0.284894
O14   O     O_3   0.570236 0.945635 0.324571 -0.669984
C72   C     C_3   0.463940 0.986781 0.293001 0.061656
H82   H     H_    0.489433 0.058498 0.282501 0.177109
H83   H     H_    0.386320 0.983311 0.342905 0.140758
C73   C     C_3   0.422377 0.944983 0.198096 -0.357134
H84   H     H_    0.494651 0.958842 0.145721 0.232366
H85   H     H_    0.410715 0.871729 0.205361 0.227562
C74   C     C_3   0.301891 0.980769 0.163009 -0.998337
H86   H     H_    0.229375 0.970760 0.215911 0.270872
H87   H     H_    0.270671 0.944672 0.096946 0.267528
H88   H     H_    0.315178 0.053003 0.148190 0.273346

loop_
_geom_bond_atom_site_label_1
_geom_bond_atom_site_label_2
_ccdc_geom_bond_type
C72   H82   S    
O10   C60   S    
C52   H37   S    
C68   H73   S    
C23   O5    A    
C61   H57   S    
C70   H77   S    
C1    C11   S    
C15   H3    S    
C50   H26   S    
C2    C12   S    
C16   H4    S    
C25   H7    S    
C53   H33   S    
C24   O6    A    
C39   C41   A    
C20   C30   A    
C47   H19   S    
C6    C35   S    
C72   H83   S    
C3    C43   A    
C54   H45   S    
C35   C37   A    
C2    O4    A    
C49   H29   S    
C66   H69   S    
C25   N1    A    
C45   H25   S    
C47   H21   S    
C7    O13   S    
C55   C56   S    
O9    C57   S    
C14   H18   S    
C5    C36   S    
O1    Zn1   S    
C57   H47   S    
C15   C17   A    
C42   H2    S    
C22   C48   S    
C26   N2    A    
C73   H84   S    
C20   H6    S    
C44   O12   S    
C48   H31   S    
C51   C52   S    
C51   H38   S    
C74   H87   S    
O6    Zn2   S    
C62   H60   S    
C1    O1    A    
N2    Zn1   S    
C31   C33   A    
O5    Zn1   S    
C40   C42   A    
C52   H36   S    
C68   H74   S    
C71   H80   S    
C56   H41   S    
C3    C24   S    
C65   H67   S    
C53   H34   S    
C8    O14   S    
C55   H43   S    
C47   H20   S    
C72   C73   S    
C33   O9    S    
C40   H14   S    
C69   C70   S    
C23   O7    A    
C54   H46   S    
C70   C71   S    
C46   C47   S    
C65   H66   S    
C66   C67   S    
C46   H23   S    
C4    C23   S    
C28   H10   S    
C49   C50   S    
C65   H65   S    
C55   H44   S    
C4    C44   A    
C7    C17   A    
O4    Zn1   S    
C48   C49   S    
C8    C18   A    
C1    O3    A    
C9    H15   S    
C69   H76   S    
C10   H16   S    
C45   C46   S    
C60   H55   S    
C29   C30   S    
C26   H8    S    
O2    Zn2   S    
C48   H32   S    
C19   H5    S    
O13   C69   S    
C67   C68   S    
C34   O10   S    
C74   H88   S    
C52   C53   S    
C17   C18   S    
C38   H12   S    
O3    Zn2   S    
O12   C66   S    
C9    C11   A    
C73   C74   S    
C58   H50   S    
C10   C12   A    
C4    C6    A    
C5    C44   A    
C67   H71   S    
C6    C43   A    
C50   H27   S    
C13   C15   A    
C71   H79   S    
C56   H42   S    
C14   C16   A    
C64   C65   S    
C61   C62   S    
C56   H40   S    
C59   H52   S    
C60   H54   S    
C19   C29   A    
C53   H35   S    
C51   H39   S    
C24   O8    A    
C54   C55   S    
C58   C59   S    
C7    C9    A    
C32   C42   A    
C31   C41   A    
C19   C21   A    
C16   C18   A    
C20   C22   A    
O8    Zn1   S    
C3    C5    A    
C63   C64   S    
C46   H22   S    
O7    Zn2   S    
C58   H49   S    
C27   H9    S    
C2    O2    A    
C63   H62   S    
N1    Zn2   S    
C25   C27   A    
O11   C63   S    
C21   C45   S    
C26   C28   A    
C57   C58   S    
C32   C54   S    
C69   H75   S    
C59   H53   S    
C64   H64   S    
C61   H56   S    
C12   C14   A    
C60   C61   S    
C37   C39   A    
C49   H30   S    
C64   H63   S    
C36   C38   A    
C38   C40   A    
C11   C13   A    
C45   H24   S    
C62   H58   S    
C27   C29   A    
C31   C51   S    
C28   C30   A    
C33   C35   A    
C57   H48   S    
C43   O11   S    
C34   C36   A    
C73   H85   S    
C21   N1    A    
C63   H61   S    
C22   N2    A    
C37   H11   S    
C13   H17   S    
C67   H70   S    
C71   H81   S    
C8    C10   A    
C74   H86   S    
O14   C72   S    
C50   H28   S    
C68   H72   S    
C62   H59   S    
C41   H1    S    
C70   H78   S    
C59   H51   S    
C66   H68   S    
C32   C34   A    
C39   H13   S    
