data_mof_unit_24863.cif
_audit_creation_date              2012-12-10T18:57:50-0500
_audit_creation_method            fapswitch 2.2
_symmetry_space_group_name_H-M    P1
_symmetry_Int_Tables_number       1
_space_group_crystal_system       triclinic
_cell_length_a                    10.633848
_cell_length_b                    9.889468
_cell_length_c                    8.908309
_cell_angle_alpha                 89.934452
_cell_angle_beta                  90.39473
_cell_angle_gamma                 89.985533
_cell_volume                      936.802508882

loop_
_atom_site_label
_atom_site_type_symbol
_atom_type_description
_atom_site_fract_x
_atom_site_fract_y
_atom_site_fract_z
_atom_type_partial_charge
C1    C     C_R   0.260734 0.499935 0.499923 0.921394
C2    C     C_R   0.065137 0.518340 0.362158 0.143902
C3    C     C_R   0.871948 0.499867 0.499909 -0.118376
C4    C     C_R   0.128087 0.499494 0.499841 -0.129505
C5    C     C_R   0.578945 0.072392 0.593495 0.096904
C6    C     C_R   0.421179 0.927715 0.406431 0.101485
C7    C     C_R   0.421120 0.072661 0.406490 0.098698
C8    C     C_R   0.578929 0.927396 0.593517 0.096826
C9    C     C_3   0.143762 0.456608 0.780005 -0.900019
C10   C     C_3   0.862001 0.531397 0.214230 -0.887658
C11   C     C_3   0.865205 0.467148 0.785363 -0.883413
C12   C     C_R   0.739385 0.499982 0.499986 0.907176
C13   C     C_3   0.140610 0.536596 0.218731 -0.902129
C14   C     C_R   0.498360 0.500042 0.218755 0.908005
C15   C     C_R   0.498917 0.499955 0.781233 0.907266
C16   C     C_1   0.498086 0.500062 0.065393 -0.195238
C17   C     C_1   0.498310 0.499930 0.934583 -0.195541
C18   C     C_R   0.066679 0.479060 0.637258 0.141461
C19   C     C_R   0.933992 0.516897 0.361570 0.148433
C20   C     C_R   0.935549 0.481669 0.638053 0.148975
H1    H     H_    0.206077 0.367522 0.765915 0.246156
H2    H     H_    0.204013 0.624996 0.230123 0.251369
H3    H     H_    0.198225 0.444828 0.198340 0.236617
H4    H     H_    0.083281 0.554881 0.116912 0.244891
H5    H     H_    0.753999 0.119839 0.666992 0.167036
H6    H     H_    0.641920 0.119689 0.801858 0.162840
H7    H     H_    0.246300 0.880637 0.332313 0.164234
H8    H     H_    0.358783 0.880630 0.197837 0.163338
H9    H     H_    0.246049 0.120516 0.333295 0.165138
H10   H     H_    0.357937 0.120231 0.198152 0.163204
H11   H     H_    0.753977 0.879790 0.666990 0.166223
H12   H     H_    0.202538 0.547151 0.802988 0.231908
H13   H     H_    0.641897 0.879790 0.801906 0.163179
H14   H     H_    0.087439 0.436576 0.881278 0.245810
H15   H     H_    0.758809 0.524761 0.225213 0.226792
H16   H     H_    0.882592 0.631254 0.162847 0.241302
H17   H     H_    0.889760 0.449099 0.136509 0.240965
H18   H     H_    0.762050 0.476663 0.774782 0.232034
H19   H     H_    0.884330 0.366214 0.835194 0.239640
H20   H     H_    0.895725 0.547740 0.864224 0.239586
N1    N     N_R   0.500000 0.857200 0.500000 -0.081259
N2    N     N_R   0.500000 0.142800 0.500000 -0.082087
N3    N     N_3   0.661219 0.146548 0.690923 -0.389597
N4    N     N_3   0.339126 0.853768 0.308701 -0.401959
N5    N     N_3   0.338831 0.147058 0.309087 -0.393828
N6    N     N_3   0.661198 0.853047 0.690981 -0.388594
O1    O     O_R   0.316770 0.614620 0.499990 -0.605166
O2    O     O_R   0.683230 0.385380 0.500010 -0.598315
O3    O     O_R   0.683230 0.614620 0.500010 -0.598739
O4    O     O_R   0.316770 0.385380 0.499990 -0.605672
O5    O     O_R   0.500010 0.614640 0.285340 -0.601385
O6    O     O_R   0.499990 0.385360 0.714660 -0.602264
O7    O     O_R   0.499990 0.614640 0.714660 -0.599599
O8    O     O_R   0.500010 0.385360 0.285340 -0.598874
Zn1   Zn    Zn3+2 0.500000 0.653120 0.500000 0.973643
Zn2   Zn    Zn3+2 0.500000 0.346880 0.500000 0.972785

loop_
_geom_bond_atom_site_label_1
_geom_bond_atom_site_label_2
_ccdc_geom_bond_type
H6    N3    S    
C11   H18   S    
C2    C4    A    
C5    N2    A    
C3    C19   A    
C6    C7    A    
C14   C16   S    
C5    C8    A    
O4    Zn2   S    
C1    O4    A    
C9    H14   S    
H10   N5    S    
C18   C20   A    
C14   O5    A    
C9    H12   S    
C10   C19   S    
C12   O2    A    
C1    C4    S    
C4    C18   A    
H5    N3    S    
C12   O3    A    
C5    N3    S    
C3    C20   A    
C6    N4    S    
C15   O6    A    
C11   H19   S    
H13   N6    S    
C9    H1    S    
C10   H15   S    
C10   H17   S    
C15   O7    A    
C14   O8    A    
C13   H2    S    
O5    Zn1   S    
O7    Zn1   S    
O3    Zn1   S    
C11   H20   S    
O8    Zn2   S    
C11   C20   S    
C7    N5    S    
C9    C18   S    
C8    N1    A    
C13   H3    S    
O1    Zn1   S    
C7    N2    A    
O2    Zn2   S    
C2    C13   S    
C1    O1    A    
C10   H16   S    
C3    C12   S    
C8    N6    S    
N2    Zn2   S    
C2    C19   A    
C15   C17   S    
H7    N4    S    
H8    N4    S    
N1    Zn1   S    
O6    Zn2   S    
C13   H4    S    
H9    N5    S    
C16   C17   T    
C6    N1    A    
H11   N6    S    
