data_mof_unit_6450.cif
_audit_creation_date              2012-12-11T16:21:23-0500
_audit_creation_method            fapswitch 2.2
_symmetry_space_group_name_H-M    P1
_symmetry_Int_Tables_number       1
_space_group_crystal_system       triclinic
_cell_length_a                    7.222087
_cell_length_b                    36.418736
_cell_length_c                    41.738189
_cell_angle_alpha                 90.118633
_cell_angle_beta                  89.988166
_cell_angle_gamma                 89.988593
_cell_volume                      10977.9244273

loop_
_atom_site_label
_atom_site_type_symbol
_atom_type_description
_atom_site_fract_x
_atom_site_fract_y
_atom_site_fract_z
_atom_type_partial_charge
O1    O     O_R   0.564240 0.782760 0.216890 -0.531329
O2    O     O_R   0.435760 0.217240 0.783110 -0.496068
O3    O     O_R   0.435760 0.217240 0.716890 -0.519680
O4    O     O_R   0.564240 0.782760 0.283110 -0.527196
O5    O     O_R   0.064240 0.717240 0.283110 -0.531290
O6    O     O_R   0.935760 0.282760 0.716890 -0.497201
O7    O     O_R   0.935760 0.282760 0.783110 -0.519517
O8    O     O_R   0.064240 0.717240 0.216890 -0.527235
O9    O     O_R   0.234510 0.787070 0.282870 -0.520117
O10   O     O_R   0.765490 0.212930 0.717130 -0.537841
O11   O     O_R   0.765490 0.212930 0.782870 -0.531403
O12   O     O_R   0.234510 0.787070 0.217130 -0.522978
O13   O     O_R   0.734510 0.712930 0.217130 -0.520080
O14   O     O_R   0.265490 0.287070 0.782870 -0.538749
O15   O     O_R   0.265490 0.287070 0.717130 -0.531102
O16   O     O_R   0.734510 0.712930 0.282870 -0.522975
C1    C     C_R   0.403488 0.796780 0.292754 0.743759
C2    C     C_R   0.597653 0.204709 0.705986 0.780080
C3    C     C_R   0.596275 0.204982 0.794391 0.746539
C4    C     C_R   0.403083 0.796388 0.206959 0.755956
C5    C     C_R   0.903543 0.703214 0.207250 0.743680
C6    C     C_R   0.097571 0.295323 0.794007 0.774921
C7    C     C_R   0.096290 0.295019 0.705610 0.744186
C8    C     C_R   0.903081 0.703613 0.293042 0.756037
O17   O     O_3   0.397750 0.727090 0.250000 -0.334178
O18   O     O_3   0.602250 0.272910 0.750000 -0.336148
O19   O     O_3   0.897750 0.772910 0.250000 -0.334202
O20   O     O_3   0.102250 0.227090 0.750000 -0.336260
V1    V     V_3+5 0.122890 0.754250 0.250000 1.729219
V2    V     V_3+5 0.877110 0.245750 0.750000 1.757943
V3    V     V_3+5 0.622890 0.745750 0.250000 1.729172
V4    V     V_3+5 0.377110 0.254250 0.750000 1.757787
C9    C     C_R   0.956363 0.609290 0.426183 0.574918
C10   C     C_R   0.124533 0.381545 0.565813 0.583393
C11   C     C_R   0.930885 0.384022 0.927750 0.599103
C12   C     C_R   0.099948 0.594902 0.087211 0.596969
C13   C     C_R   0.456524 0.890709 0.073817 0.574834
C14   C     C_R   0.624366 0.118454 0.934182 0.583993
C15   C     C_R   0.428967 0.115587 0.572599 0.602000
C16   C     C_R   0.599022 0.904964 0.412879 0.596882
O21   O     O_2   0.910191 0.644467 0.432534 -0.524501
O22   O     O_2   0.134715 0.345241 0.559564 -0.521594
O23   O     O_2   0.791567 0.360409 0.921410 -0.510156
O24   O     O_2   0.235453 0.619747 0.092339 -0.515333
O25   O     O_2   0.410486 0.855529 0.067467 -0.524546
O26   O     O_2   0.634360 0.154759 0.940430 -0.521480
O27   O     O_2   0.289504 0.139156 0.579008 -0.507547
O28   O     O_2   0.734608 0.880130 0.407726 -0.515370
N1    N     N_R   0.978218 0.598000 0.395047 -0.549935
N2    N     N_R   0.116446 0.393605 0.596928 -0.544874
N3    N     N_R   0.086621 0.383733 0.908982 -0.549413
N4    N     N_R   0.942430 0.595837 0.105568 -0.549949
N5    N     N_R   0.478234 0.902002 0.104953 -0.549931
N6    N     N_R   0.616457 0.106391 0.903067 -0.544062
N7    N     N_R   0.584904 0.115913 0.591300 -0.551031
N8    N     N_R   0.441599 0.904061 0.394509 -0.549956
C17   C     C_R   0.021912 0.562183 0.388164 0.603599
C18   C     C_R   0.106121 0.430420 0.603685 0.610136
C19   C     C_R   0.231136 0.406995 0.915352 0.603527
C20   C     C_R   0.801813 0.571286 0.100219 0.603784
C21   C     C_R   0.521786 0.937822 0.111836 0.603606
C22   C     C_R   0.606312 0.069575 0.896311 0.606568
C23   C     C_R   0.729462 0.092663 0.584899 0.609181
C24   C     C_R   0.300886 0.928597 0.399885 0.603806
C25   C     C_R   0.819647 0.619152 0.345822 -0.160278
C26   C     C_R   0.948074 0.366519 0.642335 -0.160097
C27   C     C_R   0.973845 0.370600 0.854728 -0.165102
C28   C     C_R   0.056695 0.620594 0.156895 -0.166712
C29   C     C_R   0.319596 0.880849 0.154179 -0.160262
C30   C     C_R   0.448138 0.133459 0.857652 -0.164299
C31   C     C_R   0.475120 0.128921 0.645775 -0.141902
C32   C     C_R   0.556154 0.879368 0.343165 -0.166668
C33   C     C_R   0.798599 0.644134 0.320376 0.321950
C34   C     C_R   0.934128 0.342355 0.668422 0.438699
C35   C     C_R   0.975904 0.350339 0.826127 0.361139
C36   C     C_R   0.050045 0.645917 0.182275 0.339741
C37   C     C_R   0.298546 0.855868 0.179626 0.321849
C38   C     C_R   0.434118 0.157640 0.831577 0.439895
C39   C     C_R   0.478289 0.149262 0.674324 0.401988
C40   C     C_R   0.549716 0.854063 0.317771 0.339719
C41   C     C_R   0.051061 0.680358 0.342687 -0.259722
C42   C     C_R   0.237917 0.318573 0.655028 -0.224202
C43   C     C_R   0.211224 0.310560 0.848914 -0.232804
C44   C     C_R   0.782301 0.674535 0.157166 -0.203995
C45   C     C_R   0.551142 0.819646 0.157315 -0.259637
C46   C     C_R   0.737761 0.181446 0.844980 -0.224013
C47   C     C_R   0.708817 0.189611 0.650886 -0.228835
C48   C     C_R   0.281946 0.825412 0.342845 -0.203938
C49   C     C_R   0.072199 0.654940 0.367404 -0.088649
C50   C     C_R   0.248394 0.342450 0.628837 -0.032696
C51   C     C_R   0.209940 0.331465 0.877183 -0.068703
C52   C     C_R   0.790243 0.648834 0.132191 -0.059834
C53   C     C_R   0.572284 0.845065 0.132598 -0.088626
C54   C     C_R   0.748249 0.157571 0.871172 -0.032245
C55   C     C_R   0.706922 0.168590 0.622682 -0.058125
C56   C     C_R   0.289676 0.851094 0.367834 -0.059874
C57   C     C_R   0.956393 0.624207 0.369292 0.318582
C58   C     C_R   0.105733 0.367482 0.622949 0.276903
C59   C     C_R   0.089647 0.361444 0.880310 0.309066
C60   C     C_R   0.929006 0.621929 0.131682 0.301874
C61   C     C_R   0.456409 0.875796 0.130709 0.318583
C62   C     C_R   0.605727 0.132512 0.877044 0.277232
C63   C     C_R   0.588418 0.138292 0.619908 0.289825
C64   C     C_R   0.428342 0.878006 0.368368 0.301926
C65   C     C_R   0.023163 0.547432 0.445086 -0.044276
C66   C     C_R   0.100070 0.444584 0.546709 -0.044914
C67   C     C_R   0.058020 0.434126 0.959644 -0.044080
C68   C     C_R   0.979977 0.542533 0.057308 -0.044532
C69   C     C_R   0.523184 0.952569 0.054913 -0.044267
C70   C     C_R   0.600091 0.055415 0.953288 -0.044790
C71   C     C_R   0.556222 0.065518 0.540651 -0.043868
C72   C     C_R   0.478760 0.957269 0.442852 -0.044539
C73   C     C_R   0.980022 0.584385 0.451666 -0.034161
C74   C     C_R   0.118007 0.406793 0.540213 -0.036835
C75   C     C_R   0.914128 0.409043 0.953401 -0.039013
C76   C     C_R   0.121618 0.568291 0.062926 -0.034723
C77   C     C_R   0.480193 0.915613 0.048334 -0.034055
C78   C     C_R   0.617847 0.093207 0.959782 -0.037212
C79   C     C_R   0.412216 0.090579 0.546937 -0.039267
C80   C     C_R   0.620503 0.931528 0.437203 -0.034706
C81   C     C_R   0.959747 0.595683 0.483483 -0.125172
C82   C     C_R   0.124434 0.394933 0.508363 -0.123079
C83   C     C_R   0.755348 0.409826 0.972485 -0.128447
C84   C     C_R   0.282118 0.566968 0.044292 -0.127039
C85   C     C_R   0.460073 0.904312 0.016516 -0.125332
C86   C     C_R   0.624100 0.105070 0.991632 -0.123106
C87   C     C_R   0.253402 0.089799 0.527874 -0.128143
C88   C     C_R   0.780913 0.932816 0.455849 -0.127185
C89   C     C_R   0.043502 0.536276 0.412970 -0.048331
C90   C     C_R   0.095790 0.456423 0.578815 -0.048994
C91   C     C_R   0.219134 0.432645 0.940656 -0.048471
C92   C     C_R   0.818066 0.544293 0.076063 -0.051990
C93   C     C_R   0.543373 0.963729 0.087030 -0.048361
C94   C     C_R   0.595987 0.043573 0.921182 -0.046979
C95   C     C_R   0.717391 0.066999 0.559612 -0.052381
C96   C     C_R   0.316941 0.955542 0.424084 -0.052024
C97   C     C_R   0.914787 0.675648 0.318920 -0.123797
C98   C     C_R   0.087668 0.319412 0.676541 -0.198647
C99   C     C_R   0.093401 0.319300 0.823093 -0.160956
C100  C     C_R   0.913178 0.674079 0.182186 -0.134592
C101  C     C_R   0.414798 0.824354 0.181081 -0.123826
C102  C     C_R   0.587608 0.180591 0.823460 -0.198925
C103  C     C_R   0.593518 0.180641 0.676982 -0.175461
C104  C     C_R   0.412946 0.825895 0.317835 -0.134641
H1    H     H_    0.142148 0.703988 0.342193 0.135740
H2    H     H_    0.346328 0.298600 0.658052 0.208065
H3    H     H_    0.303500 0.287166 0.847311 0.154055
H4    H     H_    0.675547 0.695426 0.156549 0.148369
H5    H     H_    0.642280 0.796016 0.157809 0.135721
H6    H     H_    0.846077 0.201433 0.841962 0.208509
H7    H     H_    0.799498 0.213263 0.652229 0.154054
H8    H     H_    0.175261 0.804515 0.343444 0.148357
H9    H     H_    0.179438 0.659160 0.385161 0.142047
H10   H     H_    0.368758 0.341694 0.613378 0.167933
H11   H     H_    0.301508 0.324190 0.896700 0.155520
H12   H     H_    0.689998 0.650232 0.112944 0.158313
H13   H     H_    0.679577 0.840845 0.114842 0.142026
H14   H     H_    0.868533 0.158344 0.886640 0.168353
H15   H     H_    0.796553 0.176023 0.602939 0.154598
H16   H     H_    0.189354 0.849673 0.387074 0.158274
H17   H     H_    0.924409 0.623842 0.489262 0.170927
H18   H     H_    0.136999 0.366017 0.502613 0.171568
H19   H     H_    0.642925 0.390686 0.968377 0.173875
H20   H     H_    0.393365 0.586470 0.048046 0.172315
H21   H     H_    0.424851 0.876151 0.010738 0.170802
H22   H     H_    0.636522 0.133988 0.997381 0.171632
H23   H     H_    0.140894 0.108921 0.532014 0.173723
H24   H     H_    0.892227 0.913324 0.452074 0.172273
C105  C     C_R   0.058372 0.508290 0.528301 0.033854
C106  C     C_R   0.082119 0.484191 0.463431 0.033625
C107  C     C_R   0.855486 0.489321 0.027702 0.030436
C108  C     C_R   0.185666 0.486360 0.990139 0.030656
C109  C     C_R   0.558569 0.991707 0.971697 0.034242
C110  C     C_R   0.581980 0.015812 0.036567 0.033598
C111  C     C_R   0.353975 0.010415 0.472535 0.030356
C112  C     C_R   0.684051 0.013326 0.510101 0.030697
C113  C     C_R   0.094216 0.458157 0.488879 0.034818
C114  C     C_R   0.030248 0.533763 0.502862 0.035244
C115  C     C_R   0.165215 0.513791 0.014382 0.031133
C116  C     C_R   0.875583 0.461996 0.003352 0.030767
C117  C     C_R   0.594067 0.041845 0.011118 0.034732
C118  C     C_R   0.530437 0.966234 0.997137 0.035219
C119  C     C_R   0.663741 0.985934 0.485827 0.031034
C120  C     C_R   0.373897 0.037693 0.496928 0.030663
C121  C     C_R   0.084674 0.470454 0.521186 0.068714
C122  C     C_R   0.045473 0.521695 0.470561 0.068075
C123  C     C_R   0.000348 0.515079 0.033037 0.070835
C124  C     C_R   0.039883 0.460886 0.984543 0.071040
C125  C     C_R   0.584698 0.029545 0.978811 0.068466
C126  C     C_R   0.545497 0.978305 0.029437 0.068033
C127  C     C_R   0.498943 0.984675 0.467166 0.070778
C128  C     C_R   0.538175 0.038786 0.515731 0.071522
C129  C     C_R   0.061467 0.519307 0.560851 -0.170261
C130  C     C_R   0.105177 0.474116 0.430877 -0.170249
C131  C     C_R   0.694270 0.492108 0.046938 -0.182373
C132  C     C_R   0.347290 0.483453 0.971020 -0.182369
C133  C     C_R   0.561840 0.980688 0.939148 -0.170702
C134  C     C_R   0.604891 0.025891 0.069121 -0.170242
C135  C     C_R   0.192855 0.007663 0.453285 -0.182327
C136  C     C_R   0.845644 0.016212 0.529217 -0.182628
C137  C     C_R   0.079705 0.493898 0.585488 -0.113260
C138  C     C_R   0.086380 0.499625 0.406278 -0.114612
C139  C     C_R   0.676715 0.518885 0.070585 -0.128136
C140  C     C_R   0.362909 0.457293 0.946814 -0.128911
C141  C     C_R   0.580079 0.006096 0.914511 -0.116267
C142  C     C_R   0.586099 0.000383 0.093720 -0.114606
C143  C     C_R   0.175486 0.980933 0.429593 -0.128114
C144  C     C_R   0.861207 0.042354 0.553433 -0.128322
O29   O     O_2   0.104802 0.441897 0.634453 -0.495883
O30   O     O_2   0.046297 0.551658 0.357435 -0.491963
O31   O     O_2   0.647908 0.572515 0.118527 -0.496744
O32   O     O_2   0.384087 0.405999 0.896795 -0.508222
O33   O     O_2   0.605165 0.058095 0.865544 -0.501330
O34   O     O_2   0.546036 0.948351 0.142565 -0.491950
O35   O     O_2   0.147075 0.927400 0.381563 -0.496726
O36   O     O_2   0.882591 0.093704 0.603398 -0.495943
C145  C     C_R   0.984289 0.571021 0.508540 -0.171103
C146  C     C_R   0.113219 0.419962 0.483243 -0.170385
C147  C     C_R   0.736545 0.435517 0.996986 -0.184572
C148  C     C_R   0.303545 0.540478 0.020524 -0.185671
C149  C     C_R   0.484626 0.928973 0.991459 -0.171484
C150  C     C_R   0.612891 0.080042 0.016753 -0.170330
C151  C     C_R   0.234719 0.064144 0.503342 -0.184827
C152  C     C_R   0.802166 0.959261 0.479656 -0.185810
H25   H     H_    0.834104 0.384541 0.636379 0.187309
H26   H     H_    0.730185 0.595383 0.347444 0.178433
H27   H     H_    0.161863 0.599403 0.156614 0.185422
H28   H     H_    0.885004 0.394382 0.857114 0.165149
H29   H     H_    0.334233 0.115426 0.863606 0.187065
H30   H     H_    0.230081 0.904617 0.152557 0.178441
H31   H     H_    0.661258 0.900563 0.343467 0.185407
H32   H     H_    0.387279 0.104956 0.643668 0.190347
H33   H     H_    0.079373 0.503864 0.609964 0.178658
H34   H     H_    0.105253 0.490339 0.381818 0.178724
H35   H     H_    0.550386 0.519599 0.084583 0.176543
H36   H     H_    0.488987 0.456653 0.932746 0.175432
H37   H     H_    0.579885 0.996128 0.890035 0.176438
H38   H     H_    0.604856 0.009671 0.118181 0.178732
H39   H     H_    0.049224 0.980244 0.415586 0.176537
H40   H     H_    0.987291 0.042986 0.567491 0.176601
H41   H     H_    0.052674 0.547586 0.568251 0.127257
H42   H     H_    0.140904 0.446696 0.423451 0.127119
H43   H     H_    0.577065 0.474123 0.044382 0.130395
H44   H     H_    0.465966 0.500967 0.974006 0.130649
H45   H     H_    0.553189 0.952407 0.931750 0.126488
H46   H     H_    0.640497 0.053314 0.076547 0.127127
H47   H     H_    0.075604 0.025643 0.455858 0.130408
H48   H     H_    0.964366 0.998703 0.526214 0.130575
H49   H     H_    0.961883 0.582031 0.532178 0.126249
H50   H     H_    0.115447 0.408195 0.459571 0.126009
H51   H     H_    0.609297 0.433870 0.010293 0.132269
H52   H     H_    0.431475 0.541909 0.007393 0.132147
H53   H     H_    0.462344 0.917960 0.967820 0.125830
H54   H     H_    0.614976 0.091811 0.040424 0.126027
H55   H     H_    0.107446 0.065793 0.490049 0.132274
H56   H     H_    0.930041 0.957805 0.492792 0.132062
S1    S     S_3+6 0.715298 0.339680 0.687100 0.026679
O37   O     O_2   0.641205 0.301545 0.682525 -0.382026
O38   O     O_2   0.733122 0.347407 0.722134 -0.242613
O39   O     O_3   0.567318 0.370264 0.671129 -0.515001
H57   H     H_    0.468849 0.373514 0.687419 0.384573
S2    S     S_3+6 0.631106 0.633874 0.290578 0.123145
O40   O     O_2   0.711726 0.639925 0.257823 -0.261448
O41   O     O_2   0.568577 0.594613 0.293100 -0.277389
O42   O     O_3   0.446841 0.661517 0.295387 -0.450021
H58   H     H_    0.406061 0.657315 0.317727 0.313776
S3    S     S_3+6 0.212921 0.640074 0.213606 0.117224
O43   O     O_2   0.372769 0.665650 0.208076 -0.284864
O44   O     O_2   0.126966 0.648348 0.245596 -0.295740
O45   O     O_3   0.293928 0.596771 0.213906 -0.436182
H59   H     H_    0.186446 0.581461 0.220117 0.359362
S4    S     S_3+6 0.846181 0.367271 0.793771 0.084144
O46   O     O_2   0.971811 0.369773 0.765169 -0.278406
O47   O     O_2   0.688802 0.341473 0.786817 -0.309945
O48   O     O_3   0.760576 0.409297 0.801733 -0.459347
H60   H     H_    0.645566 0.404888 0.814085 0.358351
S5    S     S_3+6 0.215120 0.160381 0.812974 0.016062
O49   O     O_2   0.141283 0.198537 0.817584 -0.379329
O50   O     O_2   0.232428 0.152652 0.777933 -0.256724
O51   O     O_3   0.067177 0.129833 0.829003 -0.518856
H61   H     H_    0.969002 0.126466 0.812686 0.379768
S6    S     S_3+6 0.130963 0.866126 0.209425 0.123193
O52   O     O_2   0.211508 0.860066 0.242179 -0.261429
O53   O     O_2   0.068393 0.905390 0.206908 -0.277333
O54   O     O_3   0.946740 0.838491 0.204610 -0.450003
H62   H     H_    0.906177 0.842660 0.182256 0.313659
S7    S     S_3+6 0.712712 0.859930 0.286451 0.117234
O55   O     O_2   0.872574 0.834345 0.291970 -0.284905
O56   O     O_2   0.626891 0.851685 0.254452 -0.295625
O57   O     O_3   0.793659 0.903232 0.286185 -0.436211
H63   H     H_    0.686180 0.918549 0.279979 0.359352
S8    S     S_3+6 0.351888 0.132229 0.707003 0.061135
O58   O     O_2   0.477999 0.131176 0.735620 -0.311273
O59   O     O_2   0.190113 0.157187 0.713237 -0.301405
O60   O     O_3   0.273282 0.089608 0.699440 -0.487726
H64   H     H_    0.204247 0.082517 0.718981 0.391775

loop_
_geom_bond_atom_site_label_1
_geom_bond_atom_site_label_2
_ccdc_geom_bond_type
O17   V3    S    
C120  C151  A    
C24   C96   A    
C16   C80   A    
O18   V4    S    
C26   C58   A    
C32   H31   S    
C115  C148  A    
C134  C142  A    
C146  H50   S    
C29   C37   A    
O16   C8    A    
C68   C123  A    
C133  C141  A    
O48   H60   S    
C10   O22   S    
C86   H22   S    
C113  C146  A    
C84   H20   S    
C144  H40   S    
S2    O42   S    
C31   C39   A    
C28   H27   S    
C113  C121  A    
O15   V4    S    
C19   O32   S    
O16   V3    S    
C41   C97   A    
C88   C152  A    
C34   C98   A    
O11   C3    A    
S6    O52   D    
C145  H49   S    
O12   C4    A    
C132  H44   S    
C1    C104  S    
C55   H15   S    
O8    V1    S    
O2    V4    S    
C17   C89   A    
S8    O58   D    
C38   S5    S    
O10   C2    A    
S1    O37   D    
C22   C94   A    
C46   H6    S    
C111  C127  A    
O12   V1    S    
S3    O45   S    
C18   O29   S    
O19   V1    S    
C35   S4    S    
C9    N1    A    
O7    C6    A    
C130  C138  A    
N7    C63   S    
C86   C150  A    
O1    V3    S    
N1    C17   A    
C84   C148  A    
O3    C2    A    
C71   C79   A    
O57   H63   S    
C133  H45   S    
C16   O28   S    
C137  H33   S    
C140  H36   S    
C31   C63   A    
C42   C98   A    
C7    C98   S    
C14   O26   S    
C17   O30   S    
C117  C125  A    
C116  C147  A    
C15   N7    A    
C85   H21   S    
O11   V2    S    
N5    C61   S    
S4    O46   D    
C40   C104  A    
N7    C23   A    
C65   C73   A    
C24   O35   S    
C31   H32   S    
C120  C128  A    
C11   C75   A    
C30   C62   A    
C23   O36   S    
C50   H10   S    
C11   O23   S    
O42   H58   S    
C129  C137  A    
C12   N4    A    
C12   O24   S    
C87   C151  A    
C39   S8    S    
C41   H1    S    
C13   N5    A    
C151  H55   S    
O15   C7    A    
C117  C150  A    
C81   H17   S    
C71   C128  A    
C54   H14   S    
O7    V2    S    
C147  H51   S    
S5    O49   D    
C33   C97   A    
C115  C123  A    
N3    C59   S    
C48   H8    S    
C20   C92   A    
N5    C21   A    
C112  C136  A    
S8    O59   D    
C110  C117  A    
C43   C99   A    
C42   H2    S    
C55   C63   A    
O5    V1    S    
C44   H4    S    
C46   C54   A    
C10   C74   A    
C149  H53   S    
C110  C134  A    
N2    C58   S    
C72   C96   A    
C106  C113  A    
C69   C93   A    
N2    C18   A    
C12   C76   A    
C25   H26   S    
C75   C83   A    
C143  H39   S    
N8    C64   S    
C107  C131  A    
C135  C143  A    
C136  C144  A    
C25   C33   A    
C53   C61   A    
O60   H64   S    
C72   C80   A    
C52   C60   A    
C18   C90   A    
C94   C141  A    
S2    O41   D    
C32   C64   A    
C16   N8    A    
C93   C142  A    
C68   C92   A    
C114  C145  A    
C109  C133  A    
C6    C99   S    
N4    C60   S    
C152  H56   S    
C36   S3    S    
C49   C57   A    
C30   C38   A    
S1    O38   D    
C114  C122  A    
C65   C122  A    
C69   C77   A    
C53   H13   S    
C28   C60   A    
C139  H35   S    
O54   H62   S    
C91   C140  A    
C39   C103  A    
C138  H34   S    
C26   C34   A    
C83   H19   S    
C132  C140  A    
O10   V2    S    
C44   C52   A    
C49   H9    S    
S7    O55   D    
C14   N6    A    
C69   C126  A    
C19   C91   A    
C106  C122  A    
S7    O56   D    
O8    C5    A    
C27   C35   A    
S7    O57   S    
C73   C81   A    
C47   H7    S    
C142  H38   S    
C87   H23   S    
C135  H47   S    
O51   H61   S    
C141  H37   S    
C70   C78   A    
C40   S7    S    
C111  C135  A    
C90   C137  A    
C110  C126  A    
C43   H3    S    
O4    C1    A    
C15   O27   S    
C108  C115  A    
S4    O47   D    
O6    V2    S    
C112  C128  A    
C66   C74   A    
C109  C118  A    
C3    C102  S    
C85   C149  A    
C148  H52   S    
C11   N3    A    
O14   C6    A    
C37   S6    S    
C22   O33   S    
C107  C116  A    
C108  C132  A    
N3    C19   A    
C51   H11   S    
C89   C138  A    
C36   C100  A    
C13   O25   S    
C52   H12   S    
C116  C124  A    
C105  C114  A    
C129  H41   S    
C33   S2    S    
C46   C102  A    
C106  C130  A    
C34   S1    S    
O9    C1    A    
C66   C90   A    
C56   C64   A    
C83   C147  A    
C47   C55   A    
C2    C103  S    
O1    C4    A    
C119  C152  A    
C82   C146  A    
C56   H16   S    
O2    C3    A    
C112  C119  A    
C81   C145  A    
C4    C101  S    
O13   V3    S    
S8    O60   S    
C66   C121  A    
O14   V4    S    
O39   H57   S    
C118  C149  A    
C38   C102  A    
C119  C127  A    
C65   C89   A    
C10   N2    A    
C105  C129  A    
S3    O43   D    
C80   C88   A    
C95   C144  A    
C130  H42   S    
S2    O40   D    
C27   C59   A    
C8    C97   S    
C28   C36   A    
C96   C143  A    
C43   C51   A    
C136  H48   S    
C70   C125  A    
C9    C73   A    
C42   C50   A    
C107  C123  A    
C82   H18   S    
S1    O39   S    
N6    C62   S    
C68   C76   A    
S6    O53   D    
S5    O50   D    
C9    O21   S    
C105  C121  A    
O20   V2    S    
C32   C40   A    
C35   C99   A    
C29   H30   S    
O13   C5    A    
C72   C127  A    
C150  H54   S    
O9    V1    S    
S3    O44   D    
C71   C95   A    
N8    C24   A    
O5    C8    A    
C131  H43   S    
C27   H28   S    
C134  H46   S    
S4    O48   S    
C15   C79   A    
O6    C7    A    
C67   C124  A    
C26   H25   S    
C109  C125  A    
C92   C139  A    
C13   C77   A    
C50   C58   A    
C48   C56   A    
C67   C75   A    
C41   C49   A    
O3    V4    S    
C78   C86   A    
C20   O31   S    
C45   H5    S    
C67   C91   A    
C30   H29   S    
O4    V3    S    
C70   C94   A    
N1    C57   S    
C74   C82   A    
C25   C57   A    
C45   C101  A    
C45   C53   A    
C131  C139  A    
C44   C100  A    
S6    O54   S    
N4    C20   A    
C21   O34   S    
S5    O51   S    
C88   H24   S    
O45   H59   S    
N6    C22   A    
C14   C78   A    
C21   C93   A    
C118  C126  A    
C5    C100  S    
C47   C103  A    
C51   C59   A    
C76   C84   A    
C77   C85   A    
C37   C101  A    
C48   C104  A    
C108  C124  A    
C54   C62   A    
C23   C95   A    
C111  C120  A    
C29   C61   A    
C79   C87   A    
