data_mof_unit_5957.cif
_audit_creation_date              2012-12-11T15:55:57-0500
_audit_creation_method            fapswitch 2.2
_symmetry_space_group_name_H-M    P1
_symmetry_Int_Tables_number       1
_space_group_crystal_system       triclinic
_cell_length_a                    11.075965
_cell_length_b                    11.092783
_cell_length_c                    18.704312
_cell_angle_alpha                 90.540393
_cell_angle_beta                  90.679134
_cell_angle_gamma                 59.284032
_cell_volume                      1975.5222438

loop_
_atom_site_label
_atom_site_type_symbol
_atom_type_description
_atom_site_fract_x
_atom_site_fract_y
_atom_site_fract_z
_atom_type_partial_charge
C1    C     C_R   0.359274 0.768193 0.396142 0.530489
C2    C     C_R   0.243337 0.437860 0.197869 -0.133648
C3    C     C_R   0.242984 0.440904 0.271976 -0.112766
C4    C     C_R   0.388933 0.357000 0.385956 0.580123
C5    C     C_R   0.820715 0.763493 0.316512 -0.158113
C6    C     C_R   0.849448 0.648139 0.274924 -0.082912
C7    C     C_R   0.983873 0.527731 0.274664 0.261734
C8    C     C_R   0.098808 0.533566 0.304104 -0.037541
C9    C     C_R   0.372689 0.350848 0.307932 0.058285
C10   C     C_R   0.826615 0.339867 0.175109 0.074531
C11   C     C_R   0.870799 0.228615 0.223075 0.020499
C12   C     C_R   0.618804 0.182641 0.144425 -0.018320
C13   C     C_R   0.836726 0.254439 0.293849 0.056918
C14   C     C_R   0.676204 0.495129 0.268550 -0.153054
C15   C     C_R   0.715582 0.471541 0.195972 -0.124022
C16   C     C_R   0.714252 0.414537 0.394908 0.553630
C17   C     C_3   0.011135 0.103982 0.240681 -0.261350
C18   C     C_3   0.973074 0.136112 0.319336 -0.265760
C19   C     C_R   0.747958 0.389041 0.319365 0.061075
C20   C     C_R   0.365141 0.832363 0.173004 0.035117
C21   C     C_R   0.421935 0.888150 0.221430 -0.089775
C22   C     C_R   0.414422 0.873740 0.294650 0.019641
C23   C     C_R   0.359756 0.342812 0.158816 -0.011816
C24   C     C_R   0.324459 0.721294 0.272109 -0.163992
C25   C     C_R   0.324883 0.740358 0.198560 0.202064
C26   C     C_3   0.391508 0.034754 0.230097 -0.181552
C27   C     C_3   0.375678 0.021194 0.309619 0.085584
C28   C     C_R   0.341868 0.772869 0.603347 0.541331
C29   C     C_R   0.354277 0.800081 0.320897 -0.043693
C30   C     C_R   0.303079 0.316506 0.809993 0.004390
C31   C     C_R   0.411990 0.206317 0.772754 -0.026382
C32   C     C_R   0.420946 0.203483 0.700419 0.000014
C33   C     C_R   0.200550 0.421633 0.694476 -0.076452
C34   C     C_R   0.498330 0.266088 0.267180 0.246919
C35   C     C_R   0.190164 0.423119 0.769381 0.220160
C36   C     C_3   0.566472 0.130126 0.785115 -0.258806
C37   C     C_3   0.578973 0.124784 0.704708 -0.245250
C38   C     C_R   0.323790 0.319166 0.660713 -0.032554
C39   C     C_R   0.808510 0.330764 0.837626 0.015886
C40   C     C_R   0.369276 0.348794 0.594543 0.541003
C41   C     C_R   0.732993 0.462809 0.806091 0.034495
C42   C     C_R   0.722457 0.474742 0.732988 0.046541
C43   C     C_R   0.836672 0.225186 0.719225 -0.179178
C44   C     C_R   0.847593 0.212679 0.793871 -0.177861
C45   C     C_R   0.492859 0.266405 0.191509 -0.038254
C46   C     C_3   0.735665 0.596173 0.814274 0.108878
C47   C     C_3   0.725009 0.607917 0.733194 0.162164
C48   C     C_R   0.783822 0.357315 0.687983 0.036105
C49   C     C_R   0.248726 0.934461 0.814192 -0.000870
C50   C     C_R   0.157586 0.904621 0.777013 0.059351
C51   C     C_R   0.181243 0.865246 0.706078 -0.007415
C52   C     C_R   0.758594 0.379649 0.611685 0.561462
C53   C     C_R   0.370853 0.911202 0.702032 -0.160418
C54   C     C_R   0.348956 0.948081 0.774664 -0.114216
C55   C     C_3   0.113090 0.801517 0.793487 0.109092
C56   C     C_R   0.066021 0.654101 0.343613 -0.062989
C57   C     C_3   0.139225 0.757984 0.715526 -0.193842
C58   C     C_R   0.295997 0.855197 0.669332 0.001372
C59   C     C_R   0.905488 0.316897 0.109732 0.575764
C60   C     C_R   0.329474 0.296847 0.090796 0.554308
C61   C     C_R   0.308861 0.899282 0.104835 0.591157
C62   C     C_R   0.879773 0.310659 0.905978 0.578445
C63   C     C_R   0.294667 0.288822 0.885072 0.550143
C64   C     C_R   0.795289 0.018875 0.031955 -0.060750
C65   C     C_R   0.237708 0.957094 0.891471 0.564232
C66   C     C_R   0.703363 0.163681 0.022800 0.293527
C67   C     C_R   0.929197 0.764570 0.354145 0.224908
C68   C     C_R   0.626300 0.245734 0.080920 -0.018102
C69   C     C_R   0.708158 0.035910 0.151631 -0.126908
C70   C     C_R   0.799982 0.956331 0.096994 -0.145221
Cr1   Cr    Cr6+3 0.601740 0.606840 0.505840 1.033794
Cr2   Cr    Cr6+3 0.291500 0.601560 0.495070 1.028326
Cr3   Cr    Cr6+3 0.606780 0.291630 0.499130 1.049395
Cr4   Cr    Cr6+3 0.062440 0.063060 0.008240 1.027515
Cr5   Cr    Cr6+3 0.062950 0.375000 0.998920 1.020459
Cr6   Cr    Cr6+3 0.374550 0.061770 0.992470 1.028575
H1    H     H_    0.715787 0.853034 0.317210 0.185570
H2    H     H_    0.267374 0.089615 0.329688 0.101420
H3    H     H_    0.120454 0.509510 0.664200 0.176167
H4    H     H_    0.607551 0.025231 0.809607 0.165423
H5    H     H_    0.601198 0.197962 0.810893 0.163508
H6    H     H_    0.625613 0.185948 0.685382 0.177366
H7    H     H_    0.874643 0.131997 0.686360 0.147948
H8    H     H_    0.833597 0.585988 0.836715 0.210829
H9    H     H_    0.627393 0.697126 0.711401 0.146657
H10   H     H_    0.229499 0.649875 0.708062 0.115593
H11   H     H_    0.556143 0.357244 0.072896 0.137372
H12   H     H_    0.766820 0.656692 0.241181 0.134936
H13   H     H_    0.145483 0.669183 0.361701 0.205222
H14   H     H_    0.704197 0.980130 0.197662 0.113547
H15   H     H_    0.145050 0.503821 0.169829 0.180474
H16   H     H_    0.702199 0.132323 0.271206 0.319020
H17   H     H_    0.092265 0.328974 0.255158 0.313159
H18   H     H_    0.601737 0.598894 0.286168 0.118954
H19   H     H_    0.961493 0.054301 0.346447 0.207168
H20   H     H_    0.868209 0.844237 0.103422 0.114929
H21   H     H_    0.190533 0.686748 0.175382 0.315320
H22   H     H_    0.460685 0.013924 0.400956 0.335176
H23   H     H_    0.670395 0.558342 0.158810 0.119720
H24   H     H_    0.101739 0.555342 0.846502 0.322021
H25   H     H_    0.804870 0.945655 0.397820 0.355614
H26   H     H_    0.626658 0.016713 0.682576 0.135277
H27   H     H_    0.899842 0.110049 0.817033 0.210394
H28   H     H_    0.629132 0.682793 0.899299 0.342466
H29   H     H_    0.839151 0.683683 0.704681 0.324146
H30   H     H_    0.454131 0.914161 0.673898 0.120635
H31   H     H_    0.418577 0.975197 0.801334 0.178930
H32   H     H_    0.946283 0.795418 0.816012 0.346993
H33   H     H_    0.859205 0.954070 0.988121 0.107644
H34   H     H_    0.098739 0.117371 0.224238 0.134333
H35   H     H_    0.183577 0.719198 0.832235 0.145814
H36   H     H_    0.042740 0.783638 0.684525 0.166192
H37   H     H_    0.724716 0.151216 0.920253 0.320139
H38   H     H_    0.019276 0.004324 0.222588 0.156617
H39   H     H_    0.035154 0.173416 0.349088 0.135326
H40   H     H_    0.303869 0.642478 0.290361 0.120647
H41   H     H_    0.294562 0.114424 0.202502 0.091445
H42   H     H_    0.485216 0.039288 0.216713 0.180018
O1    O     O_R   0.748670 0.497520 0.427970 -0.501342
O2    O     O_R   0.417470 0.174910 0.067830 -0.508354
O3    O     O_R   0.375160 0.946380 0.070880 -0.511903
O4    O     O_R   0.476470 0.723930 0.429450 -0.511294
O5    O     O_R   0.160500 0.919670 0.926690 -0.498074
O6    O     O_R   0.933140 0.190380 0.936050 -0.507786
O7    O     O_R   0.909010 0.403210 0.925030 -0.536118
O8    O     O_R   0.179590 0.361290 0.918480 -0.501543
O9    O     O_R   0.391360 0.170840 0.907510 -0.517869
O10   O     O_R   0.350950 0.942600 0.922260 -0.485429
O11   O     O_3   0.166650 0.166610 0.999880 -0.290526
O12   O     O_R   0.300170 0.471020 0.567120 -0.506322
O13   O     O_R   0.264730 0.744140 0.416740 -0.523676
O14   O     O_R   0.309440 0.472410 0.418220 -0.547973
O15   O     O_R   0.501630 0.260530 0.414310 -0.424514
O16   O     O_R   0.727920 0.305730 0.428950 -0.475679
O17   O     O_R   0.738670 0.496020 0.588600 -0.471271
O18   O     O_R   0.467190 0.722540 0.578350 -0.512376
O19   O     O_R   0.254720 0.742640 0.577370 -0.506462
O20   O     O_3   0.622680 0.181546 0.303612 -0.666548
O21   O     O_3   0.003578 0.411377 0.238270 -0.712149
O22   O     O_3   0.272487 0.681708 0.151733 -0.689401
O23   O     O_R   0.491630 0.259030 0.574940 -0.523701
O24   O     O_3   0.478197 0.028103 0.350695 -0.683324
O25   O     O_3   0.073639 0.533726 0.799995 -0.719604
O26   O     O_3   0.907011 0.876053 0.396760 -0.707238
O27   O     O_3   0.613718 0.701064 0.847196 -0.733726
O28   O     O_3   0.847603 0.590271 0.702309 -0.674222
O29   O     O_3   0.970358 0.869362 0.810839 -0.740876
O30   O     O_3   0.676763 0.225953 0.956706 -0.708321
O31   O     O_R   0.718640 0.304340 0.577850 -0.518888
O32   O     O_3   0.500010 0.500010 0.500020 -0.294511
O33   O     O_R   0.186620 0.923750 0.087000 -0.475896
O34   O     O_R   0.957350 0.194160 0.084660 -0.514019
O35   O     O_R   0.935120 0.407280 0.085350 -0.488246
O36   O     O_R   0.203800 0.365060 0.067090 -0.496576

loop_
_geom_bond_atom_site_label_1
_geom_bond_atom_site_label_2
_ccdc_geom_bond_type
Cr4   O6    S    
C12   C69   A    
C23   C45   A    
C22   C29   A    
Cr3   O32   S    
C43   H7    S    
C41   C42   A    
Cr1   O4    S    
C66   C68   A    
C26   H41   S    
C5    C67   A    
C27   H2    S    
C16   O16   A    
C17   H34   S    
C8    C56   A    
C62   O6    A    
C59   O35   A    
C7    C8    A    
C39   C41   A    
Cr3   O23   S    
C53   C54   A    
C12   C68   A    
C26   C27   S    
Cr6   O2    S    
C49   C65   S    
C13   C18   S    
H17   O21   S    
Cr6   O3    S    
C47   H9    S    
H37   O30   S    
C36   C37   S    
C38   C40   S    
C10   C15   A    
C31   C36   S    
Cr1   O17   S    
C30   C31   A    
H25   O26   S    
C46   O27   S    
C20   C25   A    
C49   C54   A    
C27   O24   S    
C6    H12   S    
C57   H10   S    
C61   O3    A    
C20   C61   S    
C1    O4    A    
C24   C29   A    
C53   H30   S    
C52   O31   A    
C41   C46   S    
C51   C57   S    
C64   C70   A    
C43   C48   A    
H21   O22   S    
C66   O30   S    
H32   O29   S    
Cr3   O31   S    
C57   H36   S    
Cr4   O5    S    
C47   O28   S    
H16   O20   S    
C21   C22   A    
H22   O24   S    
C18   H19   S    
Cr4   O34   S    
C2    H15   S    
C67   O26   S    
C14   C19   A    
C44   H27   S    
C17   H38   S    
Cr2   O14   S    
Cr2   O19   S    
C23   C60   S    
C13   C19   A    
C65   O10   A    
C25   O22   S    
C24   C25   A    
C4    O14   A    
C3    C8    S    
C36   H4    S    
C16   O1    A    
Cr1   O18   S    
C51   C58   A    
C33   H3    S    
C50   C51   A    
C59   O34   A    
C34   O20   S    
C37   H26   S    
Cr5   O7    S    
C64   C66   A    
C70   H20   S    
C43   C44   A    
C3    C9    A    
C40   O23   A    
Cr6   O11   S    
Cr5   O35   S    
C55   O29   S    
C31   C32   A    
C36   H5    S    
C1    C29   S    
C17   C18   S    
C34   C45   A    
C42   C48   A    
C32   C37   S    
C20   C21   A    
C61   O33   A    
C6    C7    A    
C46   H8    S    
C54   H31   S    
C56   H13   S    
Cr3   O15   S    
C24   H40   S    
C32   C38   A    
C22   C27   S    
C55   C57   S    
C9    C34   A    
Cr6   O10   S    
C37   H6    S    
C52   O17   A    
C5    H1    S    
C69   H14   S    
Cr2   O13   S    
Cr6   O9    S    
C39   C62   S    
C40   O12   A    
C46   C47   S    
C11   C17   S    
C55   H35   S    
C28   O18   A    
H28   O27   S    
C28   O19   A    
C26   H42   S    
C15   H23   S    
C12   C45   S    
C1    O13   A    
H24   O25   S    
C18   H39   S    
C62   O7    A    
C53   C58   A    
Cr2   O12   S    
C39   C44   A    
C28   C58   S    
C56   C67   A    
C30   C35   A    
Cr2   O32   S    
C50   C55   S    
Cr1   O1    S    
Cr5   O8    S    
C2    C3    A    
C7    O21   S    
C11   C13   A    
Cr5   O36   S    
C64   H33   S    
C5    C6    A    
C16   C19   S    
H29   O28   S    
C21   C26   S    
C33   C35   A    
C60   O2    A    
C42   C47   S    
C65   O5    A    
C69   C70   A    
Cr4   O33   S    
C60   O36   A    
C63   O8    A    
C10   C11   A    
Cr1   O32   S    
C48   C52   S    
Cr3   O16   S    
C49   C50   A    
Cr4   O11   S    
C2    C23   A    
C68   H11   S    
C14   C15   A    
C33   C38   A    
C4    C9    S    
C30   C63   S    
C10   C59   S    
C14   H18   S    
C63   O9    A    
Cr5   O11   S    
C35   O25   S    
C4    O15   A    
