data_mof_unit_40471.cif
_audit_creation_date              2013-03-05T15:46:15-0500
_audit_creation_method            fapswitch 2.2
_symmetry_space_group_name_H-M    P1
_symmetry_Int_Tables_number       1
_space_group_crystal_system       triclinic
_cell_length_a                    10.860436
_cell_length_b                    11.168812
_cell_length_c                    9.816855
_cell_angle_alpha                 110.040653
_cell_angle_beta                  97.103437
_cell_angle_gamma                 91.485725
_cell_volume                      1107.09526622

loop_
_atom_site_label
_atom_site_type_symbol
_atom_site_description
_atom_site_fract_x
_atom_site_fract_y
_atom_site_fract_z
_atom_type_partial_charge
O1    O     O_R   0.511820 0.332340 0.577400 -0.600002
O2    O     O_R   0.474400 0.295500 0.332650 -0.582411
C1    C     C_R   0.486855 0.256499 0.442775 0.837827
O3    O     O_R   0.336400 0.518400 0.622370 -0.552749
O4    O     O_R   0.298980 0.481560 0.377620 -0.607797
C2    C     C_R   0.259849 0.495239 0.501258 0.844216
Cu1   Cu    Cu3+1 0.522160 0.521810 0.644910 1.073567
Cu2   Cu    Cu3+1 0.477840 0.478190 0.355090 1.003633
O5    O     O_R   0.525600 0.704500 0.667350 -0.542258
O6    O     O_R   0.488180 0.667660 0.422600 -0.581888
O7    O     O_R   0.701020 0.518440 0.622380 -0.545257
O8    O     O_R   0.663600 0.481600 0.377630 -0.537620
C3    C     C_R   0.505752 0.744771 0.557354 0.987377
C4    C     C_R   0.738958 0.494778 0.496085 0.874313
C5    C     C_3   0.076030 0.430264 0.608892 0.207009
H1    H     H_    0.108632 0.332650 0.577187 0.114871
C6    C     C_3   0.931781 0.420266 0.591245 -0.520791
H2    H     H_    0.896106 0.318106 0.544753 0.151487
H3    H     H_    0.899389 0.455206 0.700125 0.286212
H4    H     H_    0.925657 0.667791 0.674388 0.211933
C7    C     C_3   0.079256 0.635700 0.542981 0.122971
C8    C     C_3   0.052401 0.419829 0.340917 -0.299008
C9    C     C_3   0.121430 0.495140 0.502999 -0.225683
H5    H     H_    0.076116 0.478733 0.275241 0.198793
C10   C     C_3   0.875664 0.494351 0.491466 -0.219681
C11   C     C_3   0.937307 0.635055 0.556698 0.155582
C12   C     C_3   0.908825 0.417523 0.336064 0.144124
H6    H     H_    0.870752 0.317201 0.308984 0.126850
H7    H     H_    0.094696 0.665457 0.449115 0.143557
H8    H     H_    0.543121 0.128113 0.622292 0.190164
C13   C     C_2   0.464839 0.122397 0.412656 -0.325389
C14   C     C_2   0.498284 0.069282 0.513469 -0.183485
H9    H     H_    0.539298 0.946066 0.696521 0.149393
C15   C     C_2   0.508118 0.882169 0.585028 -0.259545
C16   C     C_2   0.478936 0.930714 0.477819 0.026869
H10   H     H_    0.417774 0.068026 0.304073 0.163958
H11   H     H_    0.421688 0.418251 0.851255 0.161745
H12   H     H_    0.588710 0.573736 0.153338 0.213895
N1    N     N_2   0.444530 0.445420 0.137360 -0.314099
C17   C     C_2   0.515922 0.504833 0.081006 0.067659
N2    N     N_2   0.555520 0.554510 0.862630 -0.097552
C18   C     C_2   0.496443 0.485602 0.920451 0.009007
H13   H     H_    0.377088 0.379449 0.066379 0.196576
N3    N     N_R   0.126778 0.495143 0.763667 0.140966
O9    O     O_R   0.074710 0.593281 0.843873 -0.352008
O10   O     O_R   0.196849 0.433459 0.829966 -0.434988
N4    N     N_R   0.850774 0.460085 0.219126 0.158961
O11   O     O_R   0.883708 0.570575 0.212790 -0.285198
O12   O     O_R   0.775935 0.379875 0.110504 -0.327525
N5    N     N_R   0.873706 0.725643 0.497301 0.159639
O13   O     O_R   0.763460 0.756023 0.528570 -0.379057
O14   O     O_R   0.934596 0.798426 0.445416 -0.318257
C19   C     C_R   0.430130 0.850873 0.323896 0.163618
C20   C     C_R   0.308611 0.792867 0.288516 -0.161590
C21   C     C_R   0.257620 0.732636 0.142073 -0.112637
C22   C     C_R   0.325547 0.735721 0.030974 -0.066250
C23   C     C_R   0.445107 0.795392 0.065797 -0.193034
C24   C     C_R   0.499786 0.847663 0.211397 -0.138513
H14   H     H_    0.253275 0.796232 0.374067 0.163858
H15   H     H_    0.164247 0.687517 0.115572 0.222691
H16   H     H_    0.286420 0.693971 0.917443 0.247623
H17   H     H_    0.494662 0.801976 0.979516 0.212127
H18   H     H_    0.592882 0.893936 0.237120 0.186916
N6    N     N_R   0.674570 0.605442 0.931369 0.241325
O15   O     O_R   0.708411 0.721690 0.943993 -0.327834
O16   O     O_R   0.761025 0.527886 0.935284 -0.255222
N7    N     N_R   0.154252 0.731275 0.672129 0.136577
O17   O     O_R   0.101313 0.809279 0.776266 -0.333730
O18   O     O_R   0.267988 0.763140 0.663424 -0.429951
C25   C     C_R   0.095105 0.286728 0.260719 0.112454
C26   C     C_R   0.156681 0.268830 0.137528 -0.052089
C27   C     C_R   0.198682 0.150285 0.062580 -0.107561
C28   C     C_R   0.177338 0.046620 0.106917 -0.072073
C29   C     C_R   0.111982 0.060559 0.224437 -0.101558
C30   C     C_R   0.069647 0.179072 0.299727 -0.168951
H19   H     H_    0.172308 0.347074 0.099006 0.154383
H20   H     H_    0.247316 0.138716 0.969543 0.153448
H21   H     H_    0.209767 0.955122 0.048600 0.188914
H22   H     H_    0.092764 0.979002 0.256246 0.174621
H23   H     H_    0.014125 0.183907 0.384794 0.131537

loop_
_geom_bond_atom_site_label_1
_geom_bond_atom_site_label_2
_geom_bond_distance
_ccdc_geom_bond_type
H8    C14   1.088010 S    
C7    C11   1.564047 S    
C16   C19   1.487715 S    
C28   C29   1.394331 A    
C21   C22   1.399417 A    
Cu1   Cu2   2.694975 S    
N4    O12   1.301311 A    
C19   C20   1.403618 A    
Cu1   O7    1.981910 S    
C5    N3    1.468000 S    
C11   N5    1.477073 S    
O4    C2    1.296519 A    
O7    C4    1.297760 A    
C5    H1    1.107048 S    
C22   C23   1.391487 A    
C5    C6    1.551549 S    
C15   C16   1.348928 D    
N2    C18   1.300014 D    
H11   C18   1.080800 S    
O5    C3    1.301961 A    
C13   C14   1.337145 D    
N5    O14   1.302599 A    
C28   H21   1.078735 S    
C25   C26   1.411011 A    
Cu2   N1    2.024632 S    
C30   H23   1.076662 S    
C17   C18   1.502753 S    
O1    Cu1   1.984441 S    
C21   H15   1.080904 S    
C7    N7    1.477231 S    
O3    Cu1   2.000072 S    
N3    O10   1.299757 A    
H9    C15   1.087370 S    
C20   H14   1.082721 S    
C29   C30   1.398147 A    
N7    O17   1.302144 A    
C14   C16   1.468180 S    
C23   H17   1.079744 S    
O3    C2    1.305858 A    
N1    C17   1.295590 D    
N1    H13   1.028993 S    
N5    O13   1.297493 A    
C10   C11   1.574020 S    
C7    H7    1.110360 S    
O1    C1    1.292227 A    
N6    O16   1.299802 A    
C27   H20   1.082507 S    
N4    O11   1.299948 A    
Cu2   O8    2.000072 S    
C6    H2    1.112086 S    
C22   H16   1.075431 S    
C1    C13   1.431183 S    
O8    C4    1.297995 A    
C29   H22   1.082595 S    
C7    C9    1.577284 S    
C8    H5    1.112576 S    
C25   C30   1.411859 A    
N3    O9    1.300727 A    
C12   N4    1.466905 S    
C24   H18   1.083255 S    
Cu1   O5    1.974645 S    
C20   C21   1.395320 A    
C8    C9    1.598827 S    
O2    Cu2   1.974645 S    
C27   C28   1.392892 A    
O6    C3    1.294724 A    
O4    Cu2   1.981910 S    
C19   C24   1.405034 A    
C10   C12   1.564620 S    
C8    C12   1.553407 S    
C6    C10   1.565104 S    
N6    O15   1.299945 A    
O2    C1    1.290899 A    
C3    C15   1.462824 S    
H12   C17   1.084647 S    
C23   C24   1.391643 A    
C26   H19   1.081751 S    
H4    C11   1.110649 S    
C2    C9    1.505472 S    
C5    C9    1.572655 S    
C6    H3    1.110286 S    
Cu1   N2    2.024707 S    
C4    C10   1.491053 S    
C26   C27   1.396098 A    
Cu2   O6    1.984441 S    
C12   H6    1.114339 S    
C13   H10   1.082487 S    
N2    N6    1.390543 S    
N7    O18   1.297654 A    
C8    C25   1.539073 S    
