data_mof_unit_8899.cif
_audit_creation_date              2012-12-10T17:53:25-0500
_audit_creation_method            fapswitch 2.2
_symmetry_space_group_name_H-M    P1
_symmetry_Int_Tables_number       1
_space_group_crystal_system       triclinic
_cell_length_a                    23.431535
_cell_length_b                    10.64001
_cell_length_c                    9.89591
_cell_angle_alpha                 89.995258
_cell_angle_beta                  89.760564
_cell_angle_gamma                 92.073821
_cell_volume                      2465.52929463

loop_
_atom_site_label
_atom_site_type_symbol
_atom_type_description
_atom_site_fract_x
_atom_site_fract_y
_atom_site_fract_z
_atom_type_partial_charge
C1    C     C_R   0.500664 0.260622 0.500054 0.836465
C2    C     C_R   0.119981 0.589441 0.490123 0.514177
C3    C     C_R   0.235951 0.516964 0.615786 -0.162453
C4    C     C_R   0.389320 0.500374 0.500490 0.857773
C5    C     C_R   0.295407 0.526939 0.619171 0.177924
C6    C     C_R   0.326844 0.497823 0.501268 -0.084643
C7    C     C_R   0.297846 0.462029 0.382496 -0.234667
C8    C     C_R   0.238676 0.454198 0.380409 -0.089649
C9    C     C_R   0.207917 0.481650 0.496885 0.264344
C10   C     C_R   0.762033 0.428118 0.400487 -0.218920
C11   C     C_R   0.703250 0.441020 0.389876 0.165348
C12   C     C_R   0.968302 0.240366 0.515774 0.578663
C13   C     C_R   0.672763 0.488109 0.501353 -0.107410
C14   C     C_R   0.701837 0.520650 0.620910 -0.291654
C15   C     C_R   0.760549 0.507572 0.630900 0.262512
C16   C     C_R   0.502531 0.739629 0.499986 0.973005
C17   C     C_R   0.790633 0.462808 0.518944 0.242978
C18   C     C_R   0.599691 0.143330 0.608996 -0.184661
C19   C     C_R   0.646840 0.084489 0.661308 -0.221131
C20   C     C_R   0.648489 0.954164 0.660583 -0.173989
C21   C     C_R   0.603016 0.881772 0.607783 0.574580
C22   C     C_R   0.554024 0.939961 0.555871 -0.033742
C23   C     C_R   0.027660 0.243570 0.509845 0.565691
C24   C     C_R   0.552745 0.071901 0.556302 0.036823
C25   C     C_R   0.504911 0.128866 0.500052 -0.056241
C26   C     C_R   0.460128 0.060155 0.440990 -0.193100
C27   C     C_R   0.460904 0.931834 0.441138 -0.216668
C28   C     C_R   0.610620 0.497373 0.499685 0.981957
C29   C     C_R   0.506600 0.872383 0.499692 -0.107754
C30   C     C_R   0.425464 0.333217 0.140646 -0.336346
C31   C     C_R   0.388731 0.250854 0.070799 0.605530
C32   C     C_R   0.388448 0.250857 0.930185 0.106923
C33   C     C_R   0.425059 0.334687 0.860248 -0.319772
C34   C     C_R   0.058700 0.359152 0.502024 -0.242407
C35   C     C_R   0.463125 0.418189 0.928013 0.153465
C36   C     C_R   0.463270 0.417804 0.072582 0.101864
C37   C     C_R   0.534940 0.579086 0.071183 -0.103781
C38   C     C_R   0.535094 0.578728 0.927949 -0.116381
C39   C     C_R   0.880474 0.577543 0.511033 0.560557
C40   C     C_R   0.878742 0.352999 0.520645 0.572998
C41   C     C_R   0.938559 0.352851 0.514411 -0.248137
C42   C     C_R   0.969308 0.469350 0.506222 -0.096793
C43   C     C_R   0.939965 0.582421 0.504820 -0.001005
C44   C     C_3   0.679526 0.496615 0.161871 -0.730587
C45   C     C_R   0.029405 0.472905 0.499529 -0.132406
C46   C     C_3   0.802575 0.439194 0.838884 -0.774469
C47   C     C_3   0.368896 0.040018 0.850092 -0.682075
C48   C     C_3   0.066133 0.863203 0.334800 -0.542703
C49   C     C_3   0.338554 0.700205 0.743185 -0.710453
C50   C     C_R   0.060024 0.590037 0.491152 0.005295
C51   C     C_R   0.029717 0.702962 0.486728 0.173513
C52   C     C_R   0.970256 0.697763 0.495362 -0.203640
C53   C     C_R   0.118448 0.364692 0.498170 0.593476
F1    F     F_    0.940397 0.126410 0.523328 -0.588167
F2    F     F_    0.608743 0.755877 0.604612 -0.707248
F3    F     F_    0.054432 0.132666 0.512805 -0.617078
F4    F     F_    0.352564 0.172191 0.140821 -0.660015
H1    H     H_    0.678953 0.556270 0.707416 0.192270
H2    H     H_    0.563777 0.642958 0.873712 0.172291
H3    H     H_    0.947858 0.785105 0.492656 0.220862
H4    H     H_    0.211235 0.539269 0.704853 0.143291
H5    H     H_    0.320855 0.438946 0.291193 0.187156
H6    H     H_    0.216620 0.427354 0.288295 0.153801
H7    H     H_    0.786013 0.394383 0.314784 0.157920
H8    H     H_    0.686827 0.316248 0.234977 0.230908
H9    H     H_    0.724596 0.509927 0.127679 0.226740
H10   H     H_    0.663622 0.587964 0.197728 0.254546
H11   H     H_    0.653196 0.464467 0.074593 0.229941
H12   H     H_    0.424018 0.106173 0.397134 0.179029
H13   H     H_    0.770519 0.614612 0.804091 0.236999
H14   H     H_    0.762470 0.390886 0.874870 0.231267
H15   H     H_    0.826924 0.474769 0.927876 0.245125
H16   H     H_    0.829107 0.370899 0.784753 0.271572
H17   H     H_    0.338362 0.201953 0.765482 0.226907
H18   H     H_    0.409620 0.036547 0.792290 0.219318
H19   H     H_    0.335891 0.981216 0.797249 0.234658
H20   H     H_    0.374835 0.000318 0.952692 0.273907
H21   H     H_    0.040618 0.891180 0.532433 0.295653
H22   H     H_    0.024127 0.879410 0.287257 0.213500
H23   H     H_    0.600888 0.244851 0.608778 0.156968
H24   H     H_    0.088900 0.791497 0.275723 0.227887
H25   H     H_    0.092208 0.952395 0.332388 0.281769
H26   H     H_    0.301541 0.538866 0.827278 0.224677
H27   H     H_    0.299609 0.756783 0.741433 0.238154
H28   H     H_    0.366167 0.726436 0.655315 0.238461
H29   H     H_    0.362734 0.722352 0.836996 0.235514
H30   H     H_    0.682508 0.140291 0.701044 0.181946
H31   H     H_    0.685615 0.908782 0.699637 0.177203
H32   H     H_    0.425213 0.878334 0.397635 0.163799
H33   H     H_    0.563347 0.643890 0.124763 0.146744
H34   H     H_    0.422736 0.328298 0.247843 0.230192
H35   H     H_    0.422801 0.330802 0.753096 0.230303
N1    N     N_R   0.851437 0.464237 0.519364 -0.350164
N2    N     N_R   0.147210 0.478282 0.493607 -0.366840
N3    N     N_R   0.499460 0.498800 0.142780 -0.094858
N4    N     N_R   0.499440 0.498720 0.857170 -0.101570
N5    N     N_2   0.675225 0.403585 0.268414 -0.283819
N6    N     N_2   0.789564 0.543353 0.751748 -0.286624
N7    N     N_2   0.350440 0.168036 0.858398 -0.256346
N8    N     N_2   0.058230 0.822632 0.473378 -0.240265
N9    N     N_2   0.322848 0.567478 0.740492 -0.288327
O1    O     O_R   0.500000 0.316780 0.614690 -0.646583
O2    O     O_R   0.583850 0.500050 0.614640 -0.600837
O3    O     O_R   0.583840 0.500030 0.385310 -0.590443
O4    O     O_2   0.851577 0.685033 0.507059 -0.532348
O5    O     O_2   0.847852 0.243690 0.528269 -0.478077
O6    O     O_2   0.147965 0.258112 0.500808 -0.463617
O7    O     O_2   0.151350 0.698294 0.487081 -0.514467
O8    O     O_R   0.500000 0.316750 0.385360 -0.626739
O9    O     O_R   0.416160 0.499970 0.614690 -0.608425
O10   O     O_R   0.416150 0.499950 0.385360 -0.643385
O11   O     O_R   0.500000 0.683250 0.614640 -0.583093
O12   O     O_R   0.500000 0.683220 0.385310 -0.621182
Zn1   Zn    Zn3+2 0.500000 0.500020 0.653130 0.968097
Zn2   Zn    Zn3+2 0.500000 0.499980 0.346870 0.962916

loop_
_geom_bond_atom_site_label_1
_geom_bond_atom_site_label_2
_ccdc_geom_bond_type
C22   C29   A    
C27   C29   A    
C41   C42   A    
C44   H9    S    
C35   C36   A    
C28   O2    A    
C40   N1    A    
C16   O12   A    
O11   Zn1   S    
C7    C8    A    
C35   N4    A    
C12   C23   A    
C26   C27   A    
C37   C38   A    
C37   H33   S    
C3    C9    A    
C48   H22   S    
C47   H19   S    
C19   H30   S    
C49   N9    S    
C30   C31   A    
C43   C52   A    
C10   C17   A    
C47   N7    S    
C48   H24   S    
C37   N3    A    
C15   C17   A    
C18   C19   A    
C28   O3    A    
C39   N1    A    
C2    C50   A    
C1    O8    A    
C19   C20   A    
N3    Zn2   S    
C8    C9    A    
C13   C28   S    
C18   C24   A    
C52   H3    S    
O9    Zn1   S    
C46   H15   S    
C46   N6    S    
C21   C22   A    
C1    C25   S    
N4    Zn1   S    
C14   H1    S    
C3    H4    S    
C48   N8    S    
C5    N9    S    
C51   C52   A    
C49   H28   S    
C2    N2    A    
O2    Zn1   S    
C24   C25   A    
C4    C6    S    
C33   H35   S    
C21   F2    S    
C39   C43   A    
C25   C26   A    
C42   C45   A    
C7    H5    S    
C12   C41   A    
O1    Zn1   S    
O3    Zn2   S    
C44   N5    S    
C53   O6    S    
C31   C32   A    
C23   C34   A    
C50   C51   A    
C34   C45   A    
C23   F3    S    
C46   H14   S    
H17   N7    S    
C40   C41   A    
C4    O10   A    
H21   N8    S    
C22   C24   A    
C44   H11   S    
C17   N1    S    
C42   C43   A    
C47   H20   S    
C15   N6    S    
C16   O11   A    
C40   O5    S    
C49   H27   S    
C51   N8    S    
C39   O4    S    
C4    O9    A    
H26   N9    S    
C53   N2    A    
C49   H29   S    
C10   H7    S    
C30   H34   S    
C3    C5    A    
C6    C7    A    
C32   N7    S    
C30   C36   A    
C11   N5    S    
C32   C33   A    
C31   F4    S    
C16   C29   S    
H8    N5    S    
C11   C13   A    
C36   N3    A    
C5    C6    A    
C45   C50   A    
C20   H31   S    
C2    O7    S    
C33   C35   A    
C48   H25   S    
C27   H32   S    
C1    O1    A    
C10   C11   A    
O8    Zn2   S    
C8    H6    S    
C47   H18   S    
C38   H2    S    
C20   C21   A    
C34   C53   A    
C18   H23   S    
C38   N4    A    
C26   H12   S    
C14   C15   A    
C44   H10   S    
O10   Zn2   S    
C13   C14   A    
C9    N2    S    
C46   H16   S    
C12   F1    S    
H13   N6    S    
O12   Zn2   S    
