data_mof_unit_24179.cif
_audit_creation_date              2012-12-10T17:25:16-0500
_audit_creation_method            fapswitch 2.2
_symmetry_space_group_name_H-M    P1
_symmetry_Int_Tables_number       1
_space_group_crystal_system       triclinic
_cell_length_a                    27.746633
_cell_length_b                    10.850007
_cell_length_c                    9.628547
_cell_angle_alpha                 91.398457
_cell_angle_beta                  90.380883
_cell_angle_gamma                 93.108053
_cell_volume                      2893.46711347

loop_
_atom_site_label
_atom_site_type_symbol
_atom_type_description
_atom_site_fract_x
_atom_site_fract_y
_atom_site_fract_z
_atom_type_partial_charge
C1    C     C_R   0.495083 0.262833 0.498342 0.778775
C2    C     C_R   0.278090 0.513079 0.617611 -0.102534
C3    C     C_R   0.253246 0.498616 0.490694 0.361387
C4    C     C_R   0.101653 0.502955 0.463935 -0.049217
C5    C     C_R   0.124640 0.390652 0.450818 -0.008351
C6    C     C_R   0.096902 0.280675 0.426651 -0.149335
C7    C     C_R   0.129670 0.613515 0.487438 -0.068039
C8    C     C_R   0.354379 0.498726 0.497252 -0.039402
C9    C     C_R   0.645309 0.494952 0.501259 -0.046379
C10   C     C_R   0.971882 0.395076 0.417556 0.040998
C11   C     C_R   0.977348 0.612891 0.496242 0.038145
C12   C     C_R   0.407508 0.499461 0.499447 0.796748
C13   C     C_R   0.949315 0.503663 0.459986 0.079973
C14   C     C_R   0.942454 0.291914 0.370179 -0.212651
C15   C     C_R   0.892353 0.293609 0.372645 -0.144108
C16   C     C_R   0.869871 0.397294 0.424542 -0.023613
C17   C     C_R   0.898309 0.502305 0.469361 -0.047185
C18   C     C_R   0.875781 0.605436 0.525243 -0.018193
C19   C     C_R   0.825210 0.602535 0.532513 0.535286
C20   C     C_R   0.819412 0.398711 0.432636 0.539271
C21   C     C_R   0.721539 0.423665 0.586032 -0.133990
C22   C     C_R   0.670907 0.419244 0.591605 0.114957
C23   C     C_R   0.500680 0.738414 0.502704 0.778853
C24   C     C_R   0.670991 0.570482 0.407679 -0.265264
C25   C     C_R   0.721135 0.573159 0.403598 -0.102153
C26   C     C_R   0.746540 0.499833 0.492530 0.324470
C27   C     C_R   0.022855 0.392571 0.427765 0.056962
C28   C     C_R   0.050701 0.504510 0.454991 0.043905
C29   C     C_R   0.027971 0.617900 0.473600 -0.011214
C30   C     C_R   0.046961 0.281410 0.415154 -0.212010
C31   C     C_R   0.107278 0.725960 0.490084 -0.146488
C32   C     C_R   0.954256 0.709666 0.564559 -0.236692
C33   C     C_R   0.904253 0.707215 0.576246 -0.144561
C34   C     C_R   0.592320 0.497410 0.500590 0.788841
C35   C     C_R   0.057283 0.730287 0.470445 0.137644
C36   C     C_R   0.448982 0.123227 0.724377 -0.185364
C37   C     C_R   0.450873 0.077625 0.857695 -0.153541
C38   C     C_R   0.475266 0.970889 0.880442 0.205150
C39   C     C_R   0.489649 0.899485 0.766707 -0.196323
C40   C     C_R   0.486381 0.942384 0.629933 0.066419
C41   C     C_R   0.473330 0.064947 0.614967 0.107188
C42   C     C_R   0.488357 0.128352 0.495524 -0.106818
C43   C     C_R   0.504307 0.062573 0.380085 -0.218946
C44   C     C_R   0.507481 0.935913 0.384959 -0.216603
C45   C     C_R   0.175104 0.391108 0.462350 0.531907
C46   C     C_R   0.499349 0.873859 0.508798 -0.100624
C47   C     C_R   0.566950 0.658277 0.148621 -0.160460
C48   C     C_R   0.601129 0.731117 0.078994 -0.211336
C49   C     C_R   0.601539 0.729475 0.935819 -0.192507
C50   C     C_R   0.567646 0.655354 0.861491 -0.183112
C51   C     C_R   0.533368 0.576103 0.927879 0.193219
C52   C     C_R   0.533150 0.576866 0.077217 0.216714
C53   C     C_R   0.468170 0.427653 0.071270 -0.074344
C54   C     C_R   0.467937 0.428527 0.923715 -0.055868
C55   C     C_R   0.180070 0.609646 0.499184 0.546345
C56   C     C_R   0.278880 0.483998 0.367308 -0.107226
C57   C     C_R   0.329086 0.484299 0.370334 -0.211691
C58   C     C_R   0.328410 0.512722 0.621080 -0.216879
Cu1   Cu    Cu3+1 0.500000 0.499990 0.640660 0.926292
Cu2   Cu    Cu3+1 0.500000 0.500010 0.359340 0.934334
H1    H     H_    0.346923 0.524122 0.720309 0.158329
H2    H     H_    0.259804 0.472997 0.268924 0.136332
H3    H     H_    0.129087 0.811671 0.499195 0.194787
H4    H     H_    0.974711 0.787125 0.612598 0.149539
H5    H     H_    0.652188 0.628807 0.338256 0.149645
H6    H     H_    0.888053 0.785187 0.626205 0.186101
H7    H     H_    0.740329 0.631806 0.330597 0.148936
H8    H     H_    0.515297 0.109829 0.287022 0.179437
H9    H     H_    0.431186 0.208025 0.708753 0.143279
H10   H     H_    0.437455 0.131415 0.943971 0.123422
H11   H     H_    0.258380 0.524417 0.713348 0.138006
H12   H     H_    0.509010 0.820313 0.790575 0.171995
H13   H     H_    0.518386 0.886180 0.293117 0.171527
H14   H     H_    0.442026 0.368206 0.124020 0.130686
H15   H     H_    0.568300 0.671108 0.258191 0.189373
H16   H     H_    0.626716 0.791723 0.136831 0.150649
H17   H     H_    0.627283 0.789195 0.881716 0.156755
H18   H     H_    0.568380 0.668214 0.752513 0.195509
H19   H     H_    0.441176 0.371110 0.867219 0.124387
H20   H     H_    0.113670 0.192986 0.417358 0.185135
H21   H     H_    0.741901 0.366387 0.653015 0.140630
H22   H     H_    0.871295 0.212339 0.335366 0.186876
H23   H     H_    0.957226 0.209291 0.327701 0.140329
H24   H     H_    0.027963 0.192579 0.401406 0.139058
H25   H     H_    0.348023 0.472961 0.273250 0.155875
N1    N     N_R   0.201629 0.499584 0.486178 -0.468113
N2    N     N_R   0.798182 0.500468 0.485678 -0.462494
N3    N     N_R   0.500460 0.501210 0.147910 -0.196516
N4    N     N_R   0.500480 0.501290 0.852040 -0.197085
O1    O     O_R   0.500000 0.319640 0.618810 -0.570797
O2    O     O_2   0.791742 0.299501 0.387309 -0.540363
O3    O     O_2   0.207405 0.715117 0.521172 -0.533888
O4    O     O_2   0.803208 0.700526 0.586531 -0.542372
O5    O     O_R   0.500000 0.319660 0.381240 -0.579640
O6    O     O_R   0.430260 0.500010 0.618770 -0.586003
O7    O     O_R   0.430270 0.500030 0.381200 -0.579488
O8    O     O_R   0.500000 0.680340 0.618760 -0.608204
O9    O     O_R   0.500000 0.680360 0.381190 -0.594483
O10   O     O_R   0.569730 0.499970 0.618800 -0.596482
O11   O     O_R   0.569740 0.499990 0.381230 -0.588845
O12   O     O_2   0.197539 0.284126 0.449974 -0.536771
C59   C     C_3   0.038101 0.853348 0.428809 -0.437312
C60   C     C_3   0.064444 0.907735 0.303163 -0.813054
H26   H     H_    0.102115 0.939208 0.330353 0.253915
H27   H     H_    0.064616 0.838186 0.216561 0.265066
H28   H     H_    0.045626 0.989024 0.267108 0.233906
H29   H     H_    0.999700 0.843243 0.396471 0.223839
H30   H     H_    0.041733 0.920362 0.517884 0.201380
C61   C     C_3   0.494911 0.946935 0.021889 -0.424461
C62   C     C_3   0.545889 0.008355 0.034666 -0.819099
H31   H     H_    0.568727 0.978914 0.946898 0.256293
H32   H     H_    0.544196 0.110425 0.033867 0.252851
H33   H     H_    0.563805 0.982771 0.132030 0.235447
H34   H     H_    0.471284 0.984988 0.103138 0.204198
H35   H     H_    0.496163 0.845978 0.037427 0.210011
C63   C     C_3   0.646029 0.329314 0.689799 -0.398467
C64   C     C_3   0.622057 0.218153 0.611039 -0.766153
H36   H     H_    0.595725 0.247506 0.533171 0.243867
H37   H     H_    0.649824 0.165312 0.556785 0.253018
H38   H     H_    0.602724 0.156560 0.685209 0.238155
H39   H     H_    0.672562 0.293834 0.763912 0.197376
H40   H     H_    0.619421 0.375683 0.755342 0.233413

loop_
_geom_bond_atom_site_label_1
_geom_bond_atom_site_label_2
_ccdc_geom_bond_type
C10   C27   A    
C21   C26   A    
C1    O1    A    
Cu1   O10   S    
C41   C42   A    
C48   H16   S    
C53   H14   S    
C25   H7    S    
C7    C55   A    
C35   C59   S    
Cu2   N3    S    
C53   C54   A    
C63   C64   S    
C40   C46   A    
C37   C38   A    
C63   H40   S    
C36   C37   A    
Cu2   O9    S    
C64   H37   S    
C5    C6    A    
C9    C22   A    
C16   C17   A    
C15   C16   A    
C20   N2    A    
C56   C57   A    
C18   C19   A    
Cu1   N4    S    
C62   H31   S    
C8    C58   A    
C49   H17   S    
C43   H8    S    
C34   O11   A    
C39   H12   S    
C12   O6    A    
C59   H30   S    
C60   H28   S    
C19   O4    S    
C8    C12   S    
C58   H1    S    
C22   C63   S    
Cu1   Cu2   S    
C23   C46   S    
C21   C22   A    
C3    N1    S    
C36   C41   A    
C59   C60   S    
Cu1   O6    S    
C14   H23   S    
C4    C7    A    
C50   H18   S    
C4    C28   A    
C44   C46   A    
C33   H6    S    
C17   C18   A    
C15   H22   S    
C20   O2    S    
C7    C31   A    
C63   H39   S    
C51   C52   A    
C31   H3    S    
C52   N3    A    
C24   C25   A    
C32   H4    S    
C54   N4    A    
C10   C14   A    
C64   H38   S    
C39   C40   A    
C26   N2    S    
C25   C26   A    
C5    C45   A    
Cu1   O1    S    
C43   C44   A    
C55   O3    S    
C8    C57   A    
C3    C56   A    
C6    H20   S    
C47   C48   A    
C16   C20   A    
C50   C51   A    
C59   H29   S    
C60   H27   S    
C38   C61   S    
C62   H33   S    
C45   O12   S    
C61   H34   S    
C24   H5    S    
C40   C41   A    
C6    C30   A    
C21   H21   S    
C11   C32   A    
C9    C34   S    
Cu1   O8    S    
C31   C35   A    
C42   C43   A    
C2    H11   S    
Cu2   O7    S    
C60   H26   S    
C36   H9    S    
C54   H19   S    
C28   C29   A    
C23   O8    A    
C4    C5    A    
Cu2   O11   S    
C10   C13   A    
C1    O5    A    
C2    C58   A    
C9    C24   A    
C47   C52   A    
C34   O10   A    
C29   C35   A    
C19   N2    A    
C13   C17   A    
C37   H10   S    
C32   C33   A    
C55   N1    A    
C2    C3    A    
C47   H15   S    
C64   H36   S    
C51   N4    A    
C11   C13   A    
C38   C39   A    
C48   C49   A    
C57   H25   S    
C45   N1    A    
C53   N3    A    
C56   H2    S    
C30   H24   S    
C44   H13   S    
C18   C33   A    
C62   H32   S    
C61   H35   S    
C1    C42   S    
C23   O9    A    
C11   C29   A    
C49   C50   A    
C27   C28   A    
C14   C15   A    
C12   O7    A    
C61   C62   S    
C27   C30   A    
Cu2   O5    S    
