data_mof_unit_57523.cif
_audit_creation_date              2012-10-26T21:33:19-0400
_audit_creation_method            fapswitch 2.2
_symmetry_space_group_name_H-M    P1
_symmetry_Int_Tables_number       1
_space_group_crystal_system       triclinic
_cell_length_a                    28.250866
_cell_length_b                    18.475932
_cell_length_c                    17.017594
_cell_angle_alpha                 89.999791
_cell_angle_beta                  61.215607
_cell_angle_gamma                 89.999976
_cell_volume                      7784.97846083

loop_
_atom_site_label
_atom_site_type_symbol
_atom_type_description
_atom_site_fract_x
_atom_site_fract_y
_atom_site_fract_z
_atom_type_partial_charge
C1    C     C_R   0.703050 0.270919 0.675148 0.917309
C2    C     C_R   0.091479 0.504738 0.524181 -0.023613
C3    C     C_R   0.196993 0.206890 0.898997 -0.039994
C4    C     C_R   0.075083 0.098581 0.933223 0.936259
C5    C     C_R   0.926204 0.900193 0.065715 0.913756
C6    C     C_R   0.924916 0.098581 0.066777 0.936262
C7    C     C_R   0.073797 0.900193 0.934285 0.913754
C8    C     C_R   0.575084 0.598581 0.933223 0.936257
C9    C     C_R   0.426204 0.400193 0.065715 0.913755
C10   C     C_R   0.424916 0.598581 0.066777 0.936255
C11   C     C_R   0.573797 0.400193 0.934285 0.913752
C12   C     C_R   0.539713 0.136658 0.528966 0.012044
C13   C     C_R   0.408515 0.004738 0.475836 -0.023615
C14   C     C_R   0.447738 0.875026 0.508489 0.010797
C15   C     C_R   0.460285 0.136658 0.471040 0.012046
C16   C     C_R   0.552264 0.875027 0.491510 0.010798
C17   C     C_R   0.039712 0.636659 0.528971 0.012044
C18   C     C_R   0.947725 0.375028 0.508521 0.010811
C19   C     C_R   0.960284 0.636658 0.471044 0.012042
C20   C     C_R   0.052250 0.375026 0.491548 0.010804
C21   C     C_R   0.520551 0.203360 0.512923 0.177399
C22   C     C_R   0.473678 0.808083 0.504183 0.174959
C23   C     C_R   0.479445 0.203360 0.487086 0.177401
C24   C     C_R   0.591485 0.004738 0.524167 -0.023615
C25   C     C_R   0.526324 0.808083 0.495814 0.174959
C26   C     C_R   0.020552 0.703361 0.512922 0.177401
C27   C     C_R   0.973661 0.308084 0.504229 0.174940
C28   C     C_R   0.979447 0.703360 0.487085 0.177402
C29   C     C_R   0.026307 0.308083 0.495863 0.174924
C30   C     C_R   0.478706 0.071590 0.489623 -0.046427
C31   C     C_R   0.524425 0.940007 0.500976 -0.041856
C32   C     C_R   0.521292 0.071590 0.510382 -0.046429
C33   C     C_R   0.475575 0.940007 0.499025 -0.041857
C34   C     C_R   0.978703 0.571591 0.489634 -0.046428
C35   C     C_R   0.106663 0.380622 0.472166 0.213349
C36   C     C_R   0.024415 0.440007 0.501004 -0.041853
C37   C     C_R   0.021288 0.571591 0.510394 -0.046428
C38   C     C_R   0.975565 0.440008 0.499051 -0.041861
C39   C     C_R   0.954265 0.505618 0.488221 0.022533
C40   C     C_R   0.045721 0.505618 0.511817 0.022534
C41   C     C_R   0.454271 0.005618 0.488205 0.022536
C42   C     C_R   0.545728 0.005618 0.511798 0.022535
C43   C     C_R   0.878237 0.440500 0.491966 -0.041608
C44   C     C_R   0.107768 0.568361 0.549561 -0.026415
C45   C     C_R   0.121751 0.440497 0.508063 -0.041593
C46   C     C_R   0.924538 0.631807 0.434201 0.224216
C47   C     C_R   0.892229 0.568360 0.450452 -0.026397
C48   C     C_R   0.378242 0.940497 0.491955 -0.041590
C49   C     C_R   0.607770 0.068360 0.549554 -0.026413
C50   C     C_R   0.621758 0.940498 0.508047 -0.041599
C51   C     C_R   0.392229 0.068360 0.450450 -0.026426
C52   C     C_R   0.835278 0.438547 0.469939 -0.241276
C53   C     C_R   0.156326 0.566239 0.556111 -0.241799
C54   C     C_R   0.164718 0.438545 0.530073 -0.241289
C55   C     C_R   0.843674 0.566239 0.443892 -0.241816
C56   C     C_R   0.335279 0.938545 0.469937 -0.241299
C57   C     C_R   0.893315 0.380627 0.527882 0.213384
C58   C     C_R   0.656326 0.066239 0.556108 -0.241796
C59   C     C_R   0.664721 0.938546 0.530065 -0.241288
C60   C     C_R   0.343673 0.066239 0.443896 -0.241777
C61   C     C_R   0.822055 0.500470 0.437970 0.420260
C62   C     C_R   0.177946 0.500470 0.562029 0.420245
C63   C     C_R   0.322052 0.000471 0.437980 0.420240
C64   C     C_R   0.677946 0.000470 0.562027 0.420247
C65   C     C_3   0.051521 0.237259 0.501612 -0.897260
C66   C     C_3   0.951232 0.773728 0.489412 -0.896671
C67   C     C_3   0.948438 0.237258 0.498513 -0.897388
C68   C     C_R   0.075461 0.631809 0.565809 0.224211
C69   C     C_3   0.048770 0.773727 0.510588 -0.896671
C70   C     C_3   0.551545 0.737262 0.501549 -0.897407
C71   C     C_3   0.451229 0.273727 0.489417 -0.896671
C72   C     C_3   0.448459 0.737261 0.498445 -0.897410
C73   C     C_3   0.548767 0.273728 0.510593 -0.896669
C74   C     C_3   0.809383 0.502346 0.316104 -0.271778
C75   C     C_3   0.190625 0.502281 0.683887 -0.271756
C76   C     C_3   0.309383 0.002224 0.316113 -0.271775
C77   C     C_3   0.690620 0.002281 0.683889 -0.271766
C78   C     C_3   0.148843 0.345830 0.385708 -0.824362
C79   C     C_R   0.606675 0.880625 0.472140 0.213374
C80   C     C_3   0.934266 0.680346 0.355657 -0.857306
C81   C     C_3   0.851124 0.345842 0.614334 -0.824414
C82   C     C_3   0.065736 0.680351 0.644348 -0.857295
C83   C     C_3   0.648861 0.845834 0.385687 -0.824390
C84   C     C_3   0.434265 0.180347 0.355657 -0.857294
C85   C     C_3   0.351141 0.845829 0.614311 -0.824389
C86   C     C_3   0.565735 0.180347 0.644347 -0.857302
C87   C     C_3   0.559141 0.274711 0.082181 -0.314341
C88   C     C_3   0.328137 0.561425 0.003030 -0.226816
C89   C     C_3   0.440859 0.274710 0.917820 -0.314335
C90   C     C_R   0.424537 0.131807 0.434200 0.224212
C91   C     C_3   0.671861 0.561427 0.996973 -0.226812
C92   C     C_3   0.059140 0.774709 0.082180 -0.314342
C93   C     C_3   0.828139 0.061428 0.003024 -0.226820
C94   C     C_3   0.940860 0.774706 0.917823 -0.314342
C95   C     C_3   0.171859 0.061429 0.996978 -0.226814
C96   C     C_3   0.670606 0.446129 0.727820 -0.185475
C97   C     C_3   0.437490 0.740215 0.192361 -0.259547
C98   C     C_3   0.329391 0.446130 0.272178 -0.185483
C99   C     C_3   0.562514 0.740221 0.807630 -0.259548
C100  C     C_3   0.170608 0.946129 0.727821 -0.185477
C101  C     C_R   0.393326 0.880623 0.527860 0.213374
C102  C     C_3   0.937482 0.240222 0.192378 -0.259534
C103  C     C_3   0.829391 0.946130 0.272177 -0.185482
C104  C     C_3   0.062515 0.240221 0.807628 -0.259547
C105  C     C_R   0.298149 0.731669 0.324044 0.940252
C106  C     C_R   0.575461 0.131807 0.565805 0.224213
C107  C     C_R   0.711720 0.248529 0.961224 0.168079
C108  C     C_R   0.270837 0.723467 0.054706 0.165792
C109  C     C_R   0.288280 0.248529 0.038775 0.168078
C110  C     C_R   0.729163 0.723467 0.945294 0.165792
C111  C     C_R   0.211719 0.748528 0.961225 0.168075
C112  C     C_R   0.770837 0.223467 0.054706 0.165795
C113  C     C_R   0.788281 0.748529 0.038775 0.168072
C114  C     C_R   0.229163 0.223468 0.945294 0.165793
C115  C     C_R   0.767303 0.264096 0.921227 -0.226764
C116  C     C_R   0.296949 0.270918 0.324851 0.917326
C117  C     C_R   0.215467 0.707417 0.094953 -0.242035
C118  C     C_R   0.232697 0.264097 0.078773 -0.226763
C119  C     C_R   0.784533 0.707418 0.905047 -0.242035
C120  C     C_R   0.267303 0.764091 0.921225 -0.226764
C121  C     C_R   0.715468 0.207413 0.094950 -0.242033
C122  C     C_R   0.732697 0.764091 0.078775 -0.226764
C123  C     C_R   0.284532 0.207414 0.905049 -0.242035
C124  C     C_R   0.796453 0.251485 0.967139 -0.111496
C125  C     C_R   0.186396 0.719016 0.048432 -0.114320
C126  C     C_R   0.203547 0.251486 0.032861 -0.111496
C127  C     C_R   0.701850 0.731669 0.675956 0.940262
C128  C     C_R   0.813603 0.719017 0.951568 -0.114322
C129  C     C_R   0.296453 0.751480 0.967137 -0.111496
C130  C     C_R   0.686397 0.219013 0.048428 -0.114318
C131  C     C_R   0.703546 0.751480 0.032863 -0.111495
C132  C     C_R   0.313602 0.219014 0.951571 -0.114317
C133  C     C_R   0.633139 0.309225 0.953495 0.454091
C134  C     C_R   0.347752 0.660419 0.061333 0.433428
C135  C     C_R   0.366862 0.309225 0.046504 0.454090
C136  C     C_R   0.652247 0.660420 0.938668 0.433426
C137  C     C_R   0.133138 0.809225 0.953496 0.454089
C138  C     C_R   0.203050 0.770918 0.675149 0.917312
C139  C     C_R   0.847753 0.160420 0.061332 0.433426
C140  C     C_R   0.866862 0.809225 0.046504 0.454090
C141  C     C_R   0.152247 0.160421 0.938668 0.433428
C142  C     C_R   0.616517 0.347531 0.898162 -0.312561
C143  C     C_R   0.380769 0.649893 0.102780 -0.310705
C144  C     C_R   0.383483 0.347531 0.101837 -0.312560
C145  C     C_R   0.619231 0.649894 0.897220 -0.310700
C146  C     C_R   0.116517 0.847531 0.898162 -0.312560
C147  C     C_R   0.880769 0.149893 0.102780 -0.310700
C148  C     C_R   0.883483 0.847531 0.101838 -0.312560
C149  C     C_R   0.798149 0.231669 0.324044 0.940273
C150  C     C_R   0.119231 0.149894 0.897220 -0.310700
C151  C     C_R   0.644256 0.340591 0.806010 0.393888
C152  C     C_R   0.369167 0.684926 0.182020 0.393471
C153  C     C_R   0.355743 0.340591 0.193989 0.393888
C154  C     C_R   0.630832 0.684927 0.817980 0.393467
C155  C     C_R   0.144256 0.840591 0.806010 0.393890
C156  C     C_R   0.869167 0.184925 0.182021 0.393464
C157  C     C_R   0.855743 0.840591 0.193989 0.393893
C158  C     C_R   0.130833 0.184927 0.817980 0.393465
C159  C     C_R   0.681948 0.286365 0.769289 -0.166884
C160  C     C_R   0.796950 0.770918 0.324851 0.917299
C161  C     C_R   0.319589 0.718481 0.228917 -0.174156
C162  C     C_R   0.318052 0.286365 0.230711 -0.166889
C163  C     C_R   0.680411 0.718482 0.771083 -0.174156
C164  C     C_R   0.181947 0.786365 0.769289 -0.166888
C165  C     C_R   0.819588 0.218480 0.228918 -0.174153
C166  C     C_R   0.818052 0.786365 0.230711 -0.166888
C167  C     C_R   0.180411 0.218481 0.771082 -0.174153
C168  C     C_R   0.703020 0.252941 0.820684 -0.393838
C169  C     C_R   0.287756 0.733186 0.186914 -0.368988
C170  C     C_R   0.296980 0.252940 0.179316 -0.393828
C171  C     C_R   0.201851 0.231669 0.675956 0.940256
C172  C     C_R   0.712244 0.733186 0.813086 -0.368979
C173  C     C_R   0.203019 0.752939 0.820685 -0.393840
C174  C     C_R   0.787755 0.233185 0.186914 -0.368972
C175  C     C_R   0.796981 0.752939 0.179316 -0.393850
C176  C     C_R   0.212245 0.233185 0.813086 -0.368980
C177  C     C_R   0.690963 0.129936 0.536433 0.928133
C178  C     C_R   0.305520 0.872331 0.476125 0.925419
C179  C     C_R   0.309037 0.129936 0.463567 0.928166
C180  C     C_R   0.694480 0.872332 0.523876 0.925439
C181  C     C_R   0.190963 0.629936 0.536434 0.928138
C182  C     C_R   0.908511 0.504739 0.475846 -0.023617
C183  C     C_R   0.805519 0.372332 0.476125 0.925467
C184  C     C_R   0.809037 0.629936 0.463568 0.928099
C185  C     C_R   0.194479 0.372331 0.523879 0.925427
C186  C     C_R   0.681084 0.268094 0.912563 -0.027227
C187  C     C_R   0.303007 0.706889 0.101004 -0.039991
C188  C     C_R   0.318917 0.268093 0.087437 -0.027232
C189  C     C_R   0.696993 0.706889 0.898996 -0.039993
C190  C     C_R   0.181083 0.768092 0.912564 -0.027225
C191  C     C_R   0.803007 0.206889 0.101004 -0.039996
C192  C     C_R   0.818917 0.768093 0.087436 -0.027224
H1    H     H_    0.644328 0.203947 0.080762 0.153450
H2    H     H_    0.195017 0.684199 0.161599 0.143241
H3    H     H_    0.784290 0.073574 0.033395 0.144014
H4    H     H_    0.839980 0.031114 0.940007 0.193623
H5    H     H_    0.835708 0.025489 0.048368 0.144188
H6    H     H_    0.931832 0.717365 0.940435 0.125436
H7    H     H_    0.971590 0.796455 0.934546 0.158347
H8    H     H_    0.958971 0.775014 0.843719 0.194037
H9    H     H_    0.215709 0.073575 0.966609 0.144014
H10   H     H_    0.164291 0.025490 0.951634 0.144187
H11   H     H_    0.160018 0.031115 0.059996 0.193623
H12   H     H_    0.713301 0.428007 0.688058 0.119300
H13   H     H_    0.211857 0.287498 0.145307 0.143222
H14   H     H_    0.664977 0.476707 0.788111 0.115637
H15   H     H_    0.662267 0.483917 0.685308 0.202850
H16   H     H_    0.413889 0.791079 0.218532 0.133409
H17   H     H_    0.462722 0.742923 0.118090 0.131067
H18   H     H_    0.465225 0.735665 0.221144 0.192687
H19   H     H_    0.337728 0.483918 0.314691 0.202854
H20   H     H_    0.286696 0.428006 0.311937 0.119304
H21   H     H_    0.335021 0.476707 0.211887 0.115637
H22   H     H_    0.586119 0.791080 0.781446 0.133421
H23   H     H_    0.537284 0.742938 0.881900 0.131062
H24   H     H_    0.804983 0.684200 0.838401 0.143242
H25   H     H_    0.534777 0.735669 0.778851 0.192685
H26   H     H_    0.213303 0.928006 0.688060 0.119304
H27   H     H_    0.164978 0.976707 0.788111 0.115636
H28   H     H_    0.162270 0.983917 0.685308 0.202852
H29   H     H_    0.913874 0.291080 0.218565 0.133427
H30   H     H_    0.962713 0.242945 0.118107 0.131059
H31   H     H_    0.965218 0.235671 0.221159 0.192683
H32   H     H_    0.837729 0.983918 0.314690 0.202853
H33   H     H_    0.786696 0.928007 0.311939 0.119305
H34   H     H_    0.835021 0.976707 0.211886 0.115636
H35   H     H_    0.288143 0.787489 0.854690 0.143222
H36   H     H_    0.086120 0.291080 0.781445 0.133422
H37   H     H_    0.037284 0.242938 0.881899 0.131065
H38   H     H_    0.034778 0.235668 0.778849 0.192683
H39   H     H_    0.695018 0.184191 0.161594 0.143239
H40   H     H_    0.711857 0.787489 0.145311 0.143222
H41   H     H_    0.304982 0.184193 0.838406 0.143240
H42   H     H_    0.737375 0.216819 0.789021 0.203498
H43   H     H_    0.250440 0.763492 0.221548 0.205895
H44   H     H_    0.262625 0.216817 0.210979 0.203501
H45   H     H_    0.339164 0.764101 0.934404 0.146147
H46   H     H_    0.749560 0.763492 0.778451 0.205896
H47   H     H_    0.237374 0.716817 0.789022 0.203497
H48   H     H_    0.750440 0.263490 0.221549 0.205898
H49   H     H_    0.762626 0.716816 0.210979 0.203496
H50   H     H_    0.249560 0.263491 0.778451 0.205897
H51   H     H_    0.020533 0.200952 0.552234 0.247657
H52   H     H_    0.070642 0.209972 0.435302 0.235483
H53   H     H_    0.081873 0.245234 0.524483 0.255311
H54   H     H_    0.951883 0.812046 0.539105 0.245284
H55   H     H_    0.971093 0.799589 0.422255 0.241921
H56   H     H_    0.355672 0.203947 0.919238 0.153450
H57   H     H_    0.907725 0.764520 0.512107 0.249963
H58   H     H_    0.979419 0.200908 0.447975 0.247666
H59   H     H_    0.929273 0.210024 0.564845 0.235505
H60   H     H_    0.918125 0.245222 0.475567 0.255317
H61   H     H_    0.048118 0.812044 0.460893 0.245284
H62   H     H_    0.028912 0.799592 0.577743 0.241922
H63   H     H_    0.092277 0.764518 0.487890 0.249964
H64   H     H_    0.520561 0.700908 0.552080 0.247683
H65   H     H_    0.570722 0.710028 0.435218 0.235499
H66   H     H_    0.581849 0.745235 0.524514 0.255326
H67   H     H_    0.660835 0.764101 0.065596 0.146147
H68   H     H_    0.451879 0.312043 0.539113 0.245284
H69   H     H_    0.471089 0.299591 0.422262 0.241921
H70   H     H_    0.407722 0.264518 0.512111 0.249965
H71   H     H_    0.479443 0.700910 0.447912 0.247684
H72   H     H_    0.429283 0.710025 0.564774 0.235500
H73   H     H_    0.418154 0.745235 0.475481 0.255325
H74   H     H_    0.548114 0.312046 0.460902 0.245285
H75   H     H_    0.528908 0.299589 0.577750 0.241922
H76   H     H_    0.592274 0.264520 0.487895 0.249963
H77   H     H_    0.838595 0.457064 0.284901 0.133853
H78   H     H_    0.144326 0.703952 0.080768 0.153456
H79   H     H_    0.830043 0.555395 0.291969 0.137207
H80   H     H_    0.778546 0.497644 0.293753 0.188755
H81   H     H_    0.221471 0.497626 0.706224 0.188754
H82   H     H_    0.161464 0.456938 0.715038 0.133882
H83   H     H_    0.169907 0.555287 0.708088 0.137163
H84   H     H_    0.338510 0.956839 0.285011 0.133899
H85   H     H_    0.330142 0.055199 0.291858 0.137137
H86   H     H_    0.278537 0.997595 0.293775 0.188761
H87   H     H_    0.721464 0.997622 0.706230 0.188756
H88   H     H_    0.661457 0.956941 0.715039 0.133879
H89   H     H_    0.839164 0.264109 0.934408 0.146143
H90   H     H_    0.669905 0.055289 0.708089 0.137166
H91   H     H_    0.189053 0.371554 0.361233 0.214428
H92   H     H_    0.152966 0.287067 0.393486 0.262595
H93   H     H_    0.137388 0.353227 0.332250 0.212560
H94   H     H_    0.919407 0.654601 0.312648 0.212790
H95   H     H_    0.914253 0.733627 0.377232 0.272363
H96   H     H_    0.978290 0.689383 0.312576 0.218518
H97   H     H_    0.810919 0.371578 0.638799 0.214408
H98   H     H_    0.846991 0.287082 0.606553 0.262634
H99   H     H_    0.862572 0.353226 0.667801 0.212566
H100  H     H_    0.855673 0.703954 0.919232 0.153459
H101  H     H_    0.080597 0.654608 0.687356 0.212792
H102  H     H_    0.085749 0.733632 0.622768 0.272365
H103  H     H_    0.021712 0.689389 0.687432 0.218514
H104  H     H_    0.689068 0.871567 0.361214 0.214417
H105  H     H_    0.652991 0.787074 0.393475 0.262633
H106  H     H_    0.637409 0.853216 0.332225 0.212561
H107  H     H_    0.419404 0.154604 0.312649 0.212795
H108  H     H_    0.414253 0.233629 0.377233 0.272362
H109  H     H_    0.478289 0.189383 0.312574 0.218515
H110  H     H_    0.310934 0.871563 0.638787 0.214419
H111  H     H_    0.160836 0.264110 0.065592 0.146144
H112  H     H_    0.347012 0.787070 0.606521 0.262632
H113  H     H_    0.362594 0.853209 0.667773 0.212561
H114  H     H_    0.580595 0.154602 0.687355 0.212792
H115  H     H_    0.585748 0.233628 0.622770 0.272364
H116  H     H_    0.521711 0.189384 0.687430 0.218517
H117  H     H_    0.568166 0.217370 0.059573 0.125432
H118  H     H_    0.528412 0.296460 0.065459 0.158350
H119  H     H_    0.541031 0.275020 0.156282 0.194039
H120  H     H_    0.284287 0.573572 0.033403 0.144013
H121  H     H_    0.339976 0.531110 0.940014 0.193624
H122  H     H_    0.788143 0.287498 0.854693 0.143220
H123  H     H_    0.335707 0.525487 0.048374 0.144185
H124  H     H_    0.431833 0.217369 0.940429 0.125433
H125  H     H_    0.471589 0.296459 0.934542 0.158347
H126  H     H_    0.458969 0.275020 0.843717 0.194038
H127  H     H_    0.715711 0.573573 0.966603 0.144014
H128  H     H_    0.664293 0.525489 0.951628 0.144185
H129  H     H_    0.660021 0.531111 0.059990 0.193625
H130  H     H_    0.068166 0.717368 0.059574 0.125435
H131  H     H_    0.028411 0.796457 0.065453 0.158343
H132  H     H_    0.041028 0.775021 0.156282 0.194040
O1    O     O_R   0.746490 0.236330 0.638080 -0.662107
O2    O     O_R   0.325830 0.813840 0.483730 -0.648419
O3    O     O_R   0.325830 0.186160 0.483730 -0.646308
O4    O     O_R   0.674170 0.813840 0.516270 -0.648422
O5    O     O_R   0.174170 0.686160 0.516270 -0.646297
O6    O     O_R   0.825830 0.313840 0.483730 -0.648427
O7    O     O_R   0.825830 0.686160 0.483730 -0.646288
O8    O     O_R   0.174170 0.313840 0.516270 -0.648428
O9    O     O_R   0.739960 0.127620 0.525000 -0.570020
O10   O     O_R   0.260040 0.872380 0.475000 -0.564585
O11   O     O_R   0.260040 0.127620 0.475000 -0.570007
O12   O     O_R   0.253510 0.763670 0.361920 -0.648516
O13   O     O_R   0.739960 0.872380 0.525000 -0.564577
O14   O     O_R   0.239960 0.627620 0.525000 -0.570018
O15   O     O_R   0.760040 0.372380 0.475000 -0.564572
O16   O     O_R   0.760040 0.627620 0.475000 -0.570036
O17   O     O_R   0.239960 0.372380 0.525000 -0.564576
O18   O     O_R   0.680700 0.294870 0.629350 -0.582588
O19   O     O_R   0.319300 0.705130 0.370650 -0.570499
O20   O     O_R   0.319300 0.294870 0.370650 -0.582587
O21   O     O_R   0.680700 0.705130 0.629350 -0.570502
O22   O     O_R   0.180700 0.794870 0.629350 -0.582584
O23   O     O_R   0.253510 0.236330 0.361920 -0.662088
O24   O     O_R   0.819300 0.205130 0.370650 -0.570507
O25   O     O_R   0.819300 0.794870 0.370650 -0.582582
O26   O     O_R   0.180700 0.205130 0.629350 -0.570507
O27   O     O_R   0.062020 0.072840 0.007170 -0.584912
O28   O     O_R   0.937980 0.927160 0.992830 -0.594107
O29   O     O_R   0.937980 0.072840 0.992830 -0.584913
O30   O     O_R   0.062020 0.927160 0.007170 -0.594108
O31   O     O_R   0.562020 0.572840 0.007170 -0.584912
O32   O     O_R   0.437980 0.427160 0.992830 -0.594108
O33   O     O_R   0.437980 0.572840 0.992830 -0.584909
O34   O     O_R   0.746490 0.763670 0.638080 -0.648509
O35   O     O_R   0.562020 0.427160 0.007170 -0.594109
O36   O     O_R   0.947860 0.073950 0.109290 -0.572500
O37   O     O_R   0.052140 0.926050 0.890710 -0.578692
O38   O     O_R   0.052140 0.073950 0.890710 -0.572502
O39   O     O_R   0.947860 0.926050 0.109290 -0.578693
O40   O     O_R   0.447860 0.573950 0.109290 -0.572503
O41   O     O_R   0.552140 0.426050 0.890710 -0.578693
O42   O     O_R   0.552140 0.573950 0.890710 -0.572502
O43   O     O_R   0.447860 0.426050 0.109290 -0.578692
O44   O     O_3   0.783184 0.498042 0.410475 -0.561137
O45   O     O_R   0.246490 0.736330 0.638080 -0.662103
O46   O     O_3   0.216823 0.498047 0.589511 -0.561134
O47   O     O_3   0.283176 0.998050 0.410494 -0.561130
O48   O     O_3   0.716822 0.998046 0.589513 -0.561133
O49   O     O_3   0.606260 0.317971 0.045668 -0.587202
O50   O     O_3   0.359131 0.625530 0.982090 -0.592990
O51   O     O_3   0.393741 0.317971 0.954331 -0.587202
O52   O     O_3   0.640868 0.625532 0.017912 -0.592992
O53   O     O_3   0.106258 0.817970 0.045669 -0.587203
O54   O     O_3   0.859132 0.125533 0.982087 -0.592991
O55   O     O_3   0.893743 0.817969 0.954331 -0.587205
O56   O     O_R   0.753510 0.263670 0.361920 -0.648503
O57   O     O_3   0.140867 0.125535 0.017914 -0.592990
O58   O     O_3   0.634437 0.387192 0.751414 -0.567515
O59   O     O_3   0.403439 0.679069 0.218674 -0.562626
O60   O     O_3   0.365561 0.387194 0.248586 -0.567514
O61   O     O_3   0.596560 0.679069 0.781327 -0.562628
O62   O     O_3   0.134438 0.887193 0.751414 -0.567514
O63   O     O_3   0.903439 0.179067 0.218674 -0.562626
O64   O     O_3   0.865561 0.887194 0.248586 -0.567514
O65   O     O_3   0.096561 0.179069 0.781326 -0.562628
O66   O     O_R   0.753510 0.736330 0.361920 -0.662107
O67   O     O_R   0.246490 0.263670 0.638080 -0.648512
O68   O     O_R   0.674170 0.186160 0.516270 -0.646300
Zn1   Zn    Zn3+2 0.792340 0.208750 0.507670 0.967790
Zn2   Zn    Zn3+2 0.494040 0.500000 0.919480 1.035108
Zn3   Zn    Zn3+2 0.005960 0.000000 0.080520 1.035108
Zn4   Zn    Zn3+2 0.994040 0.000000 0.919480 1.035107
Zn5   Zn    Zn3+2 0.207660 0.791250 0.492330 0.973167
Zn6   Zn    Zn3+2 0.207660 0.208750 0.492330 0.967797
Zn7   Zn    Zn3+2 0.792340 0.791250 0.507670 0.973180
Zn8   Zn    Zn3+2 0.292340 0.708750 0.507670 0.967790
Zn9   Zn    Zn3+2 0.707660 0.291250 0.492330 0.973188
Zn10  Zn    Zn3+2 0.707660 0.708750 0.492330 0.967778
Zn11  Zn    Zn3+2 0.292340 0.291250 0.507670 0.973177
Zn12  Zn    Zn3+2 0.505960 0.500000 0.080520 1.035107

loop_
_geom_bond_atom_site_label_1
_geom_bond_atom_site_label_2
_ccdc_geom_bond_type
O31   Zn12  S    
C31   C42   A    
C8    C145  S    
C50   C79   A    
C14   C33   A    
C19   C46   A    
C96   O58   S    
C16   C31   A    
C50   C59   A    
O9    Zn1   S    
C112  C124  A    
C52   C61   A    
C88   O50   S    
C134  C143  A    
C13   C51   A    
C44   C53   A    
C134  O50   S    
C10   O33   A    
C126  H111  S    
C100  H27   S    
C149  O24   A    
C141  C150  A    
C160  C166  S    
C77   H90   S    
C81   H98   S    
C78   H93   S    
O68   Zn9   S    
C174  C191  A    
C7    C146  S    
C75   H83   S    
C119  C128  A    
C86   H116  S    
C5    C148  S    
C58   C64   A    
C154  O61   S    
C185  O8    A    
C109  C118  A    
C104  H36   S    
C87   H119  S    
O21   Zn10  S    
C65   H52   S    
C88   H120  S    
C137  C146  A    
C1    C159  S    
C169  C187  A    
C82   H102  S    
C70   H64   S    
C74   H80   S    
C167  C171  S    
C120  C129  A    
C95   H10   S    
O26   Zn6   S    
C142  C151  A    
C9    O43   A    
C152  O59   S    
C28   C66   S    
C89   H126  S    
C64   O48   S    
C11   O41   A    
C91   H128  S    
C36   C40   A    
C109  C132  A    
C164  C173  A    
C160  O66   A    
C163  C172  A    
C120  H35   S    
O32   Zn2   S    
C87   O49   S    
C35   C45   A    
C135  O51   S    
C102  H30   S    
C15   C30   A    
C66   H54   S    
C16   C25   A    
C72   H71   S    
C129  H45   S    
C80   H94   S    
C89   O51   S    
O33   Zn2   S    
C7    O37   A    
C49   C106  A    
C103  H33   S    
C77   O48   S    
C4    C150  S    
O56   Zn9   S    
O30   Zn3   S    
C35   C78   S    
O2    Zn8   S    
C98   O60   S    
C18   C38   A    
C63   O47   S    
C112  C191  S    
C183  O6    A    
O1    Zn1   S    
C104  H37   S    
C48   C101  A    
C88   H121  S    
C78   H91   S    
C139  O54   S    
C73   H74   S    
C83   H106  S    
C2    C40   A    
C3    C176  A    
C86   H114  S    
C105  O12   A    
C26   C69   S    
C111  C120  A    
C172  H46   S    
C87   H117  S    
C123  C132  A    
C27   C29   A    
C4    O27   A    
C95   O57   S    
C3    C141  A    
C121  C130  A    
C130  H1    S    
C178  O2    A    
C75   O46   S    
C56   C178  S    
C60   C179  S    
C133  C142  A    
C140  O55   S    
C97   H17   S    
C59   C180  S    
C7    O30   A    
C185  O17   A    
C37   C40   A    
C51   C90   A    
C180  O13   A    
C114  C126  A    
C43   C52   A    
O11   Zn6   S    
C95   H11   S    
C21   C73   S    
C5    O28   A    
C94   H7    S    
O15   Zn9   S    
C20   C35   A    
O38   Zn4   S    
C70   H65   S    
C2    C44   A    
C22   C25   A    
C55   C184  S    
C30   C41   A    
O29   Zn4   S    
C152  C161  A    
O25   Zn7   S    
O23   Zn6   S    
C161  C169  A    
C71   H70   S    
C100  H26   S    
C119  H24   S    
C92   O53   S    
C75   H81   S    
C116  O23   A    
C171  O67   A    
C86   C106  S    
C84   C90   S    
C22   C72   S    
C153  O60   S    
C69   H62   S    
C96   H12   S    
C2    C45   A    
C24   C50   A    
O66   Zn10  S    
O6    Zn1   S    
C80   H96   S    
C168  C186  A    
C113  C122  A    
C34   C39   A    
C157  O64   S    
C171  O26   A    
C149  C165  S    
C175  C192  A    
C11   O35   A    
C165  C174  A    
C88   H123  S    
C151  C159  A    
C93   H5    S    
C6    O29   A    
C111  C125  A    
C73   H76   S    
C83   H104  S    
O13   Zn7   S    
C97   O59   S    
C156  O63   S    
C160  O25   A    
C184  O7    A    
C19   C28   A    
C29   C65   S    
C114  C123  A    
C8    O31   A    
C100  O62   S    
C93   H4    S    
O34   Zn7   S    
C145  C154  A    
C122  C131  A    
C176  H50   S    
C113  C192  S    
C169  H43   S    
C108  C117  A    
C3    C114  S    
C110  C119  A    
C173  H47   S    
C95   H9    S    
C103  O64   S    
O45   Zn8   S    
C125  H78   S    
C116  O20   A    
C68   C82   S    
C158  O65   S    
C112  C121  A    
O37   Zn4   S    
C46   C80   S    
C6    C147  S    
C151  O58   S    
C55   C61   A    
C105  C161  S    
C148  C157  A    
C97   H16   S    
C39   C182  A    
C27   C67   S    
C104  O65   S    
C43   C57   A    
C137  C190  A    
C128  H100  S    
C100  H28   S    
C170  C188  A    
C51   C60   A    
C81   H97   S    
O40   Zn12  S    
O8    Zn6   S    
O3    Zn11  S    
C121  H39   S    
C34   C37   A    
C24   C42   A    
C149  O56   A    
C13   C41   A    
C113  C128  A    
C65   H51   S    
C107  C186  S    
C166  C175  A    
C76   H85   S    
C77   H88   S    
C47   C55   A    
C177  O9    A    
C139  C191  A    
C82   H103  S    
C179  O11   A    
C173  C190  A    
C138  O22   A    
C48   C56   A    
C115  H122  S    
C89   H125  S    
C91   H127  S    
C177  O68   A    
C146  C155  A    
C158  C167  A    
C84   H107  S    
C67   H60   S    
C85   H110  S    
C107  C130  A    
O24   Zn1   S    
C9    C144  S    
C102  H31   S    
C92   H130  S    
C66   H55   S    
C72   H72   S    
C23   C71   S    
O42   Zn2   S    
C118  H13   S    
O14   Zn8   S    
O10   Zn5   S    
C91   O52   S    
C132  H56   S    
C14   C101  A    
C54   C62   A    
C170  H44   S    
C174  H48   S    
C103  H32   S    
C18   C57   A    
C104  H38   S    
C162  C170  A    
O35   Zn12  S    
C147  C156  A    
C81   H99   S    
C78   H92   S    
O7    Zn7   S    
C131  H67   S    
C178  O10   A    
C86   H115  S    
C98   H21   S    
C62   O46   S    
O67   Zn11  S    
C21   C23   A    
C74   O44   S    
O18   Zn9   S    
C168  H42   S    
C65   H53   S    
C46   C47   A    
C17   C68   A    
C127  C163  S    
C115  C124  A    
C150  C158  A    
C134  C187  A    
C133  O49   S    
C96   H15   S    
C82   H101  S    
O28   Zn4   S    
C74   H79   S    
C99   H22   S    
C6    O36   A    
C172  C189  A    
C122  H40   S    
C136  C189  A    
C110  C189  S    
O27   Zn3   S    
C153  C162  A    
C16   C79   A    
C33   C41   A    
C36   C38   A    
O43   Zn12  S    
C79   C83   S    
C14   C22   A    
C38   C39   A    
C98   H20   S    
C156  C165  A    
C72   H73   S    
C94   H8    S    
O39   Zn3   S    
C91   H129  S    
C99   O61   S    
C84   H109  S    
C20   C36   A    
C67   H58   S    
C70   H66   S    
C85   H112  S    
C111  C190  S    
C32   C42   A    
C25   C70   S    
C181  O5    A    
C102  H29   S    
C92   H132  S    
C71   H69   S    
C30   C32   A    
C8    O42   A    
C108  C187  S    
C137  O53   S    
C52   C183  S    
C140  C148  A    
C69   H61   S    
O5    Zn5   S    
C124  H89   S    
C103  H34   S    
C139  C147  A    
C59   C64   A    
C98   H19   S    
C99   H23   S    
C60   C63   A    
C17   C26   A    
C116  C162  S    
C9    O32   A    
C1    O18   A    
C159  C168  A    
C76   H84   S    
C5    O39   A    
C144  C153  A    
C117  H2    S    
C73   H75   S    
C123  H41   S    
C10   O40   A    
C127  O34   A    
C99   H25   S    
C31   C33   A    
C105  O19   A    
O19   Zn8   S    
C136  C145  A    
C87   H118  S    
C15   C23   A    
C66   H57   S    
C12   C32   A    
C93   H3    S    
C47   C182  A    
C89   H124  S    
C74   H77   S    
C20   C29   A    
C109  C188  S    
C97   H18   S    
O22   Zn5   S    
C154  C163  A    
C110  C131  A    
C127  O21   A    
C71   H68   S    
C61   O44   S    
C12   C21   A    
C54   C185  S    
C49   C58   A    
O41   Zn2   S    
C94   H6    S    
C53   C181  S    
C53   C62   A    
C96   H14   S    
C141  O57   S    
C56   C63   A    
C17   C37   A    
C102  O63   S    
C107  C115  A    
C108  C129  A    
C179  O3    A    
C133  C186  A    
C135  C144  A    
C45   C54   A    
C75   H82   S    
C140  C192  A    
C57   C81   S    
C44   C68   A    
C83   H105  S    
C135  C188  A    
C76   O47   S    
C85   C101  S    
C69   H63   S    
C85   H113  S    
C24   C49   A    
C175  H49   S    
C155  O62   S    
C143  C152  A    
C80   H95   S    
C18   C27   A    
O17   Zn11  S    
C181  O14   A    
C19   C34   A    
C157  C166  A    
C13   C48   A    
C184  O16   A    
C180  O4    A    
O16   Zn10  S    
C155  C164  A    
C43   C182  A    
C26   C28   A    
O36   Zn3   S    
C76   H86   S    
C94   O55   S    
C77   H87   S    
C15   C90   A    
C12   C106  A    
C138  O45   A    
C117  C125  A    
O4    Zn10  S    
O20   Zn11  S    
C58   C177  S    
C10   C143  S    
C11   C142  S    
C183  O15   A    
C93   O54   S    
C136  O52   S    
O12   Zn5   S    
C92   H131  S    
C138  C164  S    
C118  C126  A    
C4    O38   A    
C1    O1    A    
C167  C176  A    
C84   H108  S    
C67   H59   S    
