data_mof_unit_45493.cif
_audit_creation_date              2012-12-11T14:24:52-0500
_audit_creation_method            fapswitch 2.2
_symmetry_space_group_name_H-M    P1
_symmetry_Int_Tables_number       1
_space_group_crystal_system       triclinic
_cell_length_a                    19.094796
_cell_length_b                    11.047695
_cell_length_c                    18.849053
_cell_angle_alpha                 89.073024
_cell_angle_beta                  90.692612
_cell_angle_gamma                 90.860505
_cell_volume                      3975.02557631

loop_
_atom_site_label
_atom_site_type_symbol
_atom_type_description
_atom_site_fract_x
_atom_site_fract_y
_atom_site_fract_z
_atom_type_partial_charge
C1    C     C_R   0.727574 0.368412 0.142892 0.538928
C2    C     C_R   0.239020 0.885291 0.065333 0.008948
C3    C     C_R   0.693289 0.605622 0.409572 -0.078063
C4    C     C_R   0.945198 0.010512 0.514664 -0.148175
C5    C     C_R   0.139182 0.177552 0.431029 -0.117002
C6    C     C_R   0.445198 0.510515 0.514665 -0.148173
C7    C     C_R   0.639183 0.677554 0.431027 -0.117011
C8    C     C_R   0.943142 0.964393 0.446560 -0.110548
C9    C     C_R   0.113977 0.165456 0.499600 -0.151517
C10   C     C_R   0.443142 0.464395 0.446561 -0.110546
C11   C     C_R   0.613979 0.665458 0.499599 -0.151509
C12   C     C_R   0.879928 0.921816 0.418538 -0.071669
C13   C     C_R   0.250430 0.407576 0.926782 0.001264
C14   C     C_R   0.143027 0.081705 0.546530 -0.082454
C15   C     C_R   0.379928 0.421818 0.418538 -0.071666
C16   C     C_R   0.643029 0.581708 0.546529 -0.082454
C17   C     C_R   0.751244 0.923111 0.427196 -0.001540
C18   C     C_R   0.236895 0.929466 0.572956 -0.004041
C19   C     C_R   0.251244 0.423111 0.427196 -0.001542
C20   C     C_R   0.736895 0.429468 0.572956 -0.004046
C21   C     C_R   0.730600 0.376309 0.354629 0.531860
C22   C     C_R   0.270937 0.381396 0.645756 0.549051
C23   C     C_R   0.230600 0.876309 0.354629 0.531851
C24   C     C_R   0.738989 0.385201 0.065309 0.008908
C25   C     C_R   0.770937 0.881395 0.645756 0.549031
C26   C     C_R   0.564269 0.150608 0.360310 0.547652
C27   C     C_R   0.462235 0.156951 0.643939 0.532955
C28   C     C_R   0.064269 0.650607 0.360310 0.547666
C29   C     C_R   0.962235 0.656951 0.643940 0.532920
C30   C     C_R   0.742533 0.968659 0.355590 0.533132
C31   C     C_R   0.255263 0.970650 0.644378 0.526885
C32   C     C_R   0.242533 0.468659 0.355590 0.533129
C33   C     C_R   0.755263 0.470651 0.644378 0.526859
C34   C     C_3   0.522591 0.265911 0.970301 -0.096507
C35   C     C_R   0.697298 0.849991 0.968770 -0.003787
C36   C     C_3   0.466328 0.256441 0.028847 -0.084305
C37   C     C_3   0.022529 0.765978 0.970323 -0.096632
C38   C     C_3   0.966268 0.756367 0.028865 -0.084500
C39   C     C_3   0.568290 0.173071 0.011263 -0.143053
C40   C     C_3   0.430206 0.150801 0.988937 -0.110127
C41   C     C_3   0.068282 0.673203 0.011271 -0.143039
C42   C     C_3   0.930214 0.650684 0.988933 -0.110150
C43   C     C_3   0.511590 0.163532 0.068626 0.036504
C44   C     C_3   0.487087 0.160531 0.931647 0.048477
C45   C     C_3   0.011586 0.663527 0.068629 0.036599
C46   C     C_R   0.298971 0.845130 0.027587 -0.010448
C47   C     C_3   0.987093 0.660550 0.931646 0.048491
C48   C     C_R   0.197283 0.349959 0.968772 -0.003780
C49   C     C_R   0.798925 0.345009 0.027544 -0.010436
C50   C     C_R   0.681288 0.900674 0.034879 -0.023837
C51   C     C_R   0.294832 0.841014 0.952515 -0.022658
C52   C     C_R   0.181281 0.400607 0.034896 -0.023818
C53   C     C_R   0.271755 0.368653 0.856166 0.543301
C54   C     C_R   0.794755 0.340873 0.952475 -0.022685
C55   C     C_R   0.784467 0.030343 0.026382 -0.156505
C56   C     C_R   0.181062 0.926558 0.951840 -0.180926
C57   C     C_R   0.284396 0.530423 0.026355 -0.156524
C58   C     C_R   0.681031 0.426551 0.951826 -0.180926
C59   C     C_R   0.792892 0.996888 0.957418 -0.148769
C60   C     C_R   0.179254 0.916819 0.025165 -0.159254
C61   C     C_R   0.292807 0.496989 0.957385 -0.148667
C62   C     C_R   0.679220 0.416759 0.025151 -0.159232
C63   C     C_R   0.662480 0.739815 0.951460 -0.106400
C64   C     C_R   0.227588 0.868453 0.142906 0.538902
C65   C     C_R   0.362438 0.807623 0.059551 -0.172306
C66   C     C_R   0.162465 0.239789 0.951447 -0.106242
C67   C     C_R   0.862421 0.307554 0.059472 -0.172217
C68   C     C_R   0.117422 0.181774 0.999713 -0.069597
C69   C     C_R   0.915058 0.256995 0.017740 -0.128985
C70   C     C_R   0.617453 0.681815 0.999746 -0.069541
C71   C     C_R   0.415065 0.756947 0.017863 -0.129041
C72   C     C_R   0.599956 0.736834 0.061858 0.236495
C73   C     C_R   0.404832 0.739320 0.945405 0.255622
C74   C     C_R   0.099936 0.236747 0.061844 0.236407
C75   C     C_R   0.771767 0.868636 0.856172 0.543229
C76   C     C_R   0.904787 0.239342 0.945288 0.255745
C77   C     C_R   0.622551 0.853431 0.071258 -0.081867
C78   C     C_R   0.344053 0.778337 0.913988 -0.074665
C79   C     C_R   0.122558 0.353320 0.071288 -0.081788
C80   C     C_R   0.843949 0.278192 0.913926 -0.074647
C81   C     C_R   0.532979 0.155658 0.143982 0.546883
C82   C     C_R   0.466622 0.154971 0.856156 0.547847
C83   C     C_R   0.032978 0.655657 0.143983 0.546941
C84   C     C_R   0.966624 0.654975 0.856155 0.547841
C85   C     C_R   0.729066 0.985512 0.065873 -0.003828
C86   C     C_3   0.475965 0.058320 0.029701 -0.117787
C87   C     C_R   0.241571 0.900773 0.916156 -0.000569
C88   C     C_R   0.229043 0.485495 0.065873 -0.003832
C89   C     C_R   0.741527 0.400723 0.916131 -0.000618
C90   C     C_R   0.486893 0.159709 0.570346 0.006664
C91   C     C_R   0.545049 0.146119 0.435290 -0.003621
C92   C     C_R   0.986893 0.659709 0.570346 0.006656
C93   C     C_R   0.045049 0.646119 0.435290 -0.003616
C94   C     C_R   0.473563 0.056779 0.527252 0.019042
C95   C     C_R   0.511273 0.041017 0.465491 0.033003
C96   C     C_R   0.973563 0.556780 0.527252 0.019038
C97   C     C_3   0.532137 0.067764 0.971631 -0.120289
C98   C     C_R   0.011273 0.541017 0.465491 0.033008
C99   C     C_R   0.555852 0.249677 0.476518 -0.160033
C100  C     C_R   0.529332 0.254359 0.544947 -0.144644
C101  C     C_R   0.055853 0.749677 0.476519 -0.160033
C102  C     C_R   0.029333 0.754358 0.544948 -0.144639
C103  C     C_R   0.423876 0.966628 0.545121 -0.069649
C104  C     C_R   0.510157 0.921644 0.435839 -0.089699
C105  C     C_R   0.923876 0.466628 0.545122 -0.069636
C106  C     C_R   0.010157 0.421644 0.435839 -0.089701
C107  C     C_R   0.926928 0.350388 0.518956 -0.118587
C108  C     C_3   0.976028 0.558272 0.029684 -0.117708
C109  C     C_R   0.968689 0.328787 0.462486 -0.147918
C110  C     C_R   0.426928 0.850387 0.518956 -0.118598
C111  C     C_R   0.468689 0.828787 0.462485 -0.147911
C112  C     C_R   0.761688 0.926226 0.573698 0.004343
C113  C     C_R   0.248342 0.908481 0.426804 0.007707
C114  C     C_R   0.261688 0.426226 0.573698 0.004344
C115  C     C_R   0.748343 0.408482 0.426804 0.007712
C116  C     C_R   0.822058 0.953019 0.530921 0.033240
C117  C     C_R   0.217206 0.010996 0.454278 0.015995
C118  C     C_R   0.322058 0.453021 0.530922 0.033240
C119  C     C_3   0.032198 0.567852 0.971618 -0.120245
C120  C     C_R   0.717208 0.510997 0.454277 0.016005
C121  C     C_R   0.817991 0.926769 0.458724 0.020934
C122  C     C_R   0.199405 0.008626 0.525947 0.038272
C123  C     C_R   0.317991 0.426770 0.458724 0.020932
C124  C     C_R   0.699406 0.508628 0.525947 0.038269
C125  C     C_R   0.691593 0.923455 0.469680 -0.149389
C126  C     C_R   0.267549 0.827503 0.545943 -0.185799
C127  C     C_R   0.191593 0.423453 0.469680 -0.149388
C128  C     C_R   0.767549 0.327504 0.545942 -0.185800
C129  C     C_R   0.727891 0.018492 0.141006 0.545148
C130  C     C_R   0.750467 0.907554 0.926794 0.001297
C131  C     C_R   0.256360 0.964985 0.848992 0.526118
C132  C     C_R   0.227887 0.518487 0.141007 0.545184
C133  C     C_R   0.756352 0.464976 0.848985 0.526065
C134  C     C_R   0.696487 0.914413 0.542209 -0.151437
C135  C     C_R   0.271362 0.814941 0.472837 -0.150053
C136  C     C_R   0.196487 0.414411 0.542208 -0.151437
C137  C     C_R   0.771362 0.314941 0.472837 -0.150060
C138  C     C_R   0.885510 0.006360 0.556331 -0.089246
C139  C     C_R   0.193287 0.105621 0.409573 -0.078044
C140  C     C_R   0.385509 0.506362 0.556331 -0.089241
Cr1   Cr    Cr6+3 0.772820 0.169820 0.252640 1.044146
Cr2   Cr    Cr6+3 0.383280 0.011130 0.749340 1.061062
Cr3   Cr    Cr6+3 0.116720 0.511130 0.250660 1.040519
Cr4   Cr    Cr6+3 0.883280 0.511130 0.749340 1.061376
Cr5   Cr    Cr6+3 0.227180 0.169820 0.747360 1.035905
Cr6   Cr    Cr6+3 0.272820 0.669820 0.252640 1.044107
Cr7   Cr    Cr6+3 0.727180 0.669820 0.747360 1.035905
Cr8   Cr    Cr6+3 0.615040 0.323610 0.249150 1.061324
Cr9   Cr    Cr6+3 0.384960 0.323610 0.750850 1.045865
Cr10  Cr    Cr6+3 0.115040 0.823610 0.249150 1.061281
Cr11  Cr    Cr6+3 0.884960 0.823610 0.750850 1.046067
Cr12  Cr    Cr6+3 0.616720 0.011130 0.250660 1.040609
H1    H     H_    0.625457 0.180759 0.021807 0.114658
H2    H     H_    0.543164 0.891287 0.394460 0.149071
H3    H     H_    0.882562 0.487552 0.578823 0.173956
H4    H     H_    0.043163 0.391287 0.394460 0.149063
H5    H     H_    0.897149 0.276579 0.541735 0.117828
H6    H     H_    0.969946 0.239490 0.439730 0.125261
H7    H     H_    0.397150 0.776578 0.541735 0.117821
H8    H     H_    0.469946 0.739490 0.439730 0.125269
H9    H     H_    0.640960 0.932995 0.446661 0.125810
H10   H     H_    0.288900 0.759061 0.581472 0.118284
H11   H     H_    0.140959 0.432990 0.446661 0.125813
H12   H     H_    0.373090 0.140544 0.978286 0.124035
H13   H     H_    0.788899 0.259061 0.581472 0.118300
H14   H     H_    0.889487 0.050874 0.606861 0.143931
H15   H     H_    0.211836 0.116821 0.355722 0.143089
H16   H     H_    0.389486 0.550877 0.606861 0.143936
H17   H     H_    0.711837 0.616821 0.355720 0.143072
H18   H     H_    0.649689 0.901202 0.573553 0.134631
H19   H     H_    0.291372 0.731242 0.452437 0.156007
H20   H     H_    0.149689 0.401199 0.573553 0.134635
H21   H     H_    0.791371 0.231242 0.452437 0.156005
H22   H     H_    0.993095 0.048953 0.535810 0.103752
H23   H     H_    0.125444 0.680978 0.021821 0.114681
H24   H     H_    0.116835 0.241224 0.393676 0.115824
H25   H     H_    0.493095 0.548957 0.535811 0.103762
H26   H     H_    0.616837 0.741227 0.393674 0.115819
H27   H     H_    0.989746 0.966432 0.414430 0.133128
H28   H     H_    0.072697 0.221790 0.517767 0.116575
H29   H     H_    0.489747 0.466435 0.414432 0.133143
H30   H     H_    0.572699 0.721793 0.517766 0.116577
H31   H     H_    0.878721 0.891242 0.364217 0.141916
H32   H     H_    0.116951 0.070375 0.596750 0.141814
H33   H     H_    0.378722 0.391244 0.364217 0.141916
H34   H     H_    0.873105 0.640325 0.978280 0.124035
H35   H     H_    0.616952 0.570379 0.596749 0.141836
H36   H     H_    0.540913 0.348828 0.942790 0.168014
H37   H     H_    0.439275 0.333407 0.053218 0.173211
H38   H     H_    0.040811 0.848982 0.942873 0.168071
H39   H     H_    0.939163 0.833262 0.053250 0.173036
H40   H     H_    0.458698 0.975548 0.058125 0.145643
H41   H     H_    0.558799 0.990847 0.946820 0.162489
H42   H     H_    0.958804 0.475450 0.058088 0.145618
H43   H     H_    0.058913 0.491004 0.946797 0.162590
H44   H     H_    0.823481 0.087821 0.050215 0.172407
H45   H     H_    0.585078 0.326903 0.455698 0.139493
H46   H     H_    0.136449 0.959867 0.922274 0.148488
H47   H     H_    0.323381 0.587976 0.050172 0.172351
H48   H     H_    0.636434 0.459938 0.922266 0.148515
H49   H     H_    0.671178 0.692003 0.904058 0.206399
H50   H     H_    0.372627 0.817295 0.115612 0.191168
H51   H     H_    0.171150 0.192018 0.904030 0.206419
H52   H     H_    0.872632 0.317245 0.115528 0.191212
H53   H     H_    0.837153 0.034427 0.929684 0.205454
H54   H     H_    0.129992 0.933587 0.050391 0.196715
H55   H     H_    0.337023 0.534610 0.929625 0.205720
H56   H     H_    0.540984 0.332217 0.577458 0.126453
H57   H     H_    0.629964 0.433538 0.050388 0.196736
H58   H     H_    0.093815 0.096378 0.988210 0.184054
H59   H     H_    0.962518 0.227207 0.041555 0.214075
H60   H     H_    0.593874 0.596392 0.988274 0.184166
H61   H     H_    0.462462 0.726968 0.041728 0.214292
H62   H     H_    0.595586 0.899872 0.110679 0.208508
H63   H     H_    0.334282 0.757901 0.858759 0.179722
H64   H     H_    0.095591 0.399734 0.110726 0.208516
H65   H     H_    0.834145 0.257772 0.858702 0.179733
H66   H     H_    0.094804 0.100445 0.237824 0.358824
H67   H     H_    0.085079 0.826902 0.455699 0.139492
H68   H     H_    0.962490 0.074953 0.790811 0.359956
H69   H     H_    0.595017 0.600622 0.237873 0.358799
H70   H     H_    0.462290 0.573800 0.791246 0.360121
H71   H     H_    0.040986 0.832216 0.577458 0.126451
H72   H     H_    0.382562 0.987551 0.578823 0.173968
O1    O     O_R   0.788190 0.043000 0.172520 -0.489735
O2    O     O_R   0.454170 0.051610 0.669840 -0.521682
O3    O     O_R   0.045830 0.551610 0.330160 -0.524564
O4    O     O_R   0.954170 0.551610 0.669840 -0.521644
O5    O     O_R   0.681920 0.959720 0.327070 -0.525725
O6    O     O_R   0.318080 0.959720 0.672930 -0.522977
O7    O     O_R   0.181920 0.459720 0.327070 -0.525740
O8    O     O_R   0.818080 0.459720 0.672930 -0.522937
O9    O     O_3   0.668190 0.168190 0.250820 -0.313657
O10   O     O_3   0.331810 0.168190 0.749180 -0.270352
O11   O     O_3   0.168190 0.668190 0.250820 -0.313622
O12   O     O_R   0.211810 0.043000 0.827480 -0.533917
O13   O     O_3   0.831810 0.668190 0.749180 -0.270414
O14   O     O_R   0.766240 0.292300 0.176860 -0.528995
O15   O     O_R   0.233760 0.292300 0.823140 -0.514216
O16   O     O_R   0.266240 0.792300 0.176860 -0.529031
O17   O     O_R   0.733760 0.792300 0.823140 -0.514199
O18   O     O_R   0.670310 0.409160 0.168720 -0.449606
O19   O     O_R   0.329690 0.409160 0.831280 -0.480487
O20   O     O_R   0.170310 0.909160 0.168720 -0.449625
O21   O     O_R   0.829690 0.909160 0.831280 -0.480681
O22   O     O_R   0.556160 0.251900 0.173380 -0.473944
O23   O     O_R   0.288190 0.543000 0.172520 -0.489724
O24   O     O_R   0.443840 0.251900 0.826620 -0.496550
O25   O     O_R   0.056160 0.751900 0.173380 -0.473925
O26   O     O_R   0.943840 0.751900 0.826620 -0.496441
O27   O     O_R   0.545410 0.050140 0.168240 -0.535313
O28   O     O_R   0.454590 0.050140 0.831760 -0.483412
O29   O     O_R   0.045410 0.550140 0.168240 -0.535336
O30   O     O_R   0.954590 0.550140 0.831760 -0.483199
O31   O     O_R   0.681530 0.958350 0.176970 -0.497764
O32   O     O_R   0.318470 0.958350 0.823030 -0.500633
O33   O     O_R   0.181530 0.458350 0.176970 -0.497879
O34   O     O_R   0.711810 0.543000 0.827480 -0.533941
O35   O     O_R   0.818470 0.458350 0.823030 -0.500488
O36   O     O_R   0.788610 0.044480 0.334450 -0.515052
O37   O     O_R   0.211390 0.044480 0.665550 -0.531106
O38   O     O_R   0.288610 0.544480 0.334450 -0.515046
O39   O     O_R   0.711390 0.544480 0.665550 -0.531113
O40   O     O_R   0.766630 0.293670 0.326970 -0.499449
O41   O     O_R   0.233370 0.293670 0.673030 -0.490674
O42   O     O_R   0.266630 0.793670 0.326970 -0.499456
O43   O     O_R   0.733370 0.793670 0.673030 -0.490682
O44   O     O_R   0.670730 0.410640 0.330640 -0.536413
O45   O     O_R   0.556550 0.253260 0.323480 -0.495879
O46   O     O_R   0.329270 0.410640 0.669360 -0.533977
O47   O     O_R   0.170730 0.910640 0.330640 -0.536384
O48   O     O_R   0.829270 0.910640 0.669360 -0.533966
O49   O     O_2   0.004344 0.236468 0.165284 -0.348273
O50   O     O_2   0.027043 0.040981 0.110009 -0.307408
O51   O     O_3   0.120901 0.132393 0.196270 -0.493911
O52   O     O_2   0.026904 0.244068 0.879050 -0.311279
O53   O     O_2   0.985999 0.049232 0.930538 -0.356762
O54   O     O_3   0.927791 0.126643 0.813912 -0.538874
O55   O     O_2   0.504463 0.736551 0.165391 -0.348251
O56   O     O_R   0.443450 0.253260 0.676520 -0.506243
O57   O     O_2   0.527148 0.541047 0.110128 -0.307250
O58   O     O_3   0.621071 0.632560 0.196282 -0.493889
O59   O     O_2   0.526879 0.743379 0.879007 -0.311360
O60   O     O_2   0.485907 0.548966 0.931038 -0.356774
O61   O     O_3   0.427619 0.625641 0.814275 -0.538799
O62   O     O_R   0.056550 0.753260 0.323480 -0.495897
O63   O     O_R   0.943450 0.753260 0.676520 -0.506218
O64   O     O_R   0.545830 0.051610 0.330160 -0.524555
S1    S     S_3+6 0.059446 0.158691 0.133577 -0.029808
S2    S     S_3+6 0.964528 0.163123 0.892460 -0.046403
S3    S     S_3+6 0.559550 0.658790 0.133644 -0.029693
S4    S     S_3+6 0.464470 0.662633 0.892692 -0.046770

loop_
_geom_bond_atom_site_label_1
_geom_bond_atom_site_label_2
_ccdc_geom_bond_type
C55   C59   A    
C100  H56   S    
C15   H33   S    
O61   S4    S    
Cr1   O14   S    
H69   O58   S    
C72   S3    S    
C27   C90   S    
Cr9   O56   S    
C40   C86   S    
C110  C111  A    
C38   C45   S    
C25   C112  S    
C85   C129  S    
C69   H59   S    
C33   O8    A    
C45   C108  S    
C92   C102  A    
Cr5   O10   S    
C83   O25   A    
C17   C30   S    
C117  C139  A    
O49   S1    D    
C81   O27   A    
C118  C140  A    
C19   C32   S    
C107  H5    S    
C77   H62   S    
C56   H46   S    
C116  C121  A    
C127  C136  A    
C46   C65   A    
C93   C101  A    
C71   C73   A    
C3    H17   S    
Cr6   O23   S    
C111  H8    S    
C137  H21   S    
C37   C38   S    
C75   O17   A    
C23   C113  S    
C26   O45   A    
C101  H67   S    
Cr9   O19   S    
C139  H15   S    
C18   C122  A    
C20   C33   S    
C133  O34   A    
Cr6   O16   S    
C74   C79   A    
C6    H25   S    
C5    H24   S    
Cr7   O39   S    
C50   C77   A    
C86   H40   S    
C112  C134  A    
Cr11  O63   S    
Cr12  O64   S    
C132  O23   A    
C57   C61   A    
O59   S4    D    
C44   C82   S    
C98   C106  A    
C82   O24   A    
C31   O37   A    
Cr7   O34   S    
C16   C124  A    
C51   C78   A    
Cr1   O36   S    
C73   S4    S    
C119  H43   S    
C58   C89   A    
C64   O16   A    
C48   C52   A    
O60   S4    D    
Cr1   O9    S    
C113  C135  A    
Cr5   O12   S    
C114  C136  A    
C35   C63   A    
C18   C31   S    
H66   O51   S    
C70   H60   S    
C8    H27   S    
C68   H58   S    
C105  C107  A    
C19   C123  A    
C103  C110  A    
C30   O36   A    
C82   O28   A    
Cr9   O46   S    
C40   H12   S    
Cr2   O6    S    
C12   H31   S    
Cr7   O17   S    
C97   H41   S    
C92   C96   A    
Cr2   O32   S    
C69   C76   A    
Cr8   O9    S    
C87   C131  S    
C86   C97   S    
C48   C66   A    
C12   C121  A    
C115  C137  A    
C96   C98   A    
C37   C47   S    
C52   C79   A    
C76   S2    S    
C50   C85   A    
C28   O62   A    
C37   H38   S    
C57   H47   S    
Cr8   O18   S    
C45   C83   S    
C5    C139  A    
Cr11  O26   S    
C89   C133  S    
C34   C39   S    
C129  O31   A    
C52   C88   A    
C80   H65   S    
Cr4   O30   S    
C46   C51   A    
C74   S1    S    
C32   O38   A    
C117  C122  A    
C5    C9    A    
C8    C12   A    
C35   C130  A    
C113  C117  A    
C79   H64   S    
C105  H3    S    
Cr9   O24   S    
C106  H4    S    
Cr5   O37   S    
C128  H13   S    
C43   C81   S    
C108  H42   S    
C112  C116  A    
Cr6   O11   S    
C24   C62   A    
C63   H49   S    
C81   O22   A    
C76   C80   A    
C78   H63   S    
C27   O56   A    
C138  H14   S    
C18   C126  A    
H68   O54   S    
C60   H54   S    
C34   C36   S    
C37   C41   S    
C20   C124  A    
C1    O18   A    
C91   C95   A    
C40   C44   S    
C1    C24   S    
C38   H39   S    
C134  H18   S    
C129  O1    A    
Cr5   O41   S    
Cr10  O62   S    
C29   O4    A    
Cr3   O7    S    
C106  C109  A    
C125  C134  A    
C58   C62   A    
C96   C105  A    
C101  C102  A    
C14   C122  A    
Cr3   O33   S    
C21   C115  S    
C53   O15   A    
C23   O47   A    
C39   H1    S    
C30   O5    A    
C3    C7    A    
C2    C60   A    
Cr11  O48   S    
C39   C97   S    
Cr10  O11   S    
Cr4   O35   S    
C21   O44   A    
C25   O43   A    
C65   H50   S    
C136  H20   S    
Cr3   O3    S    
Cr2   O2    S    
C135  H19   S    
C54   C80   A    
C75   C130  S    
C59   H53   S    
Cr10  O20   S    
C41   H23   S    
C29   O63   A    
C4    H22   S    
C107  C109  A    
C108  C119  S    
C11   H30   S    
Cr8   O45   S    
C28   O3    A    
C102  H71   S    
C90   C94   A    
C13   C53   S    
Cr7   O13   S    
O54   S2    S    
Cr2   O28   S    
C84   O26   A    
C53   O19   A    
C131  O32   A    
Cr12  O9    S    
C26   C91   S    
C71   H61   S    
C56   C60   A    
C7    H26   S    
C28   C93   S    
C55   C85   A    
C9    C14   A    
C26   O64   A    
C103  H72   S    
C104  C111  A    
C11   C16   A    
C21   O40   A    
Cr8   O22   S    
C47   C84   S    
C41   C119  S    
C61   H55   S    
C17   C121  A    
C126  C135  A    
C127  H11   S    
C43   C86   S    
Cr4   O8    S    
C125  H9    S    
C16   H35   S    
Cr10  O47   S    
C6    C10   A    
Cr12  O31   S    
C38   C42   S    
C132  O33   A    
C64   O20   A    
C131  O12   A    
C33   O39   A    
Cr8   O44   S    
C41   C45   S    
C22   O41   A    
Cr4   O13   S    
Cr6   O38   S    
C118  C123  A    
C6    C140  A    
C94   C95   A    
Cr11  O21   S    
C4    C138  A    
O58   S3    S    
C133  O35   A    
C10   H29   S    
C36   C43   S    
C104  H2    S    
C68   C74   A    
C29   C92   S    
C140  H16   S    
C66   C68   A    
C59   C130  A    
C4    C8    A    
C2    C46   A    
C7    C11   A    
C58   H48   S    
C15   C123  A    
C83   O29   A    
C20   C128  A    
H70   O61   S    
C10   C15   A    
C49   C54   A    
C31   O6    A    
Cr3   O11   S    
Cr6   O42   S    
C67   H52   S    
C73   C78   A    
C75   O21   A    
O52   S2    D    
C22   O46   A    
C47   C119  S    
C32   O7    A    
C109  H6    S    
C90   C100  A    
C2    C64   S    
C116  C138  A    
Cr1   O1    S    
Cr11  O13   S    
C36   H37   S    
C36   C40   S    
C34   C44   S    
C54   C89   A    
Cr7   O43   S    
O51   S1    S    
C51   C87   A    
C56   C87   A    
C39   C43   S    
O53   S2    D    
C65   C71   A    
C67   C69   A    
C128  C137  A    
C72   C77   A    
C44   C97   S    
C99   C100  A    
C63   C70   A    
C22   C114  S    
C99   H45   S    
C35   C50   A    
C34   H36   S    
C114  C118  A    
C9    H28   S    
C66   H51   S    
O57   S3    D    
C115  C120  A    
O55   S3    D    
C84   O30   A    
Cr1   O40   S    
C88   C132  S    
C95   C104  A    
Cr10  O25   S    
Cr12  O5    S    
C24   C49   A    
C49   C67   A    
C94   C103  A    
C13   C48   A    
C14   H32   S    
C27   O2    A    
C1    O14   A    
C23   O42   A    
Cr9   O10   S    
C57   C88   A    
C91   C99   A    
C17   C125  A    
Cr3   O29   S    
Cr5   O15   S    
C19   C127  A    
C62   H57   S    
C55   H44   S    
C42   C47   S    
O50   S1    D    
C25   O48   A    
C3    C120  A    
Cr2   O10   S    
C13   C61   A    
C42   H34   S    
Cr4   O4    S    
C70   C72   A    
C126  H10   S    
C42   C108  S    
C93   C98   A    
Cr12  O27   S    
C110  H7    S    
C120  C124  A    
