data_mof_unit_18398.cif
_audit_creation_date              2012-12-10T17:19:22-0500
_audit_creation_method            fapswitch 2.2
_symmetry_space_group_name_H-M    P1
_symmetry_Int_Tables_number       1
_space_group_crystal_system       triclinic
_cell_length_a                    15.009828
_cell_length_b                    10.796815
_cell_length_c                    9.620824
_cell_angle_alpha                 90.087393
_cell_angle_beta                  89.7988
_cell_angle_gamma                 92.531478
_cell_volume                      1557.6021112

loop_
_atom_site_label
_atom_site_type_symbol
_atom_type_description
_atom_site_fract_x
_atom_site_fract_y
_atom_site_fract_z
_atom_type_partial_charge
C1    C     C_R   0.496175 0.262680 0.499912 0.764826
C2    C     C_R   0.911742 0.620290 0.503108 0.048984
C3    C     C_R   0.944980 0.279095 0.501317 -0.200219
C4    C     C_R   0.037781 0.277021 0.504114 -0.206596
C5    C     C_R   0.089454 0.388229 0.503230 0.125285
C6    C     C_R   0.047473 0.502890 0.500540 0.070062
C7    C     C_R   0.099263 0.615081 0.496084 0.095059
C8    C     C_R   0.057733 0.728217 0.492636 -0.218589
C9    C     C_R   0.965165 0.731028 0.495906 -0.158339
C10   C     C_R   0.182483 0.387138 0.504458 -0.282669
C11   C     C_R   0.233002 0.498912 0.500130 -0.033212
C12   C     C_R   0.329160 0.497859 0.500112 0.834756
C13   C     C_R   0.191950 0.612196 0.493883 -0.178086
C14   C     C_R   0.358497 0.125938 0.659507 -0.199862
C15   C     C_R   0.295766 0.061069 0.740961 -0.256979
C16   C     C_R   0.295109 0.932763 0.746119 -0.179285
C17   C     C_R   0.356571 0.867778 0.669013 0.562833
C18   C     C_R   0.422475 0.931578 0.585913 -0.034446
C19   C     C_R   0.423514 0.063168 0.583127 0.045491
C20   C     C_R   0.487381 0.128580 0.499396 -0.062900
C21   C     C_R   0.543675 0.065770 0.411240 -0.208803
C22   C     C_R   0.541806 0.938207 0.410878 -0.175707
C23   C     C_R   0.493654 0.736748 0.500374 0.906947
C24   C     C_R   0.485005 0.870358 0.500768 -0.100219
C25   C     C_R   0.617659 0.665063 0.143234 -0.132342
C26   C     C_R   0.674600 0.747180 0.071647 -0.205571
C27   C     C_R   0.674419 0.747918 0.928512 -0.192699
C28   C     C_R   0.617581 0.666188 0.856086 -0.117252
C29   C     C_R   0.557769 0.581533 0.925059 0.211113
C30   C     C_R   0.557781 0.581261 0.074392 0.194018
C31   C     C_R   0.444918 0.422545 0.074002 -0.048953
C32   C     C_R   0.444940 0.422575 0.926255 -0.028526
C33   C     C_R   0.670944 0.501910 0.499887 0.841569
C34   C     C_R   0.817598 0.621039 0.508206 -0.049969
C35   C     C_R   0.767833 0.506877 0.499711 -0.120367
C36   C     C_R   0.810138 0.394360 0.496290 -0.251918
C37   C     C_R   0.902723 0.392408 0.499988 0.117165
C38   C     C_R   0.953844 0.505288 0.501411 0.042429
Cu1   Cu    Cu3+1 0.499990 0.499990 0.640660 0.985343
Cu2   Cu    Cu3+1 0.500010 0.500010 0.359340 0.951297
H1    H     H_    0.353520 0.225307 0.654615 0.149770
H2    H     H_    0.246522 0.110577 0.798729 0.165658
H3    H     H_    0.245153 0.882765 0.808201 0.168611
H4    H     H_    0.587172 0.892315 0.342154 0.186493
H5    H     H_    0.399711 0.358961 0.129100 0.138296
H6    H     H_    0.623316 0.671194 0.252370 0.236292
H7    H     H_    0.719308 0.810574 0.127967 0.172441
H8    H     H_    0.718886 0.812265 0.873236 0.190013
H9    H     H_    0.623623 0.673535 0.746495 0.203044
H10   H     H_    0.770392 0.307945 0.492846 0.134902
H11   H     H_    0.399716 0.359048 0.871442 0.129928
H12   H     H_    0.906179 0.192020 0.500678 0.148766
H13   H     H_    0.069145 0.188530 0.505863 0.146583
H14   H     H_    0.215682 0.299967 0.507560 0.125327
H15   H     H_    0.232208 0.697836 0.487301 0.163581
H16   H     H_    0.096932 0.814861 0.487333 0.145211
H17   H     H_    0.936358 0.820806 0.489573 0.176523
H18   H     H_    0.590941 0.115969 0.344313 0.155456
N1    N     N_R   0.500860 0.501210 0.147910 -0.203847
N2    N     N_R   0.500890 0.501290 0.852040 -0.194076
O1    O     O_R   0.499990 0.319640 0.618810 -0.588519
O2    O     O_R   0.500000 0.319660 0.381240 -0.584535
O3    O     O_R   0.370250 0.499960 0.618800 -0.529124
O4    O     O_R   0.370260 0.499980 0.381230 -0.591734
O5    O     O_R   0.500000 0.680340 0.618760 -0.546515
O6    O     O_R   0.500010 0.680360 0.381190 -0.610251
O7    O     O_R   0.629740 0.500020 0.618770 -0.602709
O8    O     O_R   0.629750 0.500040 0.381200 -0.586758
C39   C     C_2   0.771540 0.739095 0.527575 0.766621
O9    O     O_2   0.708372 0.762723 0.454335 -0.673516
O10   O     O_R   0.800226 0.822925 0.630658 -0.784276
H19   H     H_    0.763950 0.899950 0.632914 0.324618
F1    F     F_    0.347305 0.742962 0.673989 -0.685940

loop_
_geom_bond_atom_site_label_1
_geom_bond_atom_site_label_2
_ccdc_geom_bond_type
C27   H8    S    
C4    H13   S    
C35   C36   A    
C1    O2    A    
C8    H16   S    
C7    C8    A    
C26   C27   A    
C29   C30   A    
C18   C24   A    
C23   O6    A    
C36   C37   A    
C34   C35   A    
C5    C6    A    
C12   O4    A    
C15   C16   A    
Cu2   O2    S    
C18   C19   A    
C31   N1    A    
C39   O10   S    
C22   H4    S    
C19   C20   A    
C16   C17   A    
C23   C24   S    
C6    C38   A    
C2    C34   A    
Cu2   N1    S    
Cu2   O6    S    
C21   C22   A    
C17   F1    S    
Cu1   O5    S    
C5    C10   A    
Cu1   O1    S    
Cu1   Cu2   S    
C12   O3    A    
C8    C9    A    
C25   C26   A    
C32   H11   S    
C37   C38   A    
C28   H9    S    
C2    C38   A    
C31   C32   A    
C16   H3    S    
C29   N2    A    
C3    H12   S    
C30   N1    A    
C17   C18   A    
C34   C39   S    
C26   H7    S    
C14   H1    S    
Cu2   O8    S    
C22   C24   A    
C32   N2    A    
C3    C4    A    
C36   H10   S    
C33   O7    A    
C25   C30   A    
C28   C29   A    
C1    C20   S    
Cu1   O7    S    
C14   C19   A    
C15   H2    S    
C4    C5    A    
C1    O1    A    
C11   C12   S    
C6    C7    A    
Cu1   O3    S    
Cu2   O4    S    
C23   O5    A    
C21   H18   S    
C11   C13   A    
Cu1   N2    S    
C33   C35   S    
C9    H17   S    
C39   O9    D    
C10   H14   S    
C10   C11   A    
C7    C13   A    
O10   H19   S    
C20   C21   A    
C3    C37   A    
C31   H5    S    
C27   C28   A    
C14   C15   A    
C2    C9    A    
C25   H6    S    
C33   O8    A    
C13   H15   S    
