data_mof_unit_15763.cif
_audit_creation_date              2012-12-10T19:43:24-0500
_audit_creation_method            fapswitch 2.2
_symmetry_space_group_name_H-M    P1
_symmetry_Int_Tables_number       1
_space_group_crystal_system       triclinic
_cell_length_a                    10.906886
_cell_length_b                    10.889743
_cell_length_c                    9.725929
_cell_angle_alpha                 88.909925
_cell_angle_beta                  90.381455
_cell_angle_gamma                 93.91138
_cell_volume                      1152.26365749

loop_
_atom_site_label
_atom_site_type_symbol
_atom_type_description
_atom_site_fract_x
_atom_site_fract_y
_atom_site_fract_z
_atom_type_partial_charge
C1    C     C_R   0.507050 0.262767 0.502170 0.819135
C2    C     C_R   0.264624 0.657920 0.021215 -0.060842
C3    C     C_R   0.935286 0.521193 0.380117 -0.129814
C4    C     C_R   0.871113 0.487712 0.500808 -0.055806
C5    C     C_R   0.937428 0.451829 0.618225 0.046747
C6    C     C_R   0.064885 0.454066 0.613444 -0.136983
C7    C     C_R   0.128635 0.496507 0.495966 -0.044225
C8    C     C_R   0.062738 0.532745 0.377858 0.013667
C9    C     C_R   0.875124 0.495651 0.857408 0.251285
C10   C     C_R   0.829509 0.454382 0.984845 -0.257336
C11   C     C_R   0.792858 0.330282 0.006696 0.302350
C12   C     C_R   0.262812 0.498452 0.498957 0.824532
C13   C     C_R   0.794068 0.247916 0.898381 -0.129855
C14   C     C_R   0.836077 0.289157 0.769118 -0.235743
C15   C     C_R   0.878977 0.412547 0.748925 0.053322
C16   C     C_R   0.486400 0.100005 0.760768 -0.270316
C17   C     C_R   0.416410 0.038441 0.862677 0.226824
C18   C     C_R   0.328786 0.945691 0.826440 0.244493
C19   C     C_R   0.343911 0.884682 0.702449 0.169854
C20   C     C_R   0.434990 0.932750 0.609259 -0.005225
C21   C     C_R   0.479958 0.055918 0.626085 0.013702
C22   C     C_R   0.513592 0.127579 0.507681 -0.092356
C23   C     C_R   0.488726 0.736178 0.498461 0.845852
C24   C     C_R   0.533937 0.066726 0.385822 -0.076265
C25   C     C_R   0.519885 0.939296 0.380524 -0.136189
C26   C     C_R   0.474712 0.869913 0.494094 -0.087938
C27   C     C_R   0.624036 0.708138 0.128144 0.257250
C28   C     C_R   0.648721 0.812264 0.043627 -0.174548
C29   C     C_R   0.660358 0.799165 0.904510 -0.185898
C30   C     C_R   0.633796 0.685215 0.848791 -0.068637
C31   C     C_R   0.567002 0.591601 0.922721 0.121591
C32   C     C_R   0.566040 0.595805 0.071525 0.070794
C33   C     C_R   0.430632 0.415675 0.074056 0.402630
C34   C     C_R   0.736955 0.494343 0.500729 0.845164
C35   C     C_R   0.432867 0.414669 0.927376 -0.102801
C36   C     C_R   0.277195 0.724279 0.142561 -0.071707
C37   C     C_R   0.203779 0.690036 0.255697 -0.034503
C38   C     C_R   0.123233 0.583706 0.251153 0.111582
C39   C     C_R   0.108563 0.519837 0.127696 -0.104993
C40   C     C_R   0.178521 0.557560 0.012852 -0.045144
Cu1   Cu    Cu3+1 0.499990 0.499990 0.640660 0.966748
Cu2   Cu    Cu3+1 0.500010 0.500010 0.359340 1.037980
H1    H     H_    0.321583 0.684411 0.933589 0.162343
H2    H     H_    0.765325 0.151676 0.915071 0.179454
H3    H     H_    0.839265 0.224355 0.686290 0.171386
H4    H     H_    0.547734 0.177703 0.788704 0.206831
H5    H     H_    0.543336 0.895710 0.286807 0.186940
H6    H     H_    0.682981 0.899528 0.086003 0.213921
H7    H     H_    0.666476 0.673631 0.747124 0.223272
H8    H     H_    0.375289 0.346153 0.873675 0.176146
H9    H     H_    0.886683 0.543409 0.287449 0.192793
H10   H     H_    0.114536 0.423018 0.703014 0.150264
H11   H     H_    0.826627 0.518293 0.067914 0.188933
N1    N     N_R   0.501190 0.501210 0.147910 -0.209304
N2    N     N_R   0.501230 0.501290 0.852040 -0.221245
O1    O     O_R   0.499990 0.319640 0.618810 -0.601809
O2    O     O_R   0.500000 0.319660 0.381240 -0.511845
O3    O     O_R   0.319640 0.500000 0.618780 -0.570585
O4    O     O_R   0.319650 0.500020 0.381210 -0.562921
O5    O     O_R   0.500000 0.680340 0.618760 -0.592480
O6    O     O_R   0.500010 0.680360 0.381190 -0.577616
O7    O     O_R   0.680350 0.499980 0.618790 -0.603481
O8    O     O_R   0.680360 0.500000 0.381220 -0.527404
Br1   Br    Br    0.751958 0.272257 0.187052 -0.535194
H12   H     H_    0.563448 0.117946 0.295234 0.241950
Br2   Br    Br    0.448570 0.073197 0.048878 -0.537352
Br3   Br    Br    0.178121 0.928255 0.928744 -0.341533
Br4   Br    Br    0.219448 0.764026 0.646133 -0.476077
Br5   Br    Br    0.309053 0.307824 0.163969 -0.420534
H13   H     H_    0.343810 0.802304 0.148823 0.168079
Br6   Br    Br    0.737143 0.731895 0.278901 -0.513670
H14   H     H_    0.700277 0.874620 0.841719 0.188371
H15   H     H_    0.215229 0.741734 0.349139 0.156109
H16   H     H_    0.048402 0.436817 0.122871 0.167329
H17   H     H_    0.169426 0.506069 0.919083 0.150538
Br7   Br    Br    0.936113 0.664451 0.836704 -0.439986

loop_
_geom_bond_atom_site_label_1
_geom_bond_atom_site_label_2
_ccdc_geom_bond_type
C16   C21   A    
Cu1   Cu2   S    
C19   C20   A    
C7    C8    A    
C17   Br2   S    
C29   C30   A    
C28   C29   A    
C1    O1    A    
Cu1   O3    S    
C5    C6    A    
C23   C26   S    
C34   O7    A    
C18   C19   A    
C39   H16   S    
C10   H11   S    
Cu1   N2    S    
C12   O4    A    
C28   H6    S    
C16   C17   A    
C9    Br7   S    
C9    C10   A    
C25   H5    S    
C33   Br5   S    
C29   H14   S    
C12   O3    A    
C1    C22   S    
C21   C22   A    
C7    C12   S    
C8    C38   S    
Cu1   O7    S    
Cu2   O2    S    
C32   N1    A    
C25   C26   A    
C36   H13   S    
C14   H3    S    
C23   O5    A    
C4    C34   S    
C35   N2    A    
C24   C25   A    
C11   Br1   S    
C16   H4    S    
C39   C40   A    
C3    H9    S    
C18   Br3   S    
Cu1   O1    S    
C37   C38   A    
C1    O2    A    
C31   C32   A    
C2    H1    S    
C35   H8    S    
C17   C18   A    
C19   Br4   S    
Cu2   O6    S    
C24   H12   S    
C30   H7    S    
C3    C8    A    
C22   C24   A    
C3    C4    A    
C27   Br6   S    
C2    C36   A    
C33   N1    A    
C37   H15   S    
C36   C37   A    
C27   C32   A    
Cu1   O5    S    
C4    C5    A    
Cu2   O4    S    
C6    C7    A    
C40   H17   S    
C6    H10   S    
C9    C15   A    
Cu2   N1    S    
C11   C13   A    
C30   C31   A    
C38   C39   A    
C20   C26   A    
C34   O8    A    
C33   C35   A    
C5    C15   S    
C10   C11   A    
C2    C40   A    
C23   O6    A    
C20   C21   A    
C27   C28   A    
C14   C15   A    
C31   N2    A    
C13   C14   A    
Cu2   O8    S    
C13   H2    S    
