data_mof_unit_66684.cif
_audit_creation_date              2013-03-05T15:58:58-0500
_audit_creation_method            fapswitch 2.2
_symmetry_space_group_name_H-M    P1
_symmetry_Int_Tables_number       1
_space_group_crystal_system       triclinic
_cell_length_a                    8.198917
_cell_length_b                    12.657109
_cell_length_c                    14.930304
_cell_angle_alpha                 96.720934
_cell_angle_beta                  97.350156
_cell_angle_gamma                 98.57328
_cell_volume                      1504.77955124

loop_
_atom_site_label
_atom_site_type_symbol
_atom_site_description
_atom_site_fract_x
_atom_site_fract_y
_atom_site_fract_z
_atom_type_partial_charge
P1    P     P_3+3 0.998730 0.403530 0.291970 0.463606
O1    O     O_2   0.827880 0.435260 0.277750 -0.412044
O2    O     O_3   0.100280 0.438960 0.391170 -0.370276
O3    O     O_3   0.625580 0.634130 0.333250 -0.363710
O4    O     O_2   0.705155 0.556319 0.174037 -0.388144
O5    O     O_3   0.987573 0.264260 0.264101 -0.602918
O6    O     O_3   0.647477 0.754150 0.187563 -0.522553
H1    H     H_    0.633536 0.890687 0.270975 0.177298
C1    C     C_3   0.459525 0.874844 0.148571 -1.033981
H2    H     H_    0.389259 0.935550 0.178040 0.253955
H3    H     H_    0.550375 0.914462 0.108795 0.302575
P2    P     P_3+3 0.687380 0.751030 0.571310 0.449495
P3    P     P_3+3 0.104349 0.828700 0.376764 0.524294
O7    O     O_2   0.857130 0.766340 0.543890 -0.383463
O8    O     O_3   0.056550 0.691050 0.379010 -0.413196
O9    O     O_2   0.987362 0.882392 0.434292 -0.303779
O10   O     O_3   0.727184 0.784643 0.690172 -0.578365
O11   O     O_3   0.045734 0.855439 0.265551 -0.445524
C2    C     C_3   0.056926 0.764862 0.203723 0.491414
H4    H     H_    0.967659 0.693819 0.213378 0.149426
H5    H     H_    0.184363 0.744960 0.212791 -0.018345
C3    C     C_3   0.014919 0.787661 0.106216 -0.854446
H6    H     H_    0.881908 0.796223 0.091520 0.300825
H7    H     H_    0.093399 0.863140 0.095511 0.274255
C4    C     C_3   0.264626 0.780831 0.652007 0.377532
H8    H     H_    0.383552 0.760322 0.634255 0.093575
H9    H     H_    0.163064 0.751270 0.593954 0.137250
C5    C     C_3   0.279135 0.902485 0.671276 -0.899708
H10   H     H_    0.376734 0.934358 0.730482 0.256615
H11   H     H_    0.312982 0.939864 0.611399 0.224114
H12   H     H_    0.158380 0.923942 0.686835 0.277796
Ba1   Ba    Ba6+2 0.843750 0.550210 0.455600 1.577075
C6    C     C_3   0.851604 0.200701 0.289494 0.657203
H13   H     H_    0.784762 0.247833 0.335323 -0.032393
C7    C     C_3   0.734911 0.147854 0.201944 -0.145384
H14   H     H_    0.678632 0.211051 0.170223 0.104833
H15   H     H_    0.631923 0.089103 0.217824 0.126044
C8    C     C_3   0.773173 0.697080 0.730541 0.438391
H16   H     H_    0.887700 0.675881 0.706568 0.094535
H17   H     H_    0.671783 0.626096 0.714584 0.127260
C9    C     C_3   0.807213 0.729539 0.833538 -0.984321
H18   H     H_    0.913036 0.797767 0.851790 0.276334
H19   H     H_    0.838920 0.660905 0.868132 0.219353
H20   H     H_    0.694699 0.754550 0.858250 0.266604
P4    P     P_3+3 0.190990 0.596560 0.708040 0.454025
O12   O     O_2   0.361830 0.564780 0.722310 -0.378826
O13   O     O_3   0.089430 0.561130 0.608830 -0.409146
O14   O     O_3   0.564130 0.365960 0.666760 -0.387479
O15   O     O_3   0.232028 0.737467 0.730984 -0.566350
P5    P     P_3+3 0.089162 0.169659 0.621760 0.484178
O16   O     O_3   0.601940 0.368240 0.453770 -0.397800
O17   O     O_3   0.133170 0.309040 0.621000 -0.380831
O18   O     O_2   0.211840 0.118528 0.566681 -0.359952
O19   O     O_3   0.145271 0.142133 0.732799 -0.530027
Ba2   Ba    Ba6+2 0.346090 0.449880 0.544410 1.586510
P6    P     P_3+3 0.585152 0.625189 0.214752 0.461746
C10   C     C_3   0.549454 0.825552 0.224636 0.477234
H21   H     H_    0.457726 0.789971 0.266063 0.013974
H22   H     H_    0.371206 0.811225 0.101824 0.249340
O20   O     O_3   0.587780 0.631850 0.546230 -0.403080
C11   C     C_3   0.407553 0.286693 0.265367 0.372193
H23   H     H_    0.319664 0.325093 0.303826 0.139079
H24   H     H_    0.519252 0.347438 0.263730 0.100236
C12   C     C_3   0.320917 0.247623 0.167947 -0.845331
H25   H     H_    0.203443 0.191497 0.168335 0.306613
H26   H     H_    0.292006 0.316990 0.133546 0.222864
H27   H     H_    0.401374 0.204354 0.127805 0.262208
P7    P     P_3+3 0.505801 0.233260 0.422727 0.448925
O21   O     O_2   0.332590 0.233690 0.456160 -0.303838
O22   O     O_3   0.455350 0.198299 0.304413 -0.590807
H28   H     H_    0.037529 0.719972 0.057605 0.189291
C13   C     C_3   0.114338 0.226536 0.794958 0.419235
H29   H     H_    0.197559 0.302834 0.790805 0.162951
H30   H     H_    0.982775 0.238639 0.781748 0.003581
C14   C     C_3   0.149007 0.199174 0.891388 -0.806742
H31   H     H_    0.281732 0.190550 0.907673 0.310341
H32   H     H_    0.121995 0.264386 0.941028 0.222077
H33   H     H_    0.069742 0.122112 0.897836 0.252569
P8    P     P_3+3 0.600823 0.370360 0.783496 0.504540
C15   C     C_3   0.607456 0.165539 0.747535 0.443785
H34   H     H_    0.710964 0.204324 0.715040 -0.000232
O23   O     O_2   0.474256 0.436064 0.821247 -0.350134
O24   O     O_3   0.534205 0.237998 0.802373 -0.459070
H35   H     H_    0.510182 0.120423 0.692114 0.111566
H36   H     H_    0.777062 0.130117 0.859079 0.280478
C16   C     C_3   0.675399 0.086299 0.805573 -0.909475
H37   H     H_    0.724891 0.024668 0.762356 0.220106
H38   H     H_    0.575788 0.045685 0.839584 0.283919
C17   C     C_R   0.820163 0.431009 0.831840 0.185019
C18   C     C_R   0.889298 0.439048 0.925587 -0.215510
C19   C     C_R   0.039527 0.457745 0.112201 -0.118882
C20   C     C_R   0.881816 0.398320 0.081076 -0.111454
C21   C     C_R   0.803338 0.391995 0.992356 0.358882
C22   C     C_R   0.108299 0.471016 0.206073 0.285598
H39   H     H_    0.811182 0.357540 0.126090 0.174947
C23   C     C_R   0.269862 0.526555 0.233257 -0.544164
C24   C     C_R   0.080064 0.531841 0.796847 0.238170
C25   C     C_R   0.149052 0.544059 0.890821 0.004368
C26   C     C_R   0.056079 0.495384 0.954424 0.000371
C27   C     C_R   0.309383 0.603078 0.923386 -0.088283
C28   C     C_R   0.382243 0.608421 0.013733 -0.128305
C29   C     C_R   0.294732 0.560415 0.077422 0.028637
C30   C     C_R   0.129779 0.505086 0.048067 0.008639
C31   C     C_R   0.365909 0.567095 0.170109 0.184085
C32   C     C_R   0.918863 0.473315 0.769563 -0.530088
H40   H     H_    0.507922 0.651986 0.032953 0.174711
H41   H     H_    0.382665 0.645440 0.879601 0.164961
H42   H     H_    0.324507 0.533575 0.304031 0.182041
H43   H     H_    0.866010 0.464957 0.698406 0.176267
C33   C     C_R   0.774114 0.180500 0.530657 -0.426594
C34   C     C_R   0.420795 0.808316 0.463012 -0.516152
C35   C     C_R   0.389956 0.986125 0.429633 -0.202008
C36   C     C_R   0.323742 0.878078 0.425266 0.169241
C37   C     C_R   0.579519 0.847564 0.512575 0.292343
C38   C     C_R   0.645618 0.959558 0.521496 -0.020276
C39   C     C_R   0.549151 0.028987 0.477944 -0.034544
C40   C     C_R   0.614837 0.139684 0.483406 0.247064
C41   C     C_R   0.871718 0.113156 0.571416 0.249584
C42   C     C_R   0.806184 0.004169 0.569762 -0.181378
H44   H     H_    0.313983 0.035861 0.396057 0.232723
H45   H     H_    0.883836 0.955646 0.604691 0.168221
H46   H     H_    0.825560 0.264687 0.532231 0.162168
H47   H     H_    0.368563 0.723781 0.458175 0.174260
N1    N     N_R   0.913445 0.116790 0.336943 0.234457
O25   O     O_R   0.070426 0.108501 0.344508 -0.319647
O26   O     O_R   0.810017 0.040650 0.360185 -0.464204
N2    N     N_R   0.825712 0.092986 0.137697 0.273352
O27   O     O_R   0.852429 0.131374 0.062856 -0.381730
O28   O     O_R   0.880416 0.005147 0.154849 -0.339959
N3    N     N_R   0.633665 0.339300 0.975939 0.251293
O29   O     O_R   0.519844 0.396556 0.994021 -0.399923
O30   O     O_R   0.603387 0.236714 0.981843 -0.391851

loop_
_geom_bond_atom_site_label_1
_geom_bond_atom_site_label_2
_geom_bond_distance
_ccdc_geom_bond_type
C11   O22   1.403608 S    
O14   Ba2   2.801026 S    
C26   C30   1.434034 A    
C28   C29   1.402864 A    
C9    H18   1.110785 S    
C18   C26   1.431938 A    
O4    P6    1.543418 D    
C2    H4    1.107310 S    
C15   H35   1.109776 S    
C33   C41   1.391923 A    
C37   C38   1.424467 A    
O8    Ba1   2.754956 S    
P4    O12   1.510248 D    
C4    C5    1.516849 S    
P5    O19   1.751947 S    
P3    O11   1.754540 S    
O14   P8    1.723202 S    
N1    O26   1.295440 A    
C5    H10   1.106236 S    
C7    H15   1.107909 S    
O11   C2    1.407205 S    
C13   C14   1.521489 S    
C8    H16   1.104743 S    
H1    C10   1.099357 S    
C16   H38   1.109573 S    
C38   C39   1.424786 A    
C39   C40   1.413094 A    
O1    Ba1   2.852285 S    
P1    O1    1.510019 D    
C11   H24   1.109341 S    
C41   C42   1.399954 A    
C20   C21   1.384478 A    
C15   C16   1.521034 S    
C6    C7    1.534921 S    
O2    Ba2   2.824632 S    
P3    C36   1.837443 S    
C7    H14   1.104455 S    
P1    C22   1.871844 S    
O12   Ba2   2.852843 S    
C6    N1    1.460030 S    
P5    O17   1.748868 S    
C1    H2    1.110654 S    
Ba1   Ba2   4.500334 S    
C1    C10   1.520322 S    
C11   H23   1.109126 S    
O17   Ba2   2.755535 S    
C13   H29   1.109229 S    
C24   C32   1.400434 A    
P4    O13   1.583074 S    
C23   H42   1.081765 S    
C8    H17   1.109759 S    
Ba2   O20   2.800548 S    
O3    P6    1.744910 S    
C9    H19   1.107697 S    
C29   C30   1.416228 A    
O6    P6    1.746335 S    
C15   O24   1.409413 S    
C33   C40   1.395622 A    
C35   C36   1.384894 A    
C24   C25   1.425654 A    
P2    C37   1.848912 S    
C42   H45   1.077533 S    
P5    O18   1.545284 D    
C34   H47   1.082047 S    
P1    O5    1.749093 S    
C12   H27   1.107395 S    
C2    C3    1.523459 S    
P6    C31   1.844121 S    
C8    C9    1.523010 S    
C13   H30   1.108064 S    
O7    Ba1   2.874465 S    
C19   C20   1.388579 A    
C35   H44   1.070738 S    
C16   H37   1.110442 S    
P7    O21   1.564940 D    
C4    H8    1.101756 S    
H36   C16   1.108425 S    
C20   H39   1.070105 S    
C1    H22   1.106886 S    
C12   H26   1.107837 S    
P2    O10   1.752299 S    
C11   C12   1.525537 S    
N3    O30   1.300627 A    
C14   H31   1.108662 S    
N2    O28   1.299517 A    
Ba1   O16   2.801096 S    
P7    C40   1.839127 S    
C1    H3    1.109277 S    
P4    O15   1.749268 S    
C6    H13   1.105558 S    
C34   C36   1.393443 A    
Ba2   O21   2.874779 S    
C22   C23   1.389816 A    
C14   H32   1.110377 S    
O3    Ba1   2.801676 S    
P2    O7    1.492015 D    
C38   C42   1.418317 A    
P3    O8    1.733094 S    
Ba1   O13   2.823883 S    
C3    H7    1.109518 S    
Ba1   O20   2.889478 S    
N2    O27   1.300226 A    
C3    H28   1.109664 S    
C35   C39   1.405205 A    
C18   C21   1.427854 A    
O13   Ba2   2.901785 S    
C28   H40   1.079855 S    
C32   H43   1.081619 S    
C27   H41   1.078117 S    
C2    H5    1.106239 S    
P5    C41   1.845526 S    
C5    H12   1.110039 S    
C19   C30   1.416653 A    
C15   H34   1.110621 S    
P8    O23   1.543819 D    
C4    H9    1.109578 S    
C25   C27   1.407519 A    
O5    C6    1.394935 S    
C29   C31   1.419159 A    
C12   H25   1.109405 S    
C7    N2    1.462056 S    
C23   C31   1.398232 A    
N3    O29   1.299716 A    
P4    C24   1.896540 S    
C33   H46   1.082361 S    
C19   C22   1.422983 A    
P8    O24   1.749735 S    
C10   H21   1.110960 S    
C5    H11   1.106070 S    
C27   C28   1.393345 A    
C9    H20   1.110926 S    
C34   C37   1.400972 A    
O16   Ba2   2.888730 S    
O16   P7    1.753457 S    
P1    Ba1   3.386120 S    
O2    Ba1   2.900945 S    
C14   H33   1.109943 S    
C4    O15   1.396947 S    
P8    C17   1.863038 S    
P2    O20   1.582669 S    
O19   C13   1.405637 S    
O10   C8    1.398776 S    
P4    Ba2   3.386661 S    
P7    O22   1.750091 S    
C25   C26   1.429881 A    
P3    O9    1.545341 D    
C17   C32   1.409252 A    
C3    H6    1.108498 S    
P1    O2    1.582919 S    
C17   C18   1.427310 A    
O6    C10   1.407942 S    
P2    Ba1   3.405800 S    
C21   N3    1.427593 S    
N1    O25   1.298526 A    
