data_mof_unit_22007.cif
_audit_creation_date              2012-10-26T18:33:59-0400
_audit_creation_method            fapswitch 2.2
_symmetry_space_group_name_H-M    P1
_symmetry_Int_Tables_number       1
_space_group_crystal_system       triclinic
_cell_length_a                    11.074461
_cell_length_b                    10.78439
_cell_length_c                    9.618691
_cell_angle_alpha                 88.421538
_cell_angle_beta                  103.203069
_cell_angle_gamma                 92.27296
_cell_volume                      1117.32518269

loop_
_atom_site_label
_atom_site_type_symbol
_atom_type_description
_atom_site_fract_x
_atom_site_fract_y
_atom_site_fract_z
_atom_type_partial_charge
C1    C     C_R   0.499039 0.262407 0.501018 0.541641
C2    C     C_2   0.873198 0.512913 0.596149 -0.025931
C3    C     C_2   0.066718 0.520232 0.506108 -0.128438
C4    C     C_2   0.933629 0.493225 0.492574 -0.122609
C5    C     C_R   0.443760 0.065290 0.376127 -0.136489
C6    C     C_R   0.553656 0.934652 0.624652 -0.133386
C7    C     C_R   0.444555 0.936996 0.374828 -0.139500
C8    C     C_R   0.551933 0.062892 0.626382 -0.142077
C9    C     C_R   0.500688 0.871606 0.498526 0.023067
C10   C     C_R   0.497450 0.128376 0.501944 0.018488
C11   C     C_2   0.934753 0.549821 0.744279 0.228168
C12   C     C_R   0.500444 0.737597 0.498980 0.543628
C13   C     C_2   0.063097 0.465424 0.253749 0.228848
C14   C     C_3   0.380963 0.285718 0.848822 -0.231735
C15   C     C_3   0.256892 0.294606 0.740715 -0.365632
C16   C     C_3   0.656185 0.685387 0.169977 -0.247671
C17   C     C_3   0.610796 0.816052 0.126806 -0.455204
C18   C     C_R   0.262670 0.500293 0.440613 0.508957
C19   C     C_R   0.737309 0.502583 0.559208 0.512411
C20   C     C_R   0.431135 0.414757 0.062071 0.033337
C21   C     C_R   0.566763 0.587239 0.938119 0.039578
C22   C     C_R   0.435553 0.408150 0.916192 0.136946
C23   C     C_R   0.569939 0.587169 0.086610 0.139038
C24   C     C_2   0.126597 0.496955 0.403071 -0.029180
Cu1   Cu    Cu3+1 0.500000 0.500020 0.640660 0.939033
Cu2   Cu    Cu3+1 0.500000 0.499980 0.359340 0.936993
H1    H     H_    0.880727 0.456661 0.392372 0.196565
H2    H     H_    0.107153 0.404568 0.193632 0.130661
H3    H     H_    0.192850 0.216818 0.758312 0.122853
H4    H     H_    0.269341 0.285427 0.630532 0.163868
H5    H     H_    0.211845 0.382292 0.752374 0.211359
H6    H     H_    0.449911 0.233076 0.811437 0.164541
H7    H     H_    0.362158 0.220003 0.933290 0.078660
H8    H     H_    0.510188 0.820256 0.122576 0.166349
H9    H     H_    0.662127 0.883956 0.205520 0.150384
H10   H     H_    0.626866 0.843089 0.020113 0.126917
H11   H     H_    0.670585 0.674668 0.285541 0.213550
H12   H     H_    0.120271 0.556288 0.606178 0.191519
H13   H     H_    0.750018 0.677726 0.148347 0.153825
H14   H     H_    0.377537 0.346923 0.110023 0.111716
H15   H     H_    0.621525 0.655316 0.892150 0.112364
H16   H     H_    0.399900 0.115080 0.279543 0.115838
H17   H     H_    0.597350 0.884865 0.721306 0.115168
H18   H     H_    0.398980 0.888969 0.278727 0.124978
H19   H     H_    0.595422 0.110732 0.723542 0.119264
H20   H     H_    0.887006 0.609074 0.802137 0.130697
N1    N     N_R   0.500030 0.500030 0.852080 -0.225123
N2    N     N_R   0.499970 0.499970 0.147920 -0.231968
O1    O     O_R   0.499990 0.319660 0.618740 -0.513685
O2    O     O_2   0.966182 0.512775 0.193646 -0.523664
O3    O     O_R   0.500010 0.680340 0.381260 -0.513011
O4    O     O_R   0.499990 0.319630 0.381170 -0.506819
O5    O     O_R   0.500010 0.680370 0.618830 -0.507841
O6    O     O_R   0.320690 0.500020 0.575130 -0.502613
O7    O     O_R   0.679310 0.499980 0.424870 -0.516260
O8    O     O_R   0.320680 0.499990 0.337560 -0.499174
O9    O     O_R   0.679320 0.500010 0.662440 -0.500341
O10   O     O_2   0.034208 0.508826 0.806251 -0.532856

loop_
_geom_bond_atom_site_label_1
_geom_bond_atom_site_label_2
_ccdc_geom_bond_type
C2    C4    D    
C5    H16   S    
C13   H2    S    
C15   H5    S    
C23   N2    A    
C17   H10   S    
Cu2   O4    S    
C11   O10   D    
C20   C22   A    
Cu1   N1    S    
C12   O5    A    
C18   O8    A    
C16   H11   S    
Cu2   O7    S    
C14   C22   S    
C14   H7    S    
C22   N1    A    
C2    C19   S    
C5    C10   A    
Cu2   O3    S    
C19   O9    A    
C3    C24   D    
C20   N2    A    
Cu1   O9    S    
Cu1   O6    S    
C6    C9    A    
C18   C24   S    
C2    C11   S    
C13   O2    D    
C1    O4    A    
Cu1   O5    S    
C15   H3    S    
C16   C23   S    
C5    C7    A    
C6    H17   S    
C21   C23   A    
C20   H14   S    
C9    C12   S    
Cu1   O1    S    
C17   H8    S    
C18   O6    A    
C16   H13   S    
C3    C4    S    
C12   O3    A    
Cu2   N2    S    
C13   C24   S    
C15   H4    S    
C8    C10   A    
C21   H15   S    
C19   O7    A    
C7    C9    A    
C14   C15   S    
C11   H20   S    
C6    C8    A    
C4    H1    S    
C17   H9    S    
Cu1   Cu2   S    
C7    H18   S    
C1    O1    A    
C1    C10   S    
C8    H19   S    
C3    H12   S    
C14   H6    S    
C16   C17   S    
C21   N1    A    
Cu2   O8    S    
