data_mof_unit_59357.cif
_audit_creation_date              2012-12-10T17:35:34-0500
_audit_creation_method            fapswitch 2.2
_symmetry_space_group_name_H-M    P1
_symmetry_Int_Tables_number       1
_space_group_crystal_system       triclinic
_cell_length_a                    10.702413
_cell_length_b                    12.325342
_cell_length_c                    13.167657
_cell_angle_alpha                 116.65023
_cell_angle_beta                  77.628513
_cell_angle_gamma                 101.230727
_cell_volume                      1506.66212973

loop_
_atom_site_label
_atom_site_type_symbol
_atom_type_description
_atom_site_fract_x
_atom_site_fract_y
_atom_site_fract_z
_atom_type_partial_charge
C1    C     C_R   0.511181 0.854904 0.286546 0.765062
C2    C     C_3   0.121894 0.998708 0.499376 0.091358
C3    C     C_3   0.070588 0.113055 0.603904 0.355673
C4    C     C_3   0.043112 0.881322 0.506598 -0.341231
C5    C     C_R   0.325005 0.276420 0.021159 -0.216177
C6    C     C_R   0.453431 0.228035 0.834710 -0.055729
C7    C     C_R   0.596230 0.814921 0.085007 -0.192983
C8    C     C_R   0.621507 0.735851 0.969951 -0.150829
C9    C     C_R   0.575297 0.612739 0.932242 -0.183367
C10   C     C_R   0.497812 0.566569 0.009170 0.081304
C11   C     C_R   0.459510 0.650452 0.123598 0.084117
C12   C     C_R   0.739950 0.998851 0.498997 0.768532
C13   C     C_R   0.456032 0.440116 0.976030 0.075692
C14   C     C_R   0.366933 0.401034 0.053115 0.168933
C15   C     C_R   0.318515 0.486841 0.160166 -0.247925
C16   C     C_R   0.362617 0.609816 0.194387 -0.203658
C17   C     C_R   0.501334 0.350901 0.868754 -0.261645
C18   C     C_R   0.367393 0.190208 0.911969 -0.184399
C19   C     C_R   0.518313 0.773069 0.163393 -0.104999
C20   C     C_R   0.705370 0.347009 0.328843 -0.308324
C21   C     C_R   0.320347 0.756780 0.639942 -0.023601
C22   C     C_R   0.268012 0.652452 0.656366 -0.330366
C23   C     C_R   0.480729 0.145085 0.713468 0.815520
C24   C     C_R   0.325653 0.544147 0.593615 0.500931
C25   C     C_R   0.446887 0.544639 0.523681 -0.121963
C26   C     C_R   0.491005 0.651444 0.503181 0.229777
C27   C     C_R   0.522617 0.442761 0.468684 -0.028507
C28   C     C_R   0.631017 0.445186 0.385804 0.180070
C29   C     C_R   0.665932 0.546158 0.360965 -0.288014
C30   C     C_R   0.598831 0.647399 0.419480 -0.159942
C31   C     C_R   0.499754 0.340216 0.495058 0.037709
C32   C     C_R   0.674762 0.247429 0.355871 0.061779
C33   C     C_R   0.260265 0.999348 0.498966 0.797852
C34   C     C_3   0.958001 0.999099 0.386106 -0.405389
C35   C     C_3   0.102072 0.000091 0.386633 -0.489600
C36   C     C_3   0.925882 0.112296 0.602412 -0.418085
C37   C     C_3   0.899979 0.881826 0.507792 -0.375221
C38   C     C_3   0.877938 0.997884 0.498786 0.108988
Cu1   Cu    Cu3+1 0.529690 0.098270 0.475420 0.928967
Cu2   Cu    Cu3+1 0.470310 0.901730 0.524580 0.924551
H1    H     H_    0.944334 0.081282 0.376796 0.173099
H2    H     H_    0.055497 0.875099 0.585582 0.203330
H3    H     H_    0.867497 0.113352 0.683678 0.180627
H4    H     H_    0.328769 0.095187 0.886395 0.156067
H5    H     H_    0.246342 0.458816 0.217986 0.135443
H6    H     H_    0.256601 0.246115 0.079461 0.130147
H7    H     H_    0.573425 0.374370 0.808794 0.146919
H8    H     H_    0.640491 0.908616 0.113091 0.151059
H9    H     H_    0.599570 0.556979 0.841829 0.128344
H10   H     H_    0.680789 0.769436 0.910034 0.140690
H11   H     H_    0.925126 0.917290 0.310733 0.164558
H12   H     H_    0.316928 0.672445 0.275946 0.168006
H13   H     H_    0.731415 0.171125 0.311893 0.117859
H14   H     H_    0.748192 0.548236 0.297083 0.143612
H15   H     H_    0.787294 0.347730 0.264334 0.132751
H16   H     H_    0.425686 0.334607 0.562696 0.188181
H17   H     H_    0.271139 0.838005 0.684761 0.158475
H18   H     H_    0.177324 0.653110 0.712060 0.164008
H19   H     H_    0.634274 0.720084 0.394670 0.201870
H20   H     H_    0.139281 0.918997 0.311167 0.177230
H21   H     H_    0.156719 0.082783 0.377882 0.178086
H22   H     H_    0.912028 0.196853 0.597362 0.132809
H23   H     H_    0.125649 0.194962 0.593374 0.101738
H24   H     H_    0.844708 0.878762 0.588565 0.186035
H25   H     H_    0.865668 0.798237 0.434590 0.159460
H26   H     H_    0.078021 0.798551 0.431719 0.151344
N1    N     N_R   0.574690 0.246280 0.438200 -0.192164
N2    N     N_R   0.426100 0.754320 0.561190 -0.199501
O1    O     O_R   0.537340 0.972510 0.318130 -0.579367
O2    O     O_R   0.487200 0.806530 0.359650 -0.599990
O3    O     O_R   0.707380 0.082980 0.479220 -0.587263
O4    O     O_R   0.657240 0.917000 0.520740 -0.604132
O5    O     O_R   0.512800 0.193470 0.640350 -0.589577
O6    O     O_R   0.462660 0.027490 0.681870 -0.576825
O7    O     O_R   0.342760 0.083000 0.479260 -0.593089
O8    O     O_R   0.292620 0.917020 0.520780 -0.588906
O9    O     O_3   0.087428 0.111583 0.707412 -0.590949
C39   C     C_3   0.110321 0.231783 0.792076 -0.330388
H27   H     H_    0.033637 0.288224 0.805501 0.163642
H28   H     H_    0.206428 0.275540 0.769067 0.184650
H29   H     H_    0.110183 0.227822 0.874586 0.195243
O10   O     O_3   0.253854 0.437381 0.591614 -0.606716
C40   C     C_3   0.186303 0.386399 0.496238 -0.373554
H30   H     H_    0.128136 0.452698 0.497115 0.167417
H31   H     H_    0.117740 0.307942 0.499550 0.173684
H32   H     H_    0.253393 0.351990 0.414186 0.171172

loop_
_geom_bond_atom_site_label_1
_geom_bond_atom_site_label_2
_ccdc_geom_bond_type
C2    C35   S    
C7    C8    A    
O9    C39   S    
C31   N1    A    
C11   C19   A    
C34   H11   S    
C29   C30   A    
Cu2   O2    S    
C28   C29   A    
C39   H28   S    
C29   H14   S    
C15   C16   A    
C34   C35   S    
C24   O10   S    
C33   O7    A    
C8    C9    A    
C37   H25   S    
Cu1   O7    S    
C31   H16   S    
C9    C10   A    
C12   O4    A    
C21   C22   A    
C34   H1    S    
C23   O5    A    
C20   H15   S    
C36   H22   S    
C6    C18   A    
C1    C19   S    
C27   C31   A    
C17   H7    S    
C9    H9    S    
C24   C25   A    
Cu1   Cu2   S    
C39   H27   S    
C5    C18   A    
C20   C28   A    
C25   C26   A    
C1    O1    A    
Cu2   O8    S    
C35   H20   S    
C2    C4    S    
C21   H17   S    
C37   C38   S    
C18   H4    S    
C11   C16   A    
C33   O8    A    
C40   H30   S    
C30   H19   S    
Cu1   O1    S    
C35   H21   S    
C5    C14   A    
C32   N1    A    
C2    C33   S    
C40   H31   S    
C12   O3    A    
C26   C30   A    
C7    C19   A    
C21   N2    A    
C22   C24   A    
C15   H5    S    
C23   O6    A    
C3    O9    S    
C8    H10   S    
C32   H13   S    
C37   H24   S    
C20   C32   A    
C6    C17   A    
Cu2   O4    S    
C34   C38   S    
Cu1   N1    S    
C16   H12   S    
C10   C13   A    
C22   H18   S    
C3    H23   S    
C25   C27   A    
C5    H6    S    
C1    O2    A    
C13   C17   A    
C26   N2    A    
C7    H8    S    
C36   C38   S    
C2    C3    S    
C4    H26   S    
C39   H29   S    
C4    H2    S    
C3    C36   S    
C6    C23   S    
Cu2   O6    S    
Cu1   O5    S    
C12   C38   S    
C10   C11   A    
C40   H32   S    
C4    C37   S    
O10   C40   S    
Cu2   N2    S    
C27   C28   A    
Cu1   O3    S    
C14   C15   A    
C36   H3    S    
C13   C14   A    
