data_mof_unit_19602.cif
_audit_creation_date              2012-12-11T14:30:54-0500
_audit_creation_method            fapswitch 2.2
_symmetry_space_group_name_H-M    P1
_symmetry_Int_Tables_number       1
_space_group_crystal_system       triclinic
_cell_length_a                    17.491138
_cell_length_b                    24.4563
_cell_length_c                    14.939769
_cell_angle_alpha                 89.875283
_cell_angle_beta                  125.506782
_cell_angle_gamma                 89.919122
_cell_volume                      5202.3394619

loop_
_atom_site_label
_atom_site_type_symbol
_atom_type_description
_atom_site_fract_x
_atom_site_fract_y
_atom_site_fract_z
_atom_type_partial_charge
C1    C     C_R   0.817395 0.634955 0.905357 -0.176246
C2    C     C_R   0.175994 0.639830 0.091510 -0.175795
C3    C     C_R   0.316399 0.133900 0.906016 -0.157900
C4    C     C_R   0.647693 0.152693 0.092675 -0.179024
C5    C     C_R   0.831828 0.347156 0.003601 0.043011
C6    C     C_R   0.114359 0.318349 0.995552 0.047337
C7    C     C_R   0.381484 0.820325 0.006531 0.046803
C8    C     C_R   0.614592 0.818433 0.995243 0.063025
C9    C     C_R   0.996981 0.500927 0.320667 0.132236
C10   C     C_R   0.930292 0.501596 0.632113 0.133666
C11   C     C_R   0.541505 0.000983 0.354074 0.133674
C12   C     C_R   0.550625 0.001037 0.728878 0.136574
C13   C     C_R   0.690120 0.502235 0.645024 0.008868
C14   C     C_R   0.324664 0.499999 0.293317 0.021968
C15   C     C_R   0.184319 0.001930 0.653277 0.011801
C16   C     C_R   0.824399 0.001213 0.285143 0.017415
C17   C     C_3   0.520667 0.470799 0.542128 -0.137204
C18   C     C_3   0.486366 0.448438 0.428266 -0.167101
C19   C     C_3   0.014435 0.965846 0.534881 -0.146824
C20   C     C_3   0.987712 0.950790 0.419806 -0.165138
C21   C     C_3   0.457458 0.521428 0.489826 -0.149650
C22   C     C_3   0.565156 0.479771 0.432302 -0.154344
C23   C     C_3   0.948793 0.015796 0.487620 -0.141171
C24   C     C_3   0.067727 0.987186 0.437489 -0.149791
C25   C     C_3   0.423965 0.499224 0.376855 0.186311
C26   C     C_3   0.597480 0.502128 0.544660 0.187969
C27   C     C_3   0.922959 0.000894 0.373511 0.184560
C28   C     C_3   0.092434 0.002162 0.550874 0.185992
C29   C     C_3   0.500272 0.530606 0.378438 -0.147764
C30   C     C_3   0.535062 0.552841 0.492975 -0.167331
C31   C     C_3   0.000678 0.037348 0.388981 -0.154928
C32   C     C_3   0.027731 0.052225 0.504489 -0.163695
C33   C     C_2   0.261888 0.685615 0.936398 0.678658
C34   C     C_2   0.735262 0.682796 0.065726 0.674214
C35   C     C_2   0.611377 0.272146 0.916851 0.672421
C36   C     C_2   0.233210 0.181510 0.066930 0.667828
C37   C     C_2   0.227546 0.695318 0.995393 -0.391093
C38   C     C_2   0.761229 0.689745 0.997447 -0.385171
C39   C     C_2   0.636095 0.242607 0.005792 -0.357736
C40   C     C_2   0.258205 0.187071 0.997573 -0.379106
C41   C     C_2   0.675466 0.316339 0.932340 -0.271014
C42   C     C_2   0.184865 0.228541 0.075683 -0.302740
C43   C     C_2   0.313634 0.730701 0.929251 -0.296816
C44   C     C_2   0.685055 0.728738 0.074275 -0.296864
C45   C     C_R   0.915972 0.365734 0.094418 -0.299126
C46   C     C_R   0.054881 0.350970 0.905689 -0.288464
C47   C     C_R   0.441676 0.852556 0.095548 -0.300054
C48   C     C_R   0.555535 0.851007 0.906011 -0.325274
C49   C     C_2   0.768634 0.309878 0.004261 -0.217200
C50   C     C_2   0.127139 0.260109 0.987816 -0.237345
C51   C     C_2   0.366731 0.763036 0.016247 -0.240487
C52   C     C_2   0.628280 0.760573 0.986762 -0.240381
C53   C     C_2   0.909164 0.461823 0.383294 -0.118131
C54   C     C_2   0.888237 0.458146 0.464302 -0.126711
C55   C     C_2   0.607724 0.960845 0.535018 -0.124711
C56   C     C_2   0.609816 0.957467 0.634295 -0.112874
C57   C     C_2   0.967074 0.500833 0.392146 -0.180148
C58   C     C_2   0.890159 0.503221 0.515815 -0.209466
C59   C     C_2   0.562769 0.002154 0.463238 -0.197069
C60   C     C_2   0.600986 0.002435 0.678483 -0.194321
C61   C     C_R   0.011796 0.546753 0.279059 -0.117844
C62   C     C_R   0.948722 0.546857 0.696139 -0.130084
C63   C     C_R   0.535201 0.046693 0.295805 -0.127378
C64   C     C_R   0.520362 0.046808 0.754298 -0.156466
C65   C     C_R   0.740428 0.456433 0.701206 -0.121043
C66   C     C_R   0.268256 0.454730 0.258850 -0.145588
C67   C     C_R   0.236547 0.956034 0.707199 -0.129051
C68   C     C_R   0.768651 0.955646 0.255767 -0.143957
C69   C     C_R   0.012210 0.455404 0.278967 -0.127622
C70   C     C_R   0.948016 0.455915 0.695727 -0.102397
C71   C     C_R   0.536738 0.955371 0.296653 -0.116462
C72   C     C_R   0.517446 0.955393 0.751391 -0.114706
C73   C     C_R   0.739559 0.547545 0.702252 -0.123958
C74   C     C_R   0.270280 0.546266 0.263582 -0.122755
C75   C     C_R   0.236565 0.047407 0.706274 -0.125497
C76   C     C_R   0.769015 0.047151 0.254936 -0.129458
C77   C     C_R   0.823328 0.366305 0.911570 0.615673
C78   C     C_R   0.145433 0.349759 0.087648 0.611950
C79   C     C_R   0.352082 0.850729 0.913493 0.641515
C80   C     C_R   0.645354 0.849549 0.087185 0.625912
C81   C     C_R   0.910630 0.635681 0.089810 -0.052531
C82   C     C_R   0.086239 0.635767 0.907050 -0.048914
C83   C     C_R   0.408250 0.132690 0.090734 -0.057012
C84   C     C_R   0.555953 0.152561 0.910131 -0.109735
C85   C     C_R   0.826024 0.653612 0.997719 0.199574
C86   C     C_R   0.166510 0.657672 0.997874 0.197089
C87   C     C_R   0.323454 0.150811 0.998543 0.196831
C88   C     C_R   0.614997 0.184667 0.001165 0.176827
H1    H     H_    0.762056 0.644127 0.820562 0.101802
H2    H     H_    0.225933 0.654150 0.174301 0.096752
H3    H     H_    0.261292 0.143697 0.821510 0.101766
H4    H     H_    0.684802 0.167130 0.176424 0.097209
H5    H     H_    0.531185 0.446496 0.611391 0.120759
H6    H     H_    0.464739 0.405706 0.399868 0.120350
H7    H     H_    0.022164 0.936848 0.596971 0.125315
H8    H     H_    0.969615 0.909385 0.382725 0.124054
H9    H     H_    0.488673 0.554768 0.308522 0.112732
H10   H     H_    0.556289 0.595661 0.520921 0.103245
H11   H     H_    0.992247 0.066271 0.326435 0.109459
H12   H     H_    0.045357 0.093712 0.541194 0.105425
H13   H     H_    0.243706 0.732133 0.043795 0.125533
H14   H     H_    0.737676 0.724147 0.941191 0.119936
H15   H     H_    0.689599 0.257955 0.087490 0.106067
H16   H     H_    0.234004 0.220952 0.940034 0.122614
H17   H     H_    0.647444 0.351138 0.876572 0.164400
H18   H     H_    0.210068 0.240845 0.157743 0.209618
H19   H     H_    0.294819 0.741188 0.848630 0.198365
H20   H     H_    0.707840 0.740311 0.155914 0.204480
H21   H     H_    0.799820 0.275571 0.060966 0.130037
H22   H     H_    0.097317 0.244443 0.905750 0.134637
H23   H     H_    0.390794 0.748770 0.097740 0.133810
H24   H     H_    0.599808 0.745463 0.904654 0.132250
H25   H     H_    0.886392 0.428678 0.324724 0.126938
H26   H     H_    0.890898 0.417623 0.495596 0.118364
H27   H     H_    0.631332 0.925369 0.513698 0.117749
H28   H     H_    0.601888 0.917013 0.657701 0.116579
H29   H     H_    0.992785 0.533641 0.451757 0.136811
H30   H     H_    0.881216 0.543323 0.479299 0.135929
H31   H     H_    0.536353 0.037306 0.481669 0.136536
H32   H     H_    0.615733 0.042540 0.660603 0.130121
H33   H     H_    0.947641 0.353400 0.178281 0.132019
H34   H     H_    0.009735 0.337436 0.821273 0.128629
H35   H     H_    0.483050 0.839930 0.180718 0.130309
H36   H     H_    0.512829 0.837569 0.821599 0.129419
H37   H     H_    0.014537 0.588438 0.304001 0.097231
H38   H     H_    0.929729 0.588598 0.667103 0.087323
H39   H     H_    0.549648 0.088353 0.325275 0.089877
H40   H     H_    0.534072 0.088957 0.746486 0.099293
H41   H     H_    0.724484 0.415465 0.669201 0.154635
H42   H     H_    0.290403 0.412678 0.277384 0.166207
H43   H     H_    0.218041 0.914686 0.677708 0.161169
H44   H     H_    0.792831 0.914196 0.278144 0.174982
H45   H     H_    0.017081 0.413702 0.305248 0.085199
H46   H     H_    0.928675 0.414204 0.667790 0.075008
H47   H     H_    0.549571 0.913292 0.324135 0.079646
H48   H     H_    0.527705 0.913111 0.740689 0.094310
H49   H     H_    0.724632 0.589539 0.674376 0.083890
H50   H     H_    0.294720 0.587467 0.289983 0.091802
H51   H     H_    0.220823 0.089128 0.676761 0.088356
H52   H     H_    0.791371 0.089305 0.273231 0.098564
H53   H     H_    0.941956 0.647999 0.173487 0.110394
H54   H     H_    0.055249 0.644205 0.821315 0.114617
H55   H     H_    0.437855 0.141769 0.175668 0.119955
H56   H     H_    0.508612 0.165697 0.825799 0.155381
H57   H     H_    0.411331 0.538297 0.511694 0.112359
H58   H     H_    0.612637 0.463012 0.412408 0.115907
H59   H     H_    0.897995 0.027476 0.506185 0.116120
H60   H     H_    0.119590 0.975547 0.420638 0.112636
N1    N     N_R   0.892320 0.603520 0.941090 -0.046542
N2    N     N_R   0.107680 0.603520 0.058910 -0.043860
N3    N     N_R   0.392320 0.103520 0.941090 -0.044320
N4    N     N_R   0.607680 0.103520 0.058910 -0.039382
N5    N     N_R   0.953790 0.399020 0.058440 -0.072244
N6    N     N_R   0.046210 0.399020 0.941560 -0.066248
N7    N     N_R   0.453790 0.899020 0.058440 -0.070805
N8    N     N_R   0.546210 0.899020 0.941560 -0.068181
N9    N     N_R   0.026760 0.529450 0.205590 -0.045211
N10   N     N_R   0.973240 0.529450 0.794410 -0.040511
N11   N     N_R   0.526760 0.029450 0.205590 -0.042861
N12   N     N_R   0.473240 0.029450 0.794410 -0.042851
N13   N     N_R   0.819350 0.473090 0.793940 -0.043298
N14   N     N_R   0.180650 0.473090 0.206060 -0.041809
N15   N     N_R   0.319350 0.973090 0.793940 -0.039990
N16   N     N_R   0.680650 0.973090 0.206060 -0.043422
N17   N     N_R   0.027860 0.473090 0.206590 -0.041328
N18   N     N_R   0.972140 0.473090 0.793410 -0.039163
N19   N     N_R   0.527860 0.973090 0.206590 -0.041007
N20   N     N_R   0.472140 0.973090 0.793410 -0.045063
N21   N     N_R   0.818250 0.529450 0.792940 -0.036406
N22   N     N_R   0.181750 0.529450 0.207060 -0.038148
N23   N     N_R   0.318250 0.029450 0.792940 -0.036124
N24   N     N_R   0.681750 0.029450 0.207060 -0.039189
N25   N     N_R   0.896320 0.399020 0.944720 -0.105764
N26   N     N_R   0.103680 0.399020 0.055280 -0.100510
N27   N     N_R   0.396320 0.899020 0.944720 -0.101698
N28   N     N_R   0.603680 0.899020 0.055280 -0.101565
N29   N     N_R   0.949790 0.603520 0.054810 -0.059544
N30   N     N_R   0.050210 0.603520 0.945190 -0.059631
N31   N     N_R   0.449790 0.103520 0.054810 -0.058698
N32   N     N_R   0.550210 0.103520 0.945190 -0.053792
Ni1   Ni    Ni4+2 0.934100 0.565890 0.869590 0.207678
Ni2   Ni    Ni4+2 0.065900 0.565890 0.130410 0.208728
Ni3   Ni    Ni4+2 0.434100 0.065890 0.869590 0.216097
Ni4   Ni    Ni4+2 0.565900 0.065890 0.130410 0.208367
Ni5   Ni    Ni4+2 0.068420 0.436630 0.132700 0.206109
Ni6   Ni    Ni4+2 0.931580 0.436630 0.867300 0.199068
Ni7   Ni    Ni4+2 0.568420 0.936630 0.132700 0.202619
Ni8   Ni    Ni4+2 0.431580 0.936630 0.867300 0.203329
O1    O     O_3   0.235598 0.638282 0.872949 -0.616278
C89   C     C_3   0.300079 0.624815 0.848555 -0.254696
H61   H     H_    0.373903 0.625456 0.923397 0.133274
H62   H     H_    0.291191 0.652363 0.783863 0.135481
H63   H     H_    0.285251 0.582609 0.815531 0.175127
O2    O     O_3   0.770846 0.638405 0.138234 -0.617788
C90   C     C_3   0.713223 0.625115 0.172712 -0.260918
H64   H     H_    0.637723 0.622930 0.102207 0.133726
H65   H     H_    0.723837 0.654516 0.235564 0.135969
H66   H     H_    0.734109 0.584109 0.212014 0.178616
O3    O     O_3   0.528819 0.259971 0.814762 -0.635380
C91   C     C_3   0.536008 0.271302 0.727214 -0.262031
H67   H     H_    0.602810 0.255420 0.743665 0.160510
H68   H     H_    0.527982 0.315805 0.708731 0.159533
H69   H     H_    0.477623 0.250342 0.652567 0.161607
O4    O     O_3   0.268836 0.137745 0.140846 -0.619091
C92   C     C_3   0.211138 0.125522 0.175719 -0.257668
H70   H     H_    0.135604 0.123300 0.105319 0.136024
H71   H     H_    0.221982 0.155582 0.237735 0.137573
H72   H     H_    0.231659 0.084777 0.216099 0.173917
O5    O     O_3   0.760683 0.346529 0.806486 -0.644461
C93   C     C_3   0.811252 0.320389 0.771958 -0.348150
H73   H     H_    0.859947 0.288573 0.831917 0.154999
H74   H     H_    0.850259 0.350607 0.757349 0.144589
H75   H     H_    0.760560 0.299604 0.692741 0.175115
O6    O     O_3   0.199782 0.331304 0.195106 -0.656650
C94   C     C_3   0.144275 0.326897 0.234886 -0.350785
H76   H     H_    0.079627 0.302548 0.178557 0.152162
H77   H     H_    0.127363 0.367821 0.250880 0.168494
H78   H     H_    0.185469 0.304843 0.314698 0.178013
O7    O     O_3   0.285120 0.835523 0.806148 -0.637745
C95   C     C_3   0.328962 0.825036 0.753408 -0.402289
H79   H     H_    0.383137 0.792359 0.796721 0.155347
H80   H     H_    0.358772 0.862975 0.744474 0.162679
H81   H     H_    0.275102 0.809954 0.669317 0.186858
O8    O     O_3   0.711641 0.833445 0.194449 -0.650653
C96   C     C_3   0.669623 0.828390 0.250480 -0.392439
H82   H     H_    0.614579 0.796247 0.212212 0.157584
H83   H     H_    0.642031 0.868161 0.255910 0.164709
H84   H     H_    0.724118 0.814971 0.335934 0.186365

loop_
_geom_bond_atom_site_label_1
_geom_bond_atom_site_label_2
_ccdc_geom_bond_type
C2    N2    A    
C83   C87   A    
C55   C56   S    
C51   H23   S    
C89   H61   S    
N20   Ni8   S    
C22   C29   S    
C55   C59   D    
C36   C42   S    
C19   C20   S    
C50   H22   S    
C82   H54   S    
N16   Ni7   S    
O8    C96   S    
C78   O6    S    
C95   H80   S    
C35   O3    S    
N2    Ni2   S    
C13   C65   A    
C53   C54   S    
N6    Ni6   S    
N10   N18   A    
C34   O2    S    
N13   Ni6   S    
C55   H27   S    
N5    Ni5   S    
C75   H51   S    
C9    C61   A    
C17   C26   S    
C14   C74   A    
C40   C87   S    
C3    H3    S    
C10   C58   S    
C9    C69   A    
C11   C63   A    
C70   N18   A    
N26   Ni5   S    
C71   H47   S    
C12   C64   A    
C11   C71   A    
C72   H48   S    
C40   H16   S    
C84   H56   S    
N29   Ni2   S    
N5    N25   A    
C58   H30   S    
C96   H84   S    
C66   N14   A    
C6    C78   A    
C33   O1    S    
C68   H44   S    
C49   H21   S    
C21   C25   S    
C89   H63   S    
N27   Ni8   S    
C79   O7    S    
C22   H58   S    
C91   H67   S    
C64   H40   S    
C1    H1    S    
C62   N10   A    
C1    N1    A    
C16   C68   A    
C31   H11   S    
N11   Ni4   S    
N4    Ni4   S    
N15   N23   A    
C8    C52   S    
N12   Ni3   S    
C94   H77   S    
N32   Ni3   S    
C77   O5    S    
C6    C46   A    
N2    N30   A    
C90   H66   S    
N13   N21   A    
C44   C52   D    
C16   C27   S    
N8    Ni8   S    
O2    C90   S    
C20   H8    S    
C15   C67   A    
O3    C91   S    
N18   Ni6   S    
N22   Ni2   S    
C25   C29   S    
C72   N20   A    
C5    C49   S    
C10   C62   A    
C18   C25   S    
C39   C88   S    
C11   C59   S    
C70   H46   S    
C41   C49   D    
C95   H79   S    
C53   H25   S    
C81   C85   A    
C17   C18   S    
C69   N17   A    
C44   H20   S    
C1    C85   A    
C4    N4    A    
N25   Ni6   S    
C74   N22   A    
N6    N26   A    
C38   C85   S    
C3    C87   A    
C33   C43   S    
C20   C24   S    
C37   C86   S    
C28   C32   S    
C78   N26   A    
C80   N28   A    
O5    C93   S    
C24   H60   S    
C94   H78   S    
N9    N17   A    
O7    C95   S    
C62   H38   S    
C53   C57   D    
O6    C94   S    
C34   C38   D    
N23   Ni3   S    
C45   H33   S    
C82   C86   A    
C5    C45   A    
N1    Ni1   S    
C33   C37   D    
C32   H12   S    
C63   N11   A    
N15   Ni8   S    
C21   H57   S    
N4    N32   A    
C35   C39   D    
C94   H76   S    
C8    C48   A    
C29   C30   S    
C79   N27   A    
C80   O8    S    
C74   H50   S    
C84   N32   A    
N24   Ni4   S    
C47   H35   S    
C31   C32   S    
N14   N22   A    
C36   C40   D    
N19   Ni7   S    
C82   N30   A    
N1    N29   A    
C96   H82   S    
C56   H28   S    
C34   C44   S    
C43   H19   S    
C14   C66   A    
C39   H15   S    
C19   C28   S    
C42   H18   S    
N21   Ni1   S    
C35   C41   S    
C41   H17   S    
C42   C50   D    
C61   N9    A    
C10   C70   A    
C46   N6    A    
C77   N25   A    
C13   C73   A    
C26   C30   S    
C23   C27   S    
C27   C31   S    
C75   N23   A    
N3    N31   A    
C18   H6    S    
C90   H65   S    
C13   C26   S    
N16   N24   A    
C17   H5    S    
N9    Ni2   S    
C76   H52   S    
C5    C77   A    
C19   H7    S    
C19   C23   S    
N28   Ni7   S    
C7    C79   A    
N31   Ni4   S    
C54   C58   D    
C92   H72   S    
N7    N27   A    
C92   H70   S    
N8    N28   A    
C89   H62   S    
C6    C50   S    
C95   H81   S    
C16   C76   A    
C3    N3    A    
C45   N5    A    
C67   H43   S    
C24   C28   S    
C48   H36   S    
N14   Ni5   S    
C65   H41   S    
N3    Ni3   S    
C4    C88   A    
C20   C27   S    
C69   H45   S    
C93   H75   S    
C21   C30   S    
C30   H10   S    
C93   H74   S    
C64   N12   A    
C29   H9    S    
C15   C75   A    
C23   C32   S    
C18   C22   S    
C68   N16   A    
C81   N29   A    
C38   H14   S    
C23   H59   S    
C37   H13   S    
C83   N31   A    
C43   C51   D    
C15   C28   S    
C84   C88   A    
C73   H49   S    
C91   H69   S    
C54   H26   S    
C71   N19   A    
C81   H53   S    
C47   N7    A    
C96   H83   S    
N11   N19   A    
C2    C86   A    
C9    C57   S    
N12   N20   A    
C14   C25   S    
C48   N8    A    
O1    C89   S    
C12   C72   A    
N10   Ni1   S    
N17   Ni5   S    
C57   H29   S    
C24   C31   S    
N30   Ni1   S    
C59   H31   S    
C60   H32   S    
C7    C51   S    
C90   H64   S    
C12   C60   S    
C67   N15   A    
C61   H37   S    
C56   C60   D    
O4    C92   S    
C2    H2    S    
C93   H73   S    
C22   C26   S    
C76   N24   A    
C65   N13   A    
C8    C80   A    
C52   H24   S    
C46   H34   S    
C83   H55   S    
N7    Ni7   S    
C36   O4    S    
C66   H42   S    
C92   H71   S    
C73   N21   A    
C91   H68   S    
C63   H39   S    
C7    C47   A    
C4    H4    S    
C17   C21   S    
