data_mof_unit_61875.cif
_audit_creation_date              2012-12-10T18:06:52-0500
_audit_creation_method            fapswitch 2.2
_symmetry_space_group_name_H-M    P1
_symmetry_Int_Tables_number       1
_space_group_crystal_system       triclinic
_cell_length_a                    28.922131
_cell_length_b                    18.375424
_cell_length_c                    21.81582
_cell_angle_alpha                 90.241458
_cell_angle_beta                  140.605146
_cell_angle_gamma                 89.793166
_cell_volume                      7358.29442538

loop_
_atom_site_label
_atom_site_type_symbol
_atom_type_description
_atom_site_fract_x
_atom_site_fract_y
_atom_site_fract_z
_atom_type_partial_charge
C1    C     C_R   0.860247 0.500019 0.862688 0.851157
C2    C     C_R   0.139753 0.499981 0.137312 0.851165
C3    C     C_R   0.360247 0.000019 0.862688 0.851154
C4    C     C_R   0.639753 0.999981 0.137312 0.851169
C5    C     C_R   0.051248 0.459465 0.834518 -0.116179
C6    C     C_R   0.948754 0.540538 0.165485 -0.116183
C7    C     C_R   0.551251 0.959468 0.834521 -0.116172
C8    C     C_R   0.448753 0.040537 0.165484 -0.116182
C9    C     C_R   0.052734 0.460432 0.772044 0.303238
C10   C     C_R   0.947268 0.539570 0.227958 0.303241
C11   C     C_R   0.552737 0.960435 0.772046 0.303229
C12   C     C_R   0.447267 0.039569 0.227957 0.303240
C13   C     C_R   0.003997 0.505328 0.689884 -0.173536
C14   C     C_R   0.996003 0.494672 0.310116 -0.173535
C15   C     C_R   0.503997 0.005328 0.689884 -0.173533
C16   C     C_R   0.496003 0.994672 0.310116 -0.173535
C17   C     C_1   0.782658 0.500017 0.785677 -0.139559
C18   C     C_1   0.217342 0.499983 0.214323 -0.139553
C19   C     C_1   0.282658 0.000017 0.785677 -0.139561
C20   C     C_1   0.717342 0.999983 0.214323 -0.139551
C21   C     C_1   0.717317 0.500027 0.719793 -0.148759
C22   C     C_1   0.282683 0.499972 0.280207 -0.148757
C23   C     C_1   0.217317 0.000027 0.719793 -0.148759
C24   C     C_1   0.782683 0.999973 0.280207 -0.148757
C25   C     C_R   0.999969 0.639938 0.499921 0.836936
C26   C     C_R   0.000031 0.360061 0.500079 0.836935
C27   C     C_R   0.499969 0.139938 0.499921 0.836936
C28   C     C_R   0.500031 0.860062 0.500079 0.836934
C29   C     C_R   0.001240 0.501359 0.620175 0.849850
C30   C     C_R   0.998759 0.498641 0.379825 0.849851
C31   C     C_R   0.501240 0.001359 0.620175 0.849849
C32   C     C_R   0.498759 0.998641 0.379825 0.849850
C33   C     C_R   0.500053 0.639670 0.500152 0.829114
C34   C     C_R   0.499947 0.360330 0.499848 0.829114
C35   C     C_R   0.000053 0.139670 0.500152 0.829113
C36   C     C_R   0.999947 0.860330 0.499848 0.829114
C37   C     C_R   0.639700 0.500022 0.640497 0.829336
C38   C     C_R   0.360300 0.499978 0.359503 0.829337
C39   C     C_R   0.139700 0.000022 0.640497 0.829336
C40   C     C_R   0.860300 0.999978 0.359503 0.829337
C41   C     C_1   0.999899 0.717478 0.499712 -0.142374
C42   C     C_1   0.000101 0.282521 0.500288 -0.142375
C43   C     C_1   0.499899 0.217478 0.499712 -0.142374
C44   C     C_1   0.500101 0.782522 0.500288 -0.142376
C45   C     C_R   0.998491 0.499603 0.879463 0.839744
C46   C     C_R   0.001509 0.500397 0.120537 0.839737
C47   C     C_R   0.498492 0.999603 0.879464 0.839756
C48   C     C_R   0.501509 0.000397 0.120537 0.839738
C49   C     C_1   0.499895 0.282775 0.499642 -0.145075
C50   C     C_1   0.500105 0.717225 0.500358 -0.145076
C51   C     C_1   0.999895 0.782775 0.499642 -0.145074
C52   C     C_1   0.000105 0.217225 0.500358 -0.145076
C53   C     C_R   0.878001 0.568039 0.682619 -0.025193
C54   C     C_R   0.121996 0.431956 0.317379 -0.025190
C55   C     C_R   0.377999 0.068034 0.682617 -0.025195
C56   C     C_R   0.621998 0.931959 0.317380 -0.025191
C57   C     C_R   0.837031 0.620011 0.608686 -0.152708
C58   C     C_R   0.162964 0.379983 0.391309 -0.152711
C59   C     C_R   0.337028 0.120005 0.608683 -0.152705
C60   C     C_R   0.662967 0.879986 0.391312 -0.152709
C61   C     C_R   0.855639 0.639545 0.567965 0.051699
C62   C     C_R   0.144356 0.360450 0.432030 0.051699
C63   C     C_R   0.355635 0.139540 0.567962 0.051699
C64   C     C_R   0.644359 0.860452 0.432033 0.051699
C65   C     C_R   0.913550 0.604183 0.598623 -0.235702
C66   C     C_R   0.086447 0.395815 0.401374 -0.235703
C67   C     C_R   0.413547 0.104180 0.598621 -0.235701
C68   C     C_R   0.586449 0.895816 0.401375 -0.235702
C69   C     C_R   0.953849 0.549728 0.670388 0.022790
C70   C     C_R   0.046149 0.450271 0.329611 0.022789
C71   C     C_R   0.453848 0.049726 0.670387 0.022790
C72   C     C_R   0.546150 0.950271 0.329612 0.022789
C73   C     C_R   0.942551 0.538382 0.722019 0.082978
C74   C     C_R   0.057447 0.461616 0.277980 0.082982
C75   C     C_R   0.442551 0.038380 0.722019 0.082973
C76   C     C_R   0.557448 0.961617 0.277980 0.082981
C77   C     C_R   0.995732 0.497640 0.809495 -0.151158
C78   C     C_R   0.004269 0.502360 0.190506 -0.151162
C79   C     C_R   0.495733 0.997640 0.809496 -0.151152
C80   C     C_R   0.504268 0.002360 0.190505 -0.151160
Cu1   Cu    Cu3+1 0.000000 0.427490 0.000000 1.063194
Cu2   Cu    Cu3+1 0.000000 0.572510 0.000000 1.063191
Cu3   Cu    Cu3+1 0.500000 0.927490 0.000000 1.063200
Cu4   Cu    Cu3+1 0.500000 0.072510 0.000000 1.063193
Cu5   Cu    Cu3+1 0.072520 0.500000 0.572540 1.040162
Cu6   Cu    Cu3+1 0.927480 0.500000 0.427460 1.040161
Cu7   Cu    Cu3+1 0.572520 0.000000 0.572540 1.040163
Cu8   Cu    Cu3+1 0.427480 0.000000 0.427460 1.040160
Cu9   Cu    Cu3+1 0.500000 0.500000 0.438200 1.017656
Cu10  Cu    Cu3+1 0.500000 0.500000 0.561800 1.017655
Cu11  Cu    Cu3+1 0.000000 0.000000 0.438200 1.017656
Cu12  Cu    Cu3+1 0.000000 0.000000 0.561800 1.017657
H1    H     H_    0.788264 0.642523 0.579459 0.193922
H2    H     H_    0.211731 0.357468 0.420535 0.193920
H3    H     H_    0.288259 0.142515 0.579455 0.193921
H4    H     H_    0.711734 0.857473 0.420538 0.193922
H5    H     H_    0.926434 0.619178 0.565122 0.127512
H6    H     H_    0.073563 0.380820 0.434875 0.127510
H7    H     H_    0.426431 0.119176 0.565119 0.127513
H8    H     H_    0.573564 0.880821 0.434876 0.127511
O1    O     O_R   0.894200 0.438770 0.894190 -0.556835
O2    O     O_R   0.105800 0.561230 0.105810 -0.556838
O3    O     O_R   0.105800 0.438770 0.105810 -0.587972
O4    O     O_R   0.894200 0.561230 0.894190 -0.587976
O5    O     O_R   0.394200 0.938770 0.894190 -0.556836
O6    O     O_R   0.605800 0.061230 0.105810 -0.556841
O7    O     O_R   0.605800 0.938770 0.105810 -0.587964
O8    O     O_R   0.394200 0.061230 0.894190 -0.587974
O9    O     O_R   0.999990 0.438770 0.909810 -0.504635
O10   O     O_R   0.000010 0.561230 0.090190 -0.504642
O11   O     O_R   0.000010 0.438770 0.090190 -0.617174
O12   O     O_R   0.999990 0.561230 0.909810 -0.617175
O13   O     O_R   0.499990 0.938770 0.909810 -0.504624
O14   O     O_R   0.500010 0.061230 0.090190 -0.504640
O15   O     O_R   0.500010 0.938770 0.090190 -0.617175
O16   O     O_R   0.499990 0.061230 0.909810 -0.617178
O17   O     O_R   0.061240 0.605830 0.561270 -0.581323
O18   O     O_R   0.938760 0.394170 0.438730 -0.581322
O19   O     O_R   0.938760 0.605830 0.438730 -0.573129
O20   O     O_R   0.061240 0.394170 0.561270 -0.573129
O21   O     O_R   0.561240 0.105830 0.561270 -0.581322
O22   O     O_R   0.438760 0.894170 0.438730 -0.581322
O23   O     O_R   0.438760 0.105830 0.438730 -0.573130
O24   O     O_R   0.561240 0.894170 0.561270 -0.573130
O25   O     O_R   0.061260 0.500000 0.651450 -0.538816
O26   O     O_R   0.938740 0.500000 0.348550 -0.538818
O27   O     O_R   0.561260 0.000000 0.651450 -0.538814
O28   O     O_R   0.438740 0.000000 0.348550 -0.538817
O29   O     O_R   0.938780 0.500000 0.528960 -0.590778
O30   O     O_R   0.061220 0.500000 0.471040 -0.590778
O31   O     O_R   0.438780 0.000000 0.528960 -0.590780
O32   O     O_R   0.561220 0.000000 0.471040 -0.590779
O33   O     O_R   0.500010 0.605810 0.447830 -0.588816
O34   O     O_R   0.499990 0.394190 0.552170 -0.588816
O35   O     O_R   0.499990 0.605810 0.552170 -0.563048
O36   O     O_R   0.500010 0.394190 0.447830 -0.563047
O37   O     O_R   0.000010 0.105810 0.447830 -0.588816
O38   O     O_R   0.999990 0.894190 0.552170 -0.588816
O39   O     O_R   0.999990 0.105810 0.552170 -0.563047
O40   O     O_R   0.000010 0.894190 0.447830 -0.563047
O41   O     O_R   0.605800 0.500000 0.553630 -0.573037
O42   O     O_R   0.394200 0.500000 0.446370 -0.573036
O43   O     O_R   0.105800 0.000000 0.553630 -0.573038
O44   O     O_R   0.894200 0.000000 0.446370 -0.573036
O45   O     O_R   0.605820 0.500000 0.658030 -0.579943
O46   O     O_R   0.394180 0.500000 0.341970 -0.579944
O47   O     O_R   0.105820 0.000000 0.658030 -0.579943
O48   O     O_R   0.894180 0.000000 0.341970 -0.579944
C81   C     C_2   0.110192 0.419779 0.927231 0.456741
H9    H     H_    0.166456 0.435814 0.977870 0.082411
O49   O     O_2   0.096860 0.366399 0.944696 -0.474695
C82   C     C_2   0.889813 0.580227 0.072774 0.456760
H10   H     H_    0.833549 0.564192 0.022130 0.082398
O50   O     O_2   0.903149 0.633610 0.055317 -0.474689
C83   C     C_2   0.610199 0.919787 0.927238 0.456710
H11   H     H_    0.666463 0.935818 0.977867 0.082434
O51   O     O_2   0.596871 0.866414 0.944717 -0.474705
C84   C     C_2   0.389811 0.080224 0.072772 0.456753
H12   H     H_    0.333546 0.064189 0.022129 0.082403
O52   O     O_2   0.403145 0.133606 0.055312 -0.474690
C85   C     C_2   0.842776 0.536705 0.701032 0.353687
H13   H     H_    0.810274 0.571164 0.697600 0.068327
O53   O     O_2   0.844587 0.471199 0.711903 -0.524565
C86   C     C_2   0.157222 0.463288 0.298966 0.353689
H14   H     H_    0.189723 0.428828 0.302397 0.068327
O54   O     O_2   0.155415 0.528795 0.288099 -0.524568
C87   C     C_2   0.342776 0.036699 0.701032 0.353685
H15   H     H_    0.310272 0.071156 0.697597 0.068326
O55   O     O_2   0.344588 0.971193 0.711905 -0.524563
C88   C     C_2   0.657223 0.963291 0.298967 0.353687
H16   H     H_    0.689724 0.928832 0.302399 0.068327
O56   O     O_2   0.655414 0.028798 0.288098 -0.524567
C89   C     C_2   0.811670 0.692169 0.487547 0.410501
H17   H     H_    0.830762 0.710958 0.462807 0.054187
O57   O     O_2   0.752984 0.713856 0.446390 -0.521948
C90   C     C_2   0.188323 0.307824 0.512447 0.410502
H18   H     H_    0.169230 0.289037 0.537187 0.054187
O58   O     O_2   0.247008 0.286133 0.553602 -0.521949
C91   C     C_2   0.311664 0.192163 0.487542 0.410502
H19   H     H_    0.330756 0.210952 0.462801 0.054186
O59   O     O_2   0.252977 0.213848 0.446384 -0.521946
C92   C     C_2   0.688327 0.807828 0.512450 0.410500
H20   H     H_    0.669234 0.789040 0.537190 0.054187
O60   O     O_2   0.747013 0.786139 0.553606 -0.521948
Cl1   Cl    Cl    0.114064 0.401611 0.795693 -0.558186
Cl2   Cl    Cl    0.885940 0.598393 0.204311 -0.558183
Cl3   Cl    Cl    0.614068 0.901615 0.795697 -0.558192
Cl4   Cl    Cl    0.385938 0.098391 0.204309 -0.558184

loop_
_geom_bond_atom_site_label_1
_geom_bond_atom_site_label_2
_ccdc_geom_bond_type
C58   C62   A    
Cu7   Cu8   S    
C30   O26   A    
C56   C76   A    
C55   C59   A    
C83   O51   D    
C14   C70   A    
Cu3   O13   S    
Cu5   O25   S    
C16   C72   A    
C31   O27   A    
C72   C76   A    
Cu12  O38   S    
Cu7   O27   S    
Cu1   Cu2   S    
C27   O21   A    
C45   O12   A    
C5    C81   S    
C87   O55   D    
Cu1   O1    S    
Cu5   Cu6   S    
C3    O5    A    
C7    C11   A    
C37   O41   A    
C35   C52   S    
C11   Cl3   S    
Cu2   O10   S    
C13   C29   S    
C86   H14   S    
C26   O20   A    
Cu10  O45   S    
C9    Cl1   S    
C81   O49   D    
C54   C58   A    
Cu7   O24   S    
Cu10  O34   S    
C45   O9    A    
C6    C78   A    
C2    C18   S    
C88   H16   S    
C34   O34   A    
C22   C38   S    
C63   C91   S    
C47   O13   A    
C9    C13   A    
C92   H20   S    
C38   O46   A    
C31   O31   A    
C35   O39   A    
C54   C74   A    
C48   O14   A    
C11   C15   A    
Cu9   O41   S    
C29   O29   A    
C12   C16   A    
C70   C74   A    
Cu4   O6    S    
C3    C19   S    
Cu6   O19   S    
C55   C87   S    
C8    C12   A    
C67   H7    S    
C6    C82   S    
C90   O58   D    
C8    C84   S    
Cu4   O16   S    
Cu9   O36   S    
Cu1   O11   S    
C46   O11   A    
Cu12  O47   S    
C84   O52   D    
C38   O42   A    
C47   O16   A    
C59   H3    S    
C14   C30   S    
Cu8   O23   S    
C25   O19   A    
Cu11  O48   S    
C85   O53   D    
C85   H13   S    
Cu11  O43   S    
C89   O57   D    
Cu9   O46   S    
C4    O7    A    
C63   C67   A    
Cu9   O33   S    
C40   O48   A    
Cu3   O15   S    
C62   C66   A    
C61   C89   S    
Cu8   O22   S    
C10   C14   A    
C25   C41   S    
Cu11  Cu12  S    
Cu7   O21   S    
C27   O23   A    
C19   C23   T    
C43   C49   T    
C33   C50   S    
C89   H17   S    
C48   C80   S    
C4    O6    A    
C15   C31   S    
C28   C44   S    
C17   C21   T    
C56   C60   A    
Cu2   O4    S    
Cu2   O12   S    
Cu7   O32   S    
Cu5   O20   S    
C46   C78   S    
C68   H8    S    
C5    C9    A    
C33   O33   A    
Cu5   O30   S    
C33   O35   A    
Cu3   Cu4   S    
C34   O36   A    
C68   C72   A    
C62   C90   S    
Cu2   O2    S    
C7    C83   S    
Cu6   O18   S    
C69   C73   A    
C36   O40   A    
C1    O4    A    
Cu10  O42   S    
C36   C51   S    
C48   O15   A    
C60   H4    S    
C90   H18   S    
C39   O43   A    
C46   O10   A    
C84   H12   S    
Cu5   O17   S    
C75   C79   A    
C5    C77   A    
C64   C68   A    
C1    O1    A    
C87   H15   S    
C26   C42   S    
C7    C79   A    
C29   O25   A    
Cu1   O3    S    
C28   O22   A    
C44   C50   T    
C65   C69   A    
C27   C43   S    
Cu11  O37   S    
C24   C40   S    
C34   C49   S    
C53   C57   A    
C32   O32   A    
C56   C88   S    
C18   C22   T    
C1    C17   S    
Cu6   O26   S    
C53   C73   A    
C76   C80   A    
C82   O50   D    
C25   O17   A    
C6    C10   A    
C64   C92   S    
C28   O24   A    
Cu6   O29   S    
C57   C61   A    
C41   C51   T    
C3    O8    A    
C16   C32   S    
C15   C71   A    
Cu1   O9    S    
C59   C63   A    
C26   O18   A    
C57   H1    S    
C60   C64   A    
C37   O45   A    
Cu4   O14   S    
C66   H6    S    
C40   O44   A    
C58   H2    S    
C55   C75   A    
Cu8   O28   S    
C30   O30   A    
C47   C79   S    
C35   O37   A    
C71   C75   A    
Cu10  O35   S    
C53   C85   S    
C32   O28   A    
C66   C70   A    
C13   C69   A    
C2    O3    A    
C23   C39   S    
C86   O54   D    
C10   Cl2   S    
Cu3   O7    S    
C67   C71   A    
Cu12  O44   S    
C92   O60   D    
C65   H5    S    
Cu11  O40   S    
C4    C20   S    
C61   C65   A    
Cu4   O8    S    
C21   C37   S    
C82   H10   S    
C73   C77   A    
C74   C78   A    
C39   O47   A    
C83   H11   S    
C8    C80   A    
C91   H19   S    
C2    O2    A    
C45   C77   S    
Cu3   O5    S    
C88   O56   D    
Cu8   O31   S    
C54   C86   S    
Cu9   Cu10  S    
C81   H9    S    
Cu12  O39   S    
C36   O38   A    
C20   C24   T    
C42   C52   T    
C91   O59   D    
C12   Cl4   S    
