data_mof_unit_15365.cif
_audit_creation_date              2013-03-05T16:11:55-0500
_audit_creation_method            fapswitch 2.2
_symmetry_space_group_name_H-M    P1
_symmetry_Int_Tables_number       1
_space_group_crystal_system       triclinic
_cell_length_a                    15.730438
_cell_length_b                    10.652061
_cell_length_c                    9.887551
_cell_angle_alpha                 90.723426
_cell_angle_beta                  91.237732
_cell_angle_gamma                 90.734533
_cell_volume                      1656.11307812

loop_
_atom_site_label
_atom_site_type_symbol
_atom_site_description
_atom_site_fract_x
_atom_site_fract_y
_atom_site_fract_z
_atom_type_partial_charge
O1    O     O_R   0.499990 0.316750 0.614620 -0.610556
O2    O     O_R   0.500010 0.683250 0.385380 -0.615826
O3    O     O_R   0.500000 0.316780 0.385290 -0.556590
O4    O     O_R   0.500000 0.683220 0.614710 -0.555705
C1    C     C_R   0.499242 0.260440 0.499122 1.016560
C2    C     C_R   0.500549 0.739541 0.500888 1.016439
O5    O     O_R   0.376780 0.499970 0.614640 -0.620961
O6    O     O_R   0.623220 0.500030 0.385360 -0.604615
O7    O     O_R   0.376780 0.500000 0.385310 -0.592881
O8    O     O_R   0.623220 0.500000 0.614690 -0.595344
C3    C     C_R   0.338099 0.499988 0.498574 0.961704
C4    C     C_R   0.661946 0.499957 0.501402 0.957325
Zn1   Zn    Zn3+2 0.500000 0.499980 0.653120 1.085175
Zn2   Zn    Zn3+2 0.500000 0.500020 0.346880 1.091977
C5    C     C_3   0.973470 0.408611 0.587098 -0.295560
C6    C     C_3   0.026442 0.590091 0.413338 -0.420412
C7    C     C_3   0.024709 0.387024 0.457787 0.227258
C8    C     C_3   0.974650 0.610567 0.543060 0.211687
H1    H     H_    0.951134 0.335707 0.657797 0.212288
H2    H     H_    0.049180 0.663850 0.344012 0.222249
C9    C     C_1   0.249441 0.499072 0.495143 -0.018564
C10   C     C_1   0.750693 0.499845 0.504643 0.001470
C11   C     C_3   0.032540 0.522482 0.623077 0.439386
C12   C     C_3   0.967793 0.475801 0.377083 0.448321
C13   C     C_3   0.083672 0.498444 0.494881 -0.145287
C14   C     C_3   0.916551 0.498863 0.505135 -0.083376
C15   C     C_1   0.174309 0.498371 0.493433 0.118386
C16   C     C_1   0.825868 0.499542 0.506148 0.169072
C17   C     C_R   0.560579 0.065339 0.424009 0.212373
C18   C     C_R   0.439063 0.934558 0.576077 0.231488
C19   C     C_R   0.562693 0.935733 0.427291 0.209075
C20   C     C_R   0.436947 0.064208 0.572801 0.211031
C21   C     C_R   0.501481 0.872063 0.502779 -0.333996
C22   C     C_R   0.498175 0.127881 0.497270 -0.334401
C23   C     C_R   0.566364 0.551115 0.075734 -0.124400
C24   C     C_R   0.433562 0.449079 0.924255 -0.148627
H3    H     H_    0.618950 0.593124 0.133175 0.215404
H4    H     H_    0.380904 0.407263 0.866810 0.209910
C25   C     C_R   0.566663 0.552025 0.932360 0.356956
C26   C     C_R   0.433270 0.448145 0.067627 0.357646
N1    N     N_R   0.499980 0.499970 0.857200 -0.161796
N2    N     N_R   0.500020 0.500030 0.142800 -0.164827
N3    N     N_R   0.050666 0.263790 0.409508 0.230978
O9    O     O_R   0.993343 0.177986 0.380753 -0.272997
O10   O     O_R   0.130636 0.238779 0.394593 -0.298789
N4    N     N_R   0.943847 0.730874 0.591871 0.221805
O11   O     O_R   0.961659 0.833360 0.527668 -0.285170
O12   O     O_R   0.897308 0.735900 0.698876 -0.313272
O13   O     O_3   0.927177 0.447489 0.251543 -0.561834
C27   C     C_3   0.987380 0.450284 0.147975 0.133508
H5    H     H_    0.042744 0.389662 0.171760 0.180278
H6    H     H_    0.010141 0.548131 0.131598 0.154144
C28   C     C_3   0.945537 0.401599 0.017127 -0.616177
H7    H     H_    0.892941 0.464257 0.985823 0.279160
H8    H     H_    0.993065 0.398495 0.935947 0.237505
H9    H     H_    0.919708 0.305288 0.031603 0.273665
O14   O     O_3   0.068502 0.539993 0.754155 -0.610754
C29   C     C_3   0.109157 0.658678 0.766813 0.113715
H10   H     H_    0.062693 0.728934 0.801969 0.209747
H11   H     H_    0.137066 0.692088 0.670838 0.171582
C30   C     C_3   0.180868 0.651145 0.871990 -0.647589
H12   H     H_    0.228915 0.582598 0.838235 0.264031
H13   H     H_    0.212115 0.744666 0.885533 0.252893
H14   H     H_    0.155341 0.620946 0.970466 0.250153
N5    N     N_R   0.625563 0.133769 0.355597 0.250478
O15   O     O_R   0.685538 0.191891 0.425100 -0.369777
O16   O     O_R   0.619647 0.149054 0.225439 -0.277008
N6    N     N_R   0.374172 0.866051 0.644673 0.241782
O17   O     O_R   0.313869 0.808465 0.575372 -0.417327
O18   O     O_R   0.380579 0.849919 0.774660 -0.313899
N7    N     N_R   0.629491 0.869425 0.361107 0.240580
O19   O     O_R   0.642881 0.885704 0.233120 -0.278042
O20   O     O_R   0.678051 0.793998 0.429423 -0.356989
N8    N     N_R   0.370228 0.130545 0.639173 0.237340
O21   O     O_R   0.356383 0.113292 0.766871 -0.289234
O22   O     O_R   0.322012 0.206699 0.571216 -0.353032
N9    N     N_R   0.637372 0.609344 0.867741 0.231196
O23   O     O_R   0.714290 0.578785 0.904017 -0.355891
O24   O     O_R   0.626158 0.710731 0.798209 -0.296429
N10   N     N_R   0.362474 0.391036 0.132225 0.231009
O25   O     O_R   0.285600 0.421743 0.095862 -0.393567
O26   O     O_R   0.373561 0.289716 0.201921 -0.297229

loop_
_geom_bond_atom_site_label_1
_geom_bond_atom_site_label_2
_geom_bond_distance
_ccdc_geom_bond_type
C23   C25   1.417881 A    
C8    C14   1.528961 S    
O7    Zn2   1.983236 S    
Zn1   N1    2.017860 S    
C25   N1    1.378781 A    
C28   H7    1.110903 S    
O5    C3    1.287281 A    
N8    O22   1.300893 A    
O1    C1    1.282964 A    
C25   N9    1.428751 S    
C23   H3    1.082071 S    
C12   C14   1.534422 S    
C20   N8    1.438242 S    
C29   H11   1.114642 S    
C4    C10   1.395711 S    
C6    C13   1.557111 S    
C11   O14   1.412109 S    
O4    Zn1   1.993189 S    
C30   H13   1.110478 S    
C23   N2    1.359933 A    
N6    O17   1.300768 A    
N5    O16   1.300730 A    
C27   H6    1.112639 S    
C19   C21   1.404032 A    
C6    H2    1.109994 S    
Zn2   N2    2.017860 S    
C29   C30   1.521239 S    
C26   N2    1.378938 A    
C9    C15   1.181543 T    
C6    C12   1.551659 S    
C10   C16   1.182359 T    
C24   N1    1.359957 A    
O2    C2    1.283023 A    
C8    N4    1.456162 S    
C28   H8    1.109169 S    
N4    O12   1.300474 A    
C7    C12   1.530526 S    
N8    O21   1.300816 A    
C8    C11   1.531370 S    
C27   C28   1.521024 S    
C24   C26   1.417871 A    
N10   O26   1.299438 A    
N7    O20   1.300944 A    
C5    C14   1.546954 S    
C29   H10   1.110638 S    
N9    O23   1.301109 A    
C17   C22   1.402660 A    
C3    C9    1.394209 S    
C20   C22   1.404452 A    
C30   H14   1.110981 S    
C5    H1    1.110184 S    
N3    O9    1.300195 A    
C7    N3    1.457426 S    
N3    O10   1.300326 A    
O6    C4    1.287405 A    
C1    C22   1.411800 S    
C26   N10   1.428767 S    
C27   H5    1.113637 S    
N9    O24   1.299434 A    
O7    C3    1.286020 A    
O3    Zn2   1.993190 S    
O8    C4    1.286577 A    
C17   N5    1.434242 S    
O4    C2    1.282146 A    
N5    O15   1.300736 A    
O1    Zn1   1.983827 S    
C28   H9    1.110679 S    
C12   O13   1.411126 S    
C5    C7    1.542449 S    
N4    O11   1.300239 A    
O6    Zn2   1.967209 S    
C18   C21   1.402772 A    
N10   O25   1.301125 A    
O3    C1    1.282402 A    
O8    Zn1   1.983234 S    
C13   C15   1.426151 S    
C14   C16   1.426845 S    
C2    C21   1.411409 S    
C7    C13   1.532809 S    
C24   H4    1.082115 S    
N7    O19   1.300770 A    
C17   C19   1.382178 A    
C18   C20   1.382642 A    
O14   C29   1.412356 S    
C5    C11   1.551504 S    
C11   C13   1.536337 S    
C30   H12   1.111155 S    
O2    Zn2   1.983826 S    
O5    Zn1   1.967212 S    
C6    C8    1.548906 S    
O13   C27   1.410076 S    
N6    O18   1.300765 A    
C18   N6    1.434500 S    
C19   N7    1.438152 S    
