data_mof_unit_22205.cif
_audit_creation_date              2012-10-26T20:38:24-0400
_audit_creation_method            fapswitch 2.2
_symmetry_space_group_name_H-M    P1
_symmetry_Int_Tables_number       1
_space_group_crystal_system       triclinic
_cell_length_a                    15.852715
_cell_length_b                    11.116967
_cell_length_c                    10.010375
_cell_angle_alpha                 111.427669
_cell_angle_beta                  99.298431
_cell_angle_gamma                 92.299494
_cell_volume                      1611.18325233

loop_
_atom_site_label
_atom_site_type_symbol
_atom_type_description
_atom_site_fract_x
_atom_site_fract_y
_atom_site_fract_z
_atom_type_partial_charge
C1    C     C_R   0.494151 0.254589 0.440561 0.550003
C2    C     C_3   0.028545 0.609502 0.487192 0.224274
C3    C     C_3   0.011611 0.395363 0.384257 0.319035
C4    C     C_3   0.988389 0.604643 0.615748 0.319008
C5    C     C_1   0.250295 0.499584 0.497316 0.020376
C6    C     C_1   0.749704 0.500420 0.502686 0.020370
C7    C     C_3   0.042175 0.494065 0.623912 0.221551
C8    C     C_3   0.957826 0.505940 0.376092 0.221556
C9    C     C_3   0.082995 0.499232 0.495665 -0.028138
C10   C     C_3   0.917007 0.500775 0.504339 -0.028142
C11   C     C_1   0.174602 0.499316 0.495547 0.070642
C12   C     C_R   0.505844 0.745410 0.559440 0.549958
C13   C     C_1   0.825398 0.500689 0.504456 0.070639
C14   C     C_2   0.486589 0.115176 0.407355 0.382272
C15   C     C_2   0.513401 0.884822 0.592653 0.382252
C16   C     C_3   0.995447 0.189643 0.519907 -0.071210
C17   C     C_3   0.004551 0.810353 0.480086 -0.071240
C18   C     C_3   0.956362 0.505396 0.145520 -0.087676
C19   C     C_3   0.043641 0.494621 0.854489 -0.087668
C20   C     C_3   0.371036 0.356362 0.778101 -0.023701
C21   C     C_3   0.628841 0.643838 0.222036 -0.023460
C22   C     C_3   0.646506 0.708635 0.932060 0.018528
C23   C     C_2   0.508381 0.069201 0.513994 0.383823
C24   C     C_3   0.353673 0.291051 0.067687 0.018657
C25   C     C_2   0.491559 0.930804 0.486034 0.383827
C26   C     C_2   0.502632 0.518114 0.082926 0.478744
C27   C     C_2   0.497325 0.481937 0.917083 0.478842
C28   C     C_R   0.340113 0.499889 0.499307 0.511600
C29   C     C_R   0.659888 0.500113 0.500693 0.511574
C30   C     C_3   0.971454 0.390503 0.512813 0.224302
Cu1   Cu    Cu3+1 0.514700 0.521810 0.644910 1.088472
Cu2   Cu    Cu3+1 0.485300 0.478190 0.355090 1.088470
F1    F     F_    0.025984 0.289722 0.266854 -0.631775
F2    F     F_    0.974018 0.710283 0.733152 -0.631804
F3    F     F_    0.451764 0.849242 0.349509 -0.554911
F4    F     F_    0.548120 0.150773 0.650548 -0.554883
F5    F     F_    0.546477 0.965719 0.732760 -0.554594
F6    F     F_    0.453566 0.034268 0.267230 -0.554601
H1    H     H_    0.057184 0.233895 0.597142 0.144311
H2    H     H_    0.986097 0.421446 0.810378 0.146158
H3    H     H_    0.024401 0.594160 0.902011 0.191952
H4    H     H_    0.083258 0.474621 0.944489 0.128295
H5    H     H_    0.343977 0.449560 0.830976 0.106628
H6    H     H_    0.336771 0.278670 0.798966 0.132800
H7    H     H_    0.355171 0.324600 0.657738 0.138028
H8    H     H_    0.663091 0.721590 0.201247 0.133099
H9    H     H_    0.655967 0.550695 0.169180 0.106549
H10   H     H_    0.644644 0.675563 0.342401 0.137929
H11   H     H_    0.675912 0.800657 0.022225 0.133258
H12   H     H_    0.006753 0.143969 0.406390 0.193658
H13   H     H_    0.645377 0.726912 0.830778 0.182687
H14   H     H_    0.688954 0.631765 0.934773 0.089915
H15   H     H_    0.354668 0.273340 0.169281 0.182552
H16   H     H_    0.324571 0.198666 0.977775 0.133927
H17   H     H_    0.311050 0.367553 0.064154 0.089300
H18   H     H_    0.969066 0.111222 0.550042 0.126262
H19   H     H_    0.993218 0.855995 0.593603 0.193689
H20   H     H_    0.942823 0.766088 0.402806 0.144326
H21   H     H_    0.030949 0.888805 0.449986 0.126286
H22   H     H_    0.975626 0.405872 0.098016 0.191952
H23   H     H_    0.013891 0.578597 0.189630 0.146157
H24   H     H_    0.916739 0.525367 0.055506 0.128270
N1    N     N_2   0.463210 0.445420 0.137360 -0.059135
N2    N     N_2   0.536790 0.554580 0.862640 -0.059007
O1    O     O_R   0.507840 0.332340 0.577400 -0.445456
O2    O     O_3   0.065276 0.720015 0.471145 -0.545742
O3    O     O_3   0.906091 0.513920 0.251594 -0.558061
O4    O     O_3   0.093910 0.486081 0.748409 -0.558078
O5    O     O_3   0.460749 0.358594 0.822251 -0.475082
O6    O     O_3   0.539130 0.641503 0.177739 -0.474992
O7    O     O_3   0.563377 0.678756 0.952452 -0.443497
O8    O     O_3   0.436836 0.321159 0.047603 -0.443211
O9    O     O_R   0.492160 0.667660 0.422600 -0.445545
O10   O     O_R   0.483020 0.295500 0.332650 -0.463730
O11   O     O_R   0.516980 0.704500 0.667350 -0.463732
O12   O     O_R   0.391490 0.518400 0.622350 -0.515169
O13   O     O_R   0.608510 0.481600 0.377650 -0.515135
O14   O     O_R   0.366660 0.481570 0.377600 -0.525767
O15   O     O_R   0.633340 0.518430 0.622400 -0.525876
O16   O     O_3   0.934725 0.279998 0.528864 -0.545741

loop_
_geom_bond_atom_site_label_1
_geom_bond_atom_site_label_2
_ccdc_geom_bond_type
C24   H17   S    
C26   C27   S    
C1    O10   A    
C16   H12   S    
C5    C11   T    
Cu2   O10   S    
C15   C25   D    
C3    F1    S    
C24   H16   S    
Cu1   O1    S    
N2    O7    S    
C15   F5    S    
C7    O4    S    
C1    O1    A    
C28   O14   A    
C20   H7    S    
C27   O5    S    
C19   H4    S    
C17   H20   S    
C21   H10   S    
C30   O16   S    
Cu2   O13   S    
C7    C30   S    
C12   O9    A    
C4    C7    S    
C20   H6    S    
C4    F2    S    
C3    C8    S    
C19   H2    S    
Cu2   O9    S    
C18   H24   S    
C24   H15   S    
C16   O16   S    
C14   C23   D    
C3    C30   S    
C2    C4    S    
C26   N1    D    
C16   H18   S    
C3    C9    S    
C14   F6    S    
C5    C28   S    
C10   C30   S    
Cu1   O11   S    
Cu1   Cu2   S    
C29   O15   A    
C12   C15   S    
C17   O2    S    
C19   O4    S    
C9    C11   S    
C17   H21   S    
C22   H11   S    
C18   H22   S    
C25   F3    S    
C26   O6    S    
C20   O5    S    
C4    C10   S    
C28   O12   A    
C22   O7    S    
C20   H5    S    
C24   O8    S    
C22   H14   S    
C21   H8    S    
C7    C9    S    
Cu1   N2    S    
C2    C8    S    
Cu2   N1    S    
C2    O2    S    
C10   C13   S    
C18   H23   S    
Cu1   O15   S    
C21   O6    S    
C18   O3    S    
C6    C13   T    
Cu1   O12   S    
C23   C25   S    
C27   N2    D    
C16   H1    S    
Cu2   O14   S    
C6    C29   S    
C29   O13   A    
N1    O8    S    
C8    O3    S    
C8    C10   S    
C23   F4    S    
C12   O11   A    
C1    C14   S    
C2    C9    S    
C19   H3    S    
C17   H19   S    
C22   H13   S    
C21   H9    S    
