data_mof_unit_25216.cif
_audit_creation_date              2013-03-05T16:22:14-0500
_audit_creation_method            fapswitch 2.2
_symmetry_space_group_name_H-M    P1
_symmetry_Int_Tables_number       1
_space_group_crystal_system       triclinic
_cell_length_a                    10.494547
_cell_length_b                    10.45384
_cell_length_c                    9.85548
_cell_angle_alpha                 90.134203
_cell_angle_beta                  88.75625
_cell_angle_gamma                 90.309576
_cell_volume                      1080.95491405

loop_
_atom_site_label
_atom_site_type_symbol
_atom_site_description
_atom_site_fract_x
_atom_site_fract_y
_atom_site_fract_z
_atom_type_partial_charge
O1    O     O_R   0.500010 0.313960 0.616610 -0.642005
O2    O     O_R   0.499990 0.686040 0.383390 -0.642006
O3    O     O_R   0.500060 0.313950 0.383350 -0.558753
O4    O     O_R   0.499940 0.686050 0.616650 -0.558752
C1    C     C_R   0.500085 0.257898 0.500084 0.855024
C2    C     C_R   0.499915 0.742102 0.499916 0.855024
O5    O     O_R   0.313930 0.499970 0.616610 -0.603642
O6    O     O_R   0.686070 0.500030 0.383390 -0.603643
O7    O     O_R   0.313980 0.499960 0.383350 -0.616470
O8    O     O_R   0.686020 0.500040 0.616650 -0.616469
C3    C     C_R   0.258276 0.498617 0.501269 0.868572
C4    C     C_R   0.741724 0.501383 0.498731 0.868572
Zn1   Zn    Zn3+2 0.499970 0.500010 0.655740 0.988972
Zn2   Zn    Zn3+2 0.500030 0.499990 0.344260 0.988970
C5    C     C_3   0.036995 0.502993 0.632721 -0.260610
C6    C     C_3   0.963005 0.497007 0.367278 -0.260612
C7    C     C_3   0.954726 0.398599 0.565795 0.225830
C8    C     C_3   0.045273 0.601400 0.434205 0.225829
H1    H     H_    0.069150 0.506332 0.738937 0.192210
H2    H     H_    0.930849 0.493667 0.261063 0.192210
C9    C     C_3   0.876293 0.501671 0.496464 -0.174144
C10   C     C_3   0.123707 0.498329 0.503536 -0.174144
C11   C     C_3   0.958726 0.605932 0.560368 0.187309
C12   C     C_3   0.041274 0.394068 0.439632 0.187308
C13   C     C_3   0.508473 0.041013 0.628914 -0.056240
C14   C     C_3   0.491527 0.958987 0.371085 -0.056240
C15   C     C_3   0.608935 0.958332 0.553740 -0.167488
C16   C     C_3   0.391065 0.041668 0.446259 -0.167489
H3    H     H_    0.697685 0.919835 0.596947 0.177516
H4    H     H_    0.302315 0.080165 0.403053 0.177516
H5    H     H_    0.515470 0.078386 0.734105 0.195278
H6    H     H_    0.484530 0.921613 0.265895 0.195278
C17   C     C_3   0.499907 0.877343 0.499194 -0.012258
C18   C     C_3   0.500093 0.122657 0.500806 -0.012258
C19   C     C_3   0.399426 0.957302 0.574105 -0.181561
C20   C     C_3   0.600574 0.042697 0.425895 -0.181563
H7    H     H_    0.317832 0.917537 0.634297 0.160204
H8    H     H_    0.682168 0.082463 0.365703 0.160204
C21   C     C_3   0.484765 0.387003 0.046688 0.333274
C22   C     C_3   0.515235 0.612997 0.953312 0.333275
C23   C     C_3   0.591950 0.428679 0.948003 -0.251710
C24   C     C_3   0.408050 0.571321 0.051996 -0.251711
H9    H     H_    0.667330 0.368369 0.900190 0.185919
H10   H     H_    0.332669 0.631631 0.099810 0.185920
N1    N     N_3   0.499910 0.500030 0.863290 -0.156517
N2    N     N_3   0.500090 0.499970 0.136710 -0.156518
C25   C     C_3   0.394699 0.456778 0.955190 0.180537
C26   C     C_3   0.605301 0.543222 0.044810 0.180536
N3    N     N_2   0.898562 0.289848 0.636120 -0.292518
H11   H     H_    0.823823 0.248004 0.585989 0.212949
C27   C     C_3   0.988013 0.198341 0.687860 -0.769104
H12   H     H_    0.938132 0.134746 0.761979 0.242464
H13   H     H_    0.067162 0.247569 0.739928 0.247760
H14   H     H_    0.027820 0.138787 0.603878 0.251305
N4    N     N_2   0.101437 0.710152 0.363880 -0.292518
H15   H     H_    0.176177 0.751995 0.414011 0.212949
C28   C     C_3   0.011987 0.801659 0.312140 -0.769105
H16   H     H_    0.061868 0.865254 0.238022 0.242464
H17   H     H_    0.972180 0.861213 0.396122 0.251306
H18   H     H_    0.932838 0.752431 0.260072 0.247760
N5    N     N_2   0.907863 0.721145 0.622105 -0.315107
H19   H     H_    0.824470 0.705688 0.676512 0.268531
C29   C     C_3   0.998734 0.797403 0.695587 -0.774714
H20   H     H_    0.953243 0.888220 0.728567 0.247929
H21   H     H_    0.082799 0.821022 0.629998 0.238878
H22   H     H_    0.030196 0.745162 0.786921 0.246407
N6    N     N_2   0.092136 0.278854 0.377894 -0.315107
H23   H     H_    0.175530 0.294312 0.323487 0.268531
C30   C     C_3   0.001266 0.202597 0.304413 -0.774712
H24   H     H_    0.046757 0.111780 0.271433 0.247930
H25   H     H_    0.969804 0.254839 0.213078 0.246408
H26   H     H_    0.917201 0.178979 0.370002 0.238878
N7    N     N_R   0.468217 0.258082 0.100198 0.225799
O9    O     O_R   0.556379 0.172960 0.079065 -0.402980
O10   O     O_R   0.361715 0.224624 0.160036 -0.434082
N8    N     N_R   0.531782 0.741918 0.899802 0.225800
O11   O     O_R   0.443619 0.827039 0.920933 -0.402980
O12   O     O_R   0.638283 0.775377 0.839963 -0.434084
N9    N     N_2   0.277736 0.405852 0.901101 -0.265421
H27   H     H_    0.288422 0.316360 0.858345 0.243547
C31   C     C_3   0.166367 0.418345 0.989236 -0.789402
H28   H     H_    0.083495 0.370069 0.943088 0.228686
H29   H     H_    0.142619 0.520930 0.003527 0.241961
H30   H     H_    0.182922 0.374228 0.089384 0.277868
N10   N     N_2   0.722264 0.594147 0.098900 -0.265421
H31   H     H_    0.711577 0.683638 0.141658 0.243546
C32   C     C_3   0.833633 0.581657 0.010763 -0.789402
H32   H     H_    0.916506 0.629926 0.056916 0.228685
H33   H     H_    0.817079 0.625784 0.910620 0.277869
H34   H     H_    0.857378 0.479073 0.996463 0.241962

loop_
_geom_bond_atom_site_label_1
_geom_bond_atom_site_label_2
_geom_bond_distance
_ccdc_geom_bond_type
C13   H5    1.110805 S    
C32   H32   1.108727 S    
C29   H21   1.109398 S    
C14   H6    1.110805 S    
C6    C9    1.549638 S    
C15   H3    1.110331 S    
C23   H9    1.110480 S    
N7    O9    1.300351 A    
C25   N9    1.447165 S    
N4    H15   1.030902 S    
C31   H28   1.108727 S    
Zn2   N2    2.045490 S    
N10   H31   1.030826 S    
C15   C17   1.526133 S    
C5    H1    1.107223 S    
O1    C1    1.288075 A    
C19   H7    1.110504 S    
N8    O12   1.299030 A    
C28   H17   1.110207 S    
C30   H25   1.111164 S    
C24   N2    1.494030 S    
O4    Zn1   1.983510 S    
N5    C29   1.445149 S    
C12   N6    1.447475 S    
C5    C10   1.549638 S    
C16   C19   1.543997 S    
N3    C27   1.445376 S    
N5    H19   1.028626 S    
C6    H2    1.107223 S    
C13   C18   1.530013 S    
C5    C11   1.542653 S    
C29   H22   1.111165 S    
C16   C18   1.526134 S    
C6    C12   1.542653 S    
N7    O10   1.299030 A    
O2    C2    1.288075 A    
C24   H10   1.110480 S    
C31   H29   1.110250 S    
N1    C25   1.482232 S    
C22   N1    1.485555 S    
N2    C26   1.482232 S    
C7    C12   1.524601 S    
N10   C32   1.447282 S    
C27   H12   1.109740 S    
N8    O11   1.300350 A    
C21   C23   1.533047 S    
C7    N3    1.448783 S    
N9    C31   1.447281 S    
C28   H18   1.109396 S    
C4    C9    1.411918 S    
C7    C9    1.530641 S    
N6    H23   1.028626 S    
C27   H13   1.109396 S    
C30   H26   1.109399 S    
O5    C3    1.289253 A    
O7    Zn2   1.981932 S    
C14   C17   1.530015 S    
C8    C11   1.524601 S    
C11   N5    1.447475 S    
O6    C4    1.289253 A    
C1    C18   1.413828 S    
O7    C3    1.289581 A    
O3    Zn2   1.983510 S    
O8    C4    1.289581 A    
C8    N4    1.448784 S    
C13   C19   1.543052 S    
C21   N2    1.485554 S    
O4    C2    1.292325 A    
N4    C28   1.445377 S    
C10   C12   1.530758 S    
N9    H27   1.030824 S    
O1    Zn1   1.981917 S    
C20   H8    1.110504 S    
C31   H30   1.107929 S    
C21   C25   1.512002 S    
C14   C20   1.543052 S    
C22   C26   1.512003 S    
O6    Zn2   1.998321 S    
C8    C10   1.530642 S    
O3    C1    1.292325 A    
O8    Zn1   1.981931 S    
C5    C7    1.543564 S    
C15   C20   1.543997 S    
C13   C15   1.542873 S    
C3    C10   1.411918 S    
C14   C16   1.542874 S    
C2    C17   1.413828 S    
C27   H14   1.110208 S    
C9    C11   1.530758 S    
C16   H4    1.110330 S    
Zn1   N1    2.045490 S    
C28   H16   1.109739 S    
C22   C24   1.533047 S    
C17   C19   1.525971 S    
C23   C26   1.536989 S    
C18   C20   1.525971 S    
C24   C25   1.536988 S    
C21   N7    1.456513 S    
C30   H24   1.109784 S    
O2    Zn2   1.981917 S    
C29   H20   1.109785 S    
C22   N8    1.456514 S    
O5    Zn1   1.998322 S    
C6    C8    1.543565 S    
N3    H11   1.030902 S    
C32   H34   1.110253 S    
C32   H33   1.107932 S    
C23   N1    1.494030 S    
C26   N10   1.447164 S    
N6    C30   1.445149 S    
