data_mof_unit_68297.cif
_audit_creation_date              2012-12-11T19:24:56-0500
_audit_creation_method            fapswitch 2.2
_symmetry_space_group_name_H-M    P1
_symmetry_Int_Tables_number       1
_space_group_crystal_system       triclinic
_cell_length_a                    19.412246
_cell_length_b                    22.508746
_cell_length_c                    8.534025
_cell_angle_alpha                 90.0
_cell_angle_beta                  103.40785
_cell_angle_gamma                 90.02207
_cell_volume                      3627.26743266

loop_
_atom_site_label
_atom_site_type_symbol
_atom_type_description
_atom_site_fract_x
_atom_site_fract_y
_atom_site_fract_z
_atom_type_partial_charge
Ba1   Ba    Ba6+2 0.999900 0.457470 0.844900 1.752571
Ba2   Ba    Ba6+2 0.999900 0.542530 0.344900 1.728515
Ba3   Ba    Ba6+2 0.499900 0.957470 0.844900 1.752533
Ba4   Ba    Ba6+2 0.499900 0.042530 0.344900 1.728663
C1    C     C_3   0.031970 0.169184 0.562785 -0.290273
C2    C     C_3   0.032459 0.833473 0.117051 -0.247264
C3    C     C_3   0.531963 0.669186 0.562717 -0.290147
C4    C     C_3   0.532583 0.333392 0.117053 -0.246978
C5    C     C_R   0.175239 0.740804 0.909454 -0.031660
C6    C     C_R   0.180050 0.261790 0.403558 -0.025770
C7    C     C_R   0.675235 0.240807 0.909459 -0.031573
C8    C     C_R   0.680068 0.761804 0.403564 -0.025793
C9    C     C_R   0.783469 0.324521 0.040622 0.002934
C10   C     C_R   0.786648 0.677261 0.536822 -0.047258
C11   C     C_R   0.283479 0.824515 0.040603 0.002928
C12   C     C_R   0.286632 0.177251 0.536825 -0.047282
C13   C     C_R   0.739833 0.331932 0.886006 -0.040484
C14   C     C_R   0.743989 0.670452 0.380988 -0.049786
C15   C     C_R   0.239857 0.831915 0.885968 -0.040449
C16   C     C_R   0.243971 0.170437 0.380993 -0.049745
C17   C     C_R   0.188621 0.790110 0.820044 -0.088808
C18   C     C_R   0.194260 0.213001 0.313667 -0.088401
C19   C     C_R   0.688596 0.290128 0.820078 -0.088768
C20   C     C_R   0.694282 0.713018 0.313665 -0.088505
C21   C     C_R   0.838901 0.365178 0.105163 0.078031
C22   C     C_R   0.840470 0.635586 0.603205 0.023731
C23   C     C_R   0.338904 0.865177 0.105154 0.078076
C24   C     C_R   0.340462 0.135581 0.603206 0.023659
C25   C     C_R   0.878453 0.356781 0.263870 -0.280482
C26   C     C_R   0.880135 0.644050 0.761566 -0.287203
C27   C     C_R   0.378453 0.856783 0.263864 -0.280453
C28   C     C_R   0.380128 0.144047 0.761564 -0.287339
C29   C     C_R   0.148344 0.642517 0.098296 0.039044
C30   C     C_R   0.151990 0.359300 0.593074 0.045132
C31   C     C_R   0.648353 0.142510 0.098276 0.039096
C32   C     C_R   0.652003 0.859308 0.593077 0.044882
C33   C     C_R   0.204670 0.683053 0.159858 -0.068490
C34   C     C_R   0.208166 0.318904 0.655560 -0.069725
C35   C     C_R   0.704679 0.183045 0.159845 -0.068548
C36   C     C_R   0.708179 0.818912 0.655571 -0.069735
C37   C     C_R   0.216084 0.733377 0.068369 0.041456
C38   C     C_R   0.220413 0.269093 0.563109 0.065588
C39   C     C_R   0.716085 0.233376 0.068370 0.041372
C40   C     C_R   0.720430 0.769104 0.563115 0.065386
C41   C     C_R   0.251440 0.674012 0.309519 0.040479
C42   C     C_R   0.253526 0.327258 0.807629 0.012672
C43   C     C_R   0.751462 0.173996 0.309490 0.040736
C44   C     C_R   0.753535 0.827263 0.807649 0.014372
C45   C     C_3   0.017521 0.204271 0.113719 0.348609
C46   C     C_3   0.987425 0.776849 0.608360 0.357011
C47   C     C_3   0.517574 0.704288 0.113664 0.348316
C48   C     C_3   0.487403 0.276850 0.608406 0.356900
C49   C     C_R   0.802539 0.215574 0.376474 -0.039311
C50   C     C_R   0.805021 0.785887 0.873685 -0.057265
C51   C     C_R   0.302524 0.715586 0.376491 -0.039395
C52   C     C_R   0.305011 0.285882 0.873672 -0.057430
C53   C     C_R   0.812998 0.266701 0.291344 -0.027378
C54   C     C_R   0.816424 0.735307 0.787236 -0.032154
C55   C     C_R   0.312995 0.766704 0.291342 -0.027441
C56   C     C_R   0.316411 0.235299 0.787232 -0.032049
C57   C     C_R   0.771274 0.274712 0.132990 0.092470
C58   C     C_R   0.775209 0.727572 0.628341 0.081770
C59   C     C_R   0.271278 0.774711 0.132982 0.092437
C60   C     C_R   0.275193 0.227561 0.628340 0.081940
C61   C     C_R   0.864315 0.309609 0.359574 -0.071804
C62   C     C_R   0.867113 0.691980 0.855908 -0.032154
C63   C     C_R   0.364314 0.809612 0.359567 -0.071801
C64   C     C_R   0.367104 0.191974 0.855906 -0.032173
C65   C     C_R   0.103850 0.654995 0.945728 -0.235202
C66   C     C_R   0.108624 0.347563 0.438750 -0.221166
C67   C     C_R   0.603870 0.154980 0.945693 -0.235190
C68   C     C_R   0.608640 0.847576 0.438756 -0.221091
C69   C     C_3   0.024922 0.139330 0.068053 -0.326756
C70   C     C_3   0.001946 0.839471 0.678182 -0.277794
C71   C     C_3   0.524960 0.639349 0.067956 -0.326339
C72   C     C_3   0.501834 0.339514 0.677980 -0.277364
C73   C     C_3   0.258500 0.478944 0.285356 0.193882
C74   C     C_3   0.246968 0.527277 0.779702 0.172877
C75   C     C_3   0.758607 0.979008 0.285410 0.193924
C76   C     C_3   0.746980 0.027255 0.779690 0.174841
C77   C     C_3   0.334714 0.489699 0.392678 -0.186666
C78   C     C_3   0.320801 0.526959 0.898268 -0.260800
C79   C     C_3   0.834815 0.989817 0.392751 -0.186792
C80   C     C_3   0.820911 0.026954 0.897873 -0.260228
C81   C     C_3   0.785406 0.536614 0.923343 0.195178
C82   C     C_3   0.786131 0.463460 0.427270 0.195360
C83   C     C_3   0.285405 0.036613 0.923357 0.195204
C84   C     C_3   0.286125 0.963459 0.427259 0.195393
C85   C     C_3   0.711214 0.565333 0.889800 -0.225606
C86   C     C_3   0.712538 0.433722 0.394528 -0.234170
C87   C     C_3   0.211214 0.065333 0.889817 -0.225628
C88   C     C_3   0.212529 0.933728 0.394524 -0.233945
C89   C     C_3   0.013204 0.234526 0.570632 0.405084
C90   C     C_3   0.013175 0.767960 0.102756 0.313671
C91   C     C_3   0.513199 0.734527 0.570578 0.405070
C92   C     C_3   0.513243 0.267892 0.102868 0.313222
C93   C     C_R   0.122091 0.698966 0.844178 -0.015486
C94   C     C_R   0.126095 0.302889 0.338397 -0.055578
C95   C     C_R   0.622102 0.198960 0.844163 -0.015434
C96   C     C_R   0.626111 0.802902 0.338410 -0.055390
H1    H     H_    0.058616 0.258159 0.649171 0.077637
H2    H     H_    0.055806 0.741943 0.183184 0.086803
H3    H     H_    0.558615 0.758159 0.649106 0.077558
H4    H     H_    0.555821 0.241873 0.183454 0.086957
H5    H     H_    0.334574 0.514877 0.502077 0.025503
H6    H     H_    0.317079 0.503077 0.006967 0.130589
H7    H     H_    0.834712 0.015058 0.502267 0.026449
H8    H     H_    0.817367 0.003159 0.006907 0.129557
H9    H     H_    0.360154 0.446707 0.437428 0.100474
H10   H     H_    0.338637 0.572662 0.938313 0.075978
H11   H     H_    0.860269 0.946793 0.437576 0.101802
H12   H     H_    0.838806 0.072700 0.937535 0.075470
H13   H     H_    0.809093 0.541221 0.817415 -0.027811
H14   H     H_    0.810536 0.457949 0.322754 -0.033395
H15   H     H_    0.309094 0.041226 0.817434 -0.027792
H16   H     H_    0.310525 0.957950 0.322733 -0.033414
H17   H     H_    0.684009 0.548857 0.982771 0.123733
H18   H     H_    0.683028 0.453044 0.479719 0.126409
H19   H     H_    0.184003 0.048848 0.982769 0.123663
H20   H     H_    0.183039 0.953032 0.479778 0.126403
H21   H     H_    0.003559 0.252767 0.446370 -0.169459
H22   H     H_    0.009082 0.754577 0.975994 -0.065383
H23   H     H_    0.503547 0.752770 0.446315 -0.169516
H24   H     H_    0.509208 0.254463 0.976164 -0.065303
H25   H     H_    0.080941 0.164496 0.517656 0.098415
H26   H     H_    0.081744 0.841023 0.075034 0.089621
H27   H     H_    0.580935 0.664500 0.517587 0.098379
H28   H     H_    0.581890 0.340888 0.075083 0.089521
H29   H     H_    0.744358 0.370042 0.812843 0.091379
H30   H     H_    0.748146 0.632445 0.307198 0.104105
H31   H     H_    0.244391 0.870016 0.812781 0.091391
H32   H     H_    0.248130 0.132429 0.307206 0.104074
H33   H     H_    0.158496 0.798214 0.698982 0.113364
H34   H     H_    0.166000 0.205874 0.190861 0.093691
H35   H     H_    0.658458 0.298242 0.699034 0.113386
H36   H     H_    0.666029 0.705895 0.190854 0.093714
H37   H     H_    0.834296 0.206092 0.495122 0.143580
H38   H     H_    0.835635 0.794742 0.993687 0.156344
H39   H     H_    0.334272 0.706110 0.495154 0.143744
H40   H     H_    0.335629 0.294740 0.993670 0.156613
H41   H     H_    0.249457 0.634773 0.378166 0.136471
H42   H     H_    0.249814 0.365493 0.879767 0.143368
H43   H     H_    0.749499 0.134745 0.378109 0.136497
H44   H     H_    0.749823 0.865495 0.879804 0.143363
H45   H     H_    0.918498 0.389030 0.316537 0.059662
H46   H     H_    0.918932 0.611050 0.815540 0.070431
H47   H     H_    0.418497 0.889033 0.316532 0.059635
H48   H     H_    0.418931 0.111050 0.815534 0.070464
H49   H     H_    0.060351 0.625313 0.897064 0.102892
H50   H     H_    0.065589 0.377587 0.389144 0.099150
H51   H     H_    0.560373 0.125298 0.897016 0.102956
H52   H     H_    0.565613 0.877607 0.389140 0.099107
H53   H     H_    0.988198 0.145358 0.479731 0.128348
H54   H     H_    0.989245 0.860264 0.041473 0.151595
H55   H     H_    0.488192 0.645362 0.479657 0.128508
H56   H     H_    0.489409 0.360185 0.041371 0.153030
H57   H     H_    0.043664 0.208496 0.242975 -0.141285
H58   H     H_    0.981593 0.746969 0.708056 -0.210918
H59   H     H_    0.543708 0.708498 0.242929 -0.141263
H60   H     H_    0.481640 0.247010 0.708232 -0.210904
H61   H     H_    0.997031 0.131337 0.940603 0.127414
H62   H     H_    0.007444 0.871485 0.582668 0.150351
H63   H     H_    0.497063 0.631368 0.940505 0.127601
H64   H     H_    0.507289 0.371485 0.582335 0.150208
H65   H     H_    0.081671 0.127797 0.082755 0.122286
H66   H     H_    0.051626 0.839768 0.773464 0.071278
H67   H     H_    0.581705 0.627810 0.082642 0.122247
H68   H     H_    0.551516 0.339891 0.773259 0.071679
O1    O     O_2   0.860260 0.414960 0.826400 -0.470059
O2    O     O_2   0.860260 0.585040 0.326400 -0.471235
O3    O     O_2   0.360260 0.914960 0.826400 -0.470038
O4    O     O_2   0.360260 0.085040 0.326400 -0.471279
O5    O     O_3   0.231699 0.468170 0.723632 -0.668148
O6    O     O_3   0.232367 0.533143 0.205267 -0.665305
O7    O     O_3   0.731691 0.968152 0.723629 -0.666630
O8    O     O_3   0.732408 0.033200 0.205375 -0.665182
O9    O     O_3   0.049124 0.240467 0.014773 -0.545241
O10   O     O_3   0.042605 0.760398 0.534340 -0.607754
O11   O     O_3   0.549199 0.740486 0.014765 -0.545310
O12   O     O_3   0.542594 0.260416 0.534401 -0.607818
O13   O     O_3   0.081330 0.529680 0.090830 -0.420252
O14   O     O_3   0.081330 0.470320 0.590830 -0.401490
O15   O     O_3   0.581330 0.029680 0.090830 -0.419992
O16   O     O_3   0.581330 0.970320 0.590830 -0.401838
O17   O     O_3   0.918600 0.470180 0.098890 -0.486338
O18   O     O_3   0.918600 0.529820 0.598890 -0.481313
O19   O     O_3   0.418600 0.970180 0.098890 -0.486380
O20   O     O_3   0.418600 0.029820 0.598890 -0.481327
O21   O     O_3   0.975750 0.362410 0.628650 -0.489136
O22   O     O_3   0.975750 0.637590 0.128650 -0.490943
O23   O     O_3   0.475750 0.862410 0.628650 -0.489125
O24   O     O_3   0.475750 0.137590 0.128650 -0.491031
O25   O     O_2   0.860633 0.314670 0.688689 -0.429291
O26   O     O_2   0.856332 0.680745 0.174256 -0.497989
O27   O     O_2   0.360632 0.814668 0.688679 -0.429323
O28   O     O_2   0.356339 0.180761 0.174280 -0.497927
O29   O     O_3   0.775244 0.476699 0.954274 -0.652276
O30   O     O_3   0.775050 0.523616 0.452834 -0.644923
O31   O     O_3   0.275242 0.976697 0.954267 -0.652287
O32   O     O_3   0.275051 0.023615 0.452841 -0.644904
O33   O     O_3   0.953575 0.239610 0.636582 -0.556005
O34   O     O_3   0.949178 0.759970 0.149696 -0.576355
O35   O     O_3   0.453577 0.739610 0.636553 -0.555970
O36   O     O_3   0.449194 0.259972 0.149625 -0.576297
O37   O     O_2   0.139400 0.414340 0.863230 -0.481820
O38   O     O_2   0.139400 0.585660 0.363230 -0.466547
O39   O     O_2   0.639400 0.914340 0.863230 -0.481691
O40   O     O_2   0.639400 0.085660 0.363230 -0.466677
O41   O     O_3   0.023740 0.362300 0.060930 -0.429028
O42   O     O_3   0.023740 0.637700 0.560930 -0.452405
O43   O     O_3   0.523740 0.862300 0.060930 -0.428975
O44   O     O_3   0.523740 0.137700 0.560930 -0.452735
O45   O     O_2   0.144916 0.320256 0.030878 -0.480126
O46   O     O_2   0.143334 0.684691 0.531624 -0.429241
O47   O     O_2   0.644965 0.820319 0.030980 -0.480232
O48   O     O_2   0.643312 0.184718 0.531571 -0.429044
P1    P     P_3+3 0.853370 0.434890 0.996520 0.992436
P2    P     P_3+3 0.853370 0.565110 0.496520 0.979602
P3    P     P_3+3 0.353370 0.934890 0.996520 0.992430
P4    P     P_3+3 0.353370 0.065110 0.496520 0.979563
P5    P     P_3+3 0.146350 0.434230 0.693140 1.086413
P6    P     P_3+3 0.146350 0.565770 0.193140 1.079332
P7    P     P_3+3 0.646350 0.934230 0.693140 1.086801
P8    P     P_3+3 0.646350 0.065770 0.193140 1.079633
P9    P     P_3+3 0.085239 0.305369 0.116660 1.023574
P10   P     P_3+3 0.083771 0.695087 0.621650 1.026709
P11   P     P_3+3 0.585273 0.805395 0.116679 1.023663
P12   P     P_3+3 0.583762 0.195096 0.621645 1.026497
P13   P     P_3+3 0.911562 0.692205 0.073874 0.941405
P14   P     P_3+3 0.911879 0.307438 0.575988 1.009122
P15   P     P_3+3 0.411561 0.192204 0.073867 0.941468
P16   P     P_3+3 0.411879 0.807439 0.575979 1.009130
C97   C     C_2   0.382760 0.522491 0.307517 0.534076
H69   H     H_    0.419926 0.498115 0.254508 0.057749
O49   O     O_2   0.379576 0.576504 0.295087 -0.616720
C98   C     C_2   0.377399 0.498065 0.830676 0.550372
H70   H     H_    0.407522 0.524392 0.763366 0.000801
O50   O     O_2   0.389836 0.445067 0.851124 -0.558316
C99   C     C_2   0.882827 0.022626 0.307356 0.533393
H71   H     H_    0.920089 0.998256 0.254566 0.056483
O51   O     O_2   0.879518 0.076658 0.294568 -0.616702
C100  C     C_2   0.877347 0.997914 0.829981 0.548805
H72   H     H_    0.908740 0.024435 0.766131 0.001395
O52   O     O_2   0.887985 0.944531 0.845592 -0.558682
H73   H     H_    0.820591 0.557589 0.030099 0.064693
H74   H     H_    0.821385 0.443922 0.536059 0.056364
H75   H     H_    0.320589 0.057584 0.030122 0.064672
H76   H     H_    0.321380 0.943915 0.536039 0.056332
C101  C     C_2   0.668372 0.546917 0.726202 0.582334
H77   H     H_    0.684038 0.561428 0.618302 0.018790
O53   O     O_2   0.615627 0.516081 0.713787 -0.575508
C102  C     C_2   0.671910 0.446487 0.224803 0.587738
H78   H     H_    0.690028 0.428490 0.123474 0.002382
O54   O     O_2   0.618272 0.476723 0.200059 -0.574028
C103  C     C_2   0.168377 0.046931 0.726199 0.582205
H79   H     H_    0.184050 0.061451 0.618315 0.018860
O55   O     O_2   0.115627 0.016098 0.713752 -0.575820
C104  C     C_2   0.171883 0.946532 0.224839 0.587461
H80   H     H_    0.189978 0.928554 0.123458 0.002500
O56   O     O_2   0.118255 0.976779 0.200184 -0.574677
C105  C     C_2   0.713826 0.631753 0.908197 0.322041
H81   H     H_    0.741855 0.650937 0.020547 0.064284
O57   O     O_2   0.681579 0.664588 0.802636 -0.605082
C106  C     C_2   0.716789 0.368257 0.429872 0.323507
H82   H     H_    0.747947 0.352960 0.543860 0.060101
O58   O     O_2   0.682971 0.332032 0.336527 -0.605789
C107  C     C_2   0.213828 0.131751 0.908257 0.322089
H83   H     H_    0.241864 0.150927 0.020613 0.064300
O59   O     O_2   0.181577 0.164595 0.802723 -0.605036
C108  C     C_2   0.216770 0.868254 0.429752 0.323444
H84   H     H_    0.247945 0.852928 0.543694 0.060035
O60   O     O_2   0.182926 0.832053 0.336369 -0.605773
H85   H     H_    0.040724 0.148825 0.684273 0.162197
H86   H     H_    0.040522 0.848133 0.244301 0.173589
H87   H     H_    0.540717 0.648823 0.684199 0.162224
H88   H     H_    0.540622 0.348093 0.244260 0.173601
H89   H     H_    0.002200 0.109564 0.147058 0.102005
H90   H     H_    0.958083 0.853970 0.732797 0.133884
H91   H     H_    0.502236 0.609580 0.146949 0.102122
H92   H     H_    0.457946 0.354015 0.732528 0.133206
C109  C     C_2   0.940321 0.218575 0.090453 0.485892
H93   H     H_    0.909777 0.197089 0.165837 -0.031391
O61   O     O_2   0.911230 0.253259 0.986244 -0.527905
C110  C     C_2   0.918349 0.773627 0.485003 0.562189
H94   H     H_    0.899990 0.730691 0.436225 0.025722
O62   O     O_2   0.882432 0.817665 0.439848 -0.586898
C111  C     C_2   0.440376 0.718607 0.090394 0.486107
H95   H     H_    0.409819 0.697113 0.165739 -0.031760
O63   O     O_2   0.411303 0.753313 0.986231 -0.527871
C112  C     C_2   0.418324 0.273511 0.485102 0.561827
H96   H     H_    0.400078 0.230547 0.436368 0.025926
O64   O     O_2   0.382282 0.317482 0.439949 -0.587350
C113  C     C_2   0.213181 0.451966 0.382615 0.349521
H97   H     H_    0.238444 0.422418 0.478318 -0.012310
O65   O     O_2   0.148966 0.454369 0.340031 -0.601980
C114  C     C_2   0.195076 0.554466 0.858331 0.497711
H98   H     H_    0.216715 0.585481 0.951676 -0.063059
O66   O     O_2   0.131570 0.551590 0.801991 -0.592004
C115  C     C_2   0.713310 0.951954 0.382620 0.348816
H99   H     H_    0.738582 0.922403 0.478318 -0.010731
O67   O     O_2   0.649093 0.954341 0.340049 -0.602213
C116  C     C_2   0.695196 0.054411 0.858675 0.496270
H100  H     H_    0.716894 0.085479 0.951869 -0.062151
O68   O     O_2   0.631665 0.051440 0.802771 -0.592176
C117  C     C_2   0.262814 0.430716 0.165536 0.399534
H101  H     H_    0.214809 0.410475 0.103057 0.081024
O69   O     O_2   0.318917 0.409604 0.150100 -0.580034
C118  C     C_2   0.252151 0.568475 0.646529 0.437170
H102  H     H_    0.239472 0.552570 0.526583 0.034528
O70   O     O_2   0.271357 0.619993 0.673617 -0.609893
C119  C     C_2   0.762979 0.930833 0.165479 0.399467
H103  H     H_    0.714955 0.910662 0.102710 0.081026
O71   O     O_2   0.819126 0.909682 0.150247 -0.580534
C120  C     C_2   0.752010 0.068470 0.646458 0.437098
H104  H     H_    0.739399 0.052525 0.526547 0.034377
O72   O     O_2   0.771080 0.120029 0.673469 -0.609920

loop_
_geom_bond_atom_site_label_1
_geom_bond_atom_site_label_2
_ccdc_geom_bond_type
C103  O55   D    
C83   C87   S    
C22   P2    S    
O6    P6    S    
C27   C63   A    
C80   H12   S    
C61   P14   S    
C49   H37   S    
C110  H94   S    
C46   O10   S    
C89   H21   S    
C51   C55   A    
C52   H40   S    
C43   H43   S    
C51   H39   S    
C44   H44   S    
Ba1   P5    S    
C76   C120  S    
C69   H61   S    
C91   H3    S    
O15   P8    S    
C2    C90   S    
C66   H50   S    
C100  O52   D    
C111  O63   D    
C89   O33   S    
Ba3   O16   S    
C83   H15   S    
C95   P12   S    
C64   P15   S    
C29   C65   A    
C43   C49   A    
C27   H47   S    
C29   P6    S    
O9    P9    S    
C93   P10   S    
C31   C67   A    
C24   P4    S    
O30   P2    S    
O25   P14   D    
C16   H32   S    
C87   C107  S    
C17   H33   S    
Ba4   O40   S    
C45   O9    S    
C21   C25   A    
C101  O53   D    
C72   H92   S    
C23   C27   A    
C24   C28   A    
C82   C86   S    
C89   H1    S    
Ba1   O13   S    
C69   H89   S    
C120  H104  S    
C67   C95   A    
C96   P11   S    
C74   C78   S    
C11   C23   A    
C12   C16   A    
C10   C22   A    
C83   H75   S    
C4    H88   S    
C82   O30   S    
C90   H22   S    
C114  H98   S    
C92   H4    S    
O32   P4    S    
C45   C69   S    
C14   H30   S    
C1    H85   S    
C37   C59   A    
C33   C41   A    
C38   C60   A    
C39   C57   A    
C35   C43   A    
C36   C44   A    
O14   P5    S    
C5    C37   A    
Ba2   O22   S    
C53   C57   A    
C55   C59   A    
C56   C60   A    
Ba3   O39   S    
O21   P14   S    
C8    C40   A    
C5    C17   A    
C87   C103  S    
C7    C19   A    
C72   H68   S    
C90   H2    S    
Ba2   P2    S    
O7    P7    S    
C102  H78   S    
C48   H60   S    
O24   P15   S    
O39   P7    D    
C73   O6    S    
C46   H58   S    
O18   P2    S    
C101  H77   S    
O48   P12   D    
C14   C20   A    
C15   C17   A    
C75   C119  S    
C46   C70   S    
C105  H81   S    
C91   O35   S    
C10   C58   A    
C108  O60   D    
C98   H70   S    
C71   H63   S    
C55   C63   A    
C4    H28   S    
C106  H82   S    
C117  O69   D    
Ba2   O38   S    
C86   C106  S    
C97   H69   S    
O4    P4    D    
C20   H36   S    
C81   H73   S    
O42   P10   S    
C45   H57   S    
C47   O11   S    
C118  O70   D    
C92   O36   S    
Ba3   O43   S    
C77   H5    S    
Ba1   O41   S    
O31   P3    S    
C69   H65   S    
C75   C115  S    
C70   H62   S    
C68   H52   S    
C46   C110  S    
Ba2   O13   S    
C113  H97   S    
C84   H76   S    
C88   C108  S    
C50   C54   A    
C99   O51   D    
O34   P13   S    
C25   C61   A    
Ba3   P3    S    
C85   H17   S    
C22   C26   A    
C119  O71   D    
C87   H19   S    
Ba3   Ba4   S    
C67   H51   S    
C91   H23   S    
C70   H90   S    
Ba3   P7    S    
Ba4   O4    S    
C75   O8    S    
C76   O7    S    
C48   C72   S    
C49   C53   A    
C107  H83   S    
C109  O61   D    
C8    C20   A    
C9    C13   A    
C110  O62   D    
C104  H80   S    
C88   H20   S    
Ba2   O17   S    
C116  O68   D    
C31   P8    S    
O38   P6    D    
C45   C109  S    
O27   P16   D    
O47   P11   D    
C78   H6    S    
Ba4   O15   S    
C33   C37   A    
C2    H86   S    
C34   C42   A    
O45   P9    D    
C73   C113  S    
C36   C40   A    
C41   C51   A    
C1    H25   S    
C3    H27   S    
Ba3   O15   S    
O3    P3    D    
C32   C68   A    
Ba1   O21   S    
C54   C58   A    
O16   P7    S    
O1    P1    D    
C23   P3    S    
C78   C98   S    
C6    C38   A    
Ba4   O24   S    
C21   P1    S    
C99   H71   S    
C83   O31   S    
C76   C80   S    
O5    P5    S    
C76   C116  S    
C42   H42   S    
C6    C18   A    
C11   C15   A    
C62   P13   S    
C85   C101  S    
C86   H18   S    
C47   C111  S    
C25   H45   S    
C120  O72   D    
Ba2   P6    S    
C112  H96   S    
C73   C117  S    
Ba4   P4    S    
C74   O5    S    
C90   O34   S    
O8    P8    S    
C30   C66   A    
C30   P5    S    
C94   P9    S    
C114  O66   D    
C41   H41   S    
O26   P13   D    
O41   P9    S    
O29   P1    S    
O20   P4    S    
C2    H26   S    
C81   C85   S    
O12   P12   S    
C29   C33   A    
C52   C56   A    
C31   C35   A    
C115  H99   S    
C74   C114  S    
C111  H95   S    
C73   C77   S    
C100  H72   S    
C13   C19   A    
C32   P7    S    
C2    H54   S    
Ba2   O2    S    
C81   O29   S    
C16   C18   A    
C63   P16   S    
C79   H11   S    
O40   P8    D    
C70   H66   S    
O37   P5    D    
C102  O54   D    
C5    C93   A    
O13   P6    S    
C80   C100  S    
C53   C61   A    
C88   C104  S    
Ba1   O14   S    
C28   H48   S    
C85   C105  S    
C19   H35   S    
O22   P13   S    
C65   H49   S    
C84   O32   S    
O36   P15   S    
C75   C79   S    
C107  O59   D    
O35   P16   S    
C74   C118  S    
C81   H13   S    
C80   H8    S    
C98   O50   D    
C8    C96   A    
O44   P12   S    
C3    H55   S    
C56   C64   A    
C106  O58   D    
C117  H101  S    
C97   O49   D    
C108  H84   S    
Ba1   P1    S    
C12   C24   A    
C119  H103  S    
C10   C14   A    
C4    C92   S    
Ba3   O20   S    
O19   P3    S    
Ba1   O18   S    
C44   C50   A    
O17   P1    S    
C18   H34   S    
C78   H10   S    
Ba4   O19   S    
C7    C95   A    
C47   C71   S    
C34   C38   A    
C3    H87   S    
Ba1   Ba2   S    
Ba2   O14   S    
C47   H59   S    
C6    C94   A    
C54   C62   A    
C84   C88   S    
O23   P16   S    
C7    C39   A    
Ba1   O37   S    
C28   C64   A    
C82   H74   S    
O43   P11   S    
O11   P11   S    
C9    C21   A    
O46   P10   D    
C26   H46   S    
C15   H31   S    
C79   C99   S    
Ba2   O42   S    
C92   H24   S    
C13   H29   S    
C32   C36   A    
C77   C97   S    
C48   C112  S    
C105  O57   D    
C35   C39   A    
C40   C58   A    
C109  H93   S    
Ba4   P8    S    
C86   C102  S    
C71   H91   S    
C84   H16   S    
C104  O56   D    
C48   O12   S    
Ba3   O23   S    
O28   P15   D    
Ba4   O16   S    
C115  O67   D    
C26   C62   A    
O33   P14   S    
C72   H64   S    
C42   C52   A    
C103  H79   S    
C118  H102  S    
C68   C96   A    
C116  H100  S    
C30   C34   A    
C77   H9    S    
C1    C89   S    
C3    C91   S    
Ba4   O44   S    
C82   H14   S    
C113  O65   D    
Ba3   O3    S    
C50   H38   S    
C1    H53   S    
Ba1   O1    S    
C79   H7    S    
C112  O64   D    
C4    H56   S    
O10   P10   S    
C9    C57   A    
C11   C59   A    
C71   H67   S    
C12   C60   A    
C66   C94   A    
C65   C93   A    
O2    P2    D    
