data_mof_unit_65043.cif
_audit_creation_date              2012-10-26T19:54:49-0400
_audit_creation_method            fapswitch 2.2
_symmetry_space_group_name_H-M    P1
_symmetry_Int_Tables_number       1
_space_group_crystal_system       triclinic
_cell_length_a                    17.737767
_cell_length_b                    16.46115
_cell_length_c                    11.021669
_cell_angle_alpha                 89.817486
_cell_angle_beta                  92.280686
_cell_angle_gamma                 88.939152
_cell_volume                      3215.02633028

loop_
_atom_site_label
_atom_site_type_symbol
_atom_type_description
_atom_site_fract_x
_atom_site_fract_y
_atom_site_fract_z
_atom_type_partial_charge
C1    C     C_R   0.355382 0.500369 0.504259 0.568686
C2    C     C_R   0.547709 0.169532 0.579295 -0.100572
C3    C     C_R   0.547320 0.741935 0.578941 0.491340
C4    C     C_R   0.452680 0.258065 0.421058 0.491341
C5    C     C_R   0.452940 0.744786 0.421666 0.496325
C6    C     C_R   0.547060 0.255214 0.578335 0.496322
C7    C     C_R   0.500293 0.873219 0.500695 -0.086904
C8    C     C_R   0.499708 0.126780 0.499303 -0.086902
C9    C     C_1   0.500172 0.962745 0.500354 0.032600
C10   C     C_1   0.499830 0.037255 0.499644 0.032601
C11   C     C_R   0.495160 0.499891 0.261991 0.571555
C12   C     C_R   0.644618 0.499631 0.495740 0.568685
C13   C     C_R   0.504840 0.500108 0.738009 0.571557
C14   C     C_R   0.357199 0.479885 0.102241 0.118041
C15   C     C_R   0.642802 0.520115 0.897760 0.118042
C16   C     C_R   0.364866 0.497689 0.856979 0.065938
C17   C     C_R   0.635134 0.502308 0.143022 0.065937
C18   C     C_R   0.298171 0.451151 0.027255 -0.071456
C19   C     C_R   0.701830 0.548848 0.972747 -0.071457
C20   C     C_R   0.301491 0.461641 0.902509 -0.098167
C21   C     C_R   0.698510 0.538356 0.097493 -0.098168
C22   C     C_R   0.433427 0.494049 0.926626 0.003151
C23   C     C_R   0.885539 0.499558 0.493179 0.031246
C24   C     C_R   0.566573 0.505950 0.073374 0.003150
C25   C     C_R   0.429517 0.490136 0.054574 0.013402
C26   C     C_R   0.570484 0.509864 0.945426 0.013402
C27   C     C_R   0.503577 0.501136 0.871701 0.016497
C28   C     C_R   0.496424 0.498864 0.128300 0.016497
C29   C     C_R   0.844723 0.573093 0.486204 0.350030
C30   C     C_R   0.155277 0.426907 0.513774 0.350031
C31   C     C_R   0.152240 0.574191 0.502344 0.364611
C32   C     C_R   0.847759 0.425809 0.497649 0.364611
C33   C     C_R   0.766133 0.572931 0.485379 -0.098765
C34   C     C_R   0.114460 0.500442 0.506804 0.031247
C35   C     C_R   0.233867 0.427069 0.514604 -0.098763
C36   C     C_R   0.230820 0.574321 0.503222 -0.066888
C37   C     C_R   0.769179 0.425679 0.496776 -0.066889
C38   C     C_R   0.727634 0.499264 0.491672 -0.098279
C39   C     C_R   0.272366 0.500735 0.508322 -0.098279
C40   C     C_1   0.966181 0.499860 0.497821 0.170075
C41   C     C_1   0.033819 0.500141 0.502160 0.170075
C42   C     C_R   0.548237 0.827749 0.580563 -0.102797
C43   C     C_R   0.451763 0.172250 0.419435 -0.102796
C44   C     C_R   0.452293 0.830469 0.420705 -0.100572
Cu1   Cu    Cu3+1 0.500000 0.580420 0.500000 1.161222
Cu2   Cu    Cu3+1 0.500000 0.419580 0.500000 1.161221
F1    F     F_    0.880942 0.644919 0.481500 -0.560978
F2    F     F_    0.119057 0.355081 0.518467 -0.560978
F3    F     F_    0.113087 0.645835 0.495695 -0.552067
F4    F     F_    0.886913 0.354165 0.504304 -0.552067
F5    F     F_    0.594320 0.699729 0.657047 -0.597088
F6    F     F_    0.405680 0.300271 0.342952 -0.597089
F7    F     F_    0.406037 0.705720 0.343143 -0.580089
F8    F     F_    0.593961 0.294281 0.656864 -0.580087
H1    H     H_    0.750376 0.540438 0.152570 0.151125
H2    H     H_    0.413743 0.141653 0.356101 0.162662
H3    H     H_    0.414388 0.863147 0.357515 0.165536
H4    H     H_    0.585614 0.136854 0.642486 0.165536
H5    H     H_    0.249625 0.459556 0.847432 0.151125
H6    H     H_    0.756273 0.560202 0.935541 0.159860
H7    H     H_    0.243727 0.439797 0.064461 0.159859
H8    H     H_    0.735572 0.630503 0.480967 0.197380
H9    H     H_    0.264427 0.369497 0.519012 0.197384
H10   H     H_    0.259108 0.631903 0.498032 0.216653
H11   H     H_    0.740892 0.368097 0.501974 0.216652
H12   H     H_    0.586257 0.858347 0.643896 0.162663
I1    I     I_    0.315032 0.565420 0.223202 -0.171872
I2    I     I_    0.684969 0.434582 0.776797 -0.171872
I3    I     I_    0.337428 0.610548 0.771729 -0.262566
I4    I     I_    0.662570 0.389448 0.228270 -0.262563
N1    N     N_R   0.500000 0.701220 0.500000 -0.220274
N2    N     N_R   0.500000 0.298780 0.500000 -0.220277
O1    O     O_R   0.391260 0.567930 0.500000 -0.453892
O2    O     O_R   0.608740 0.432070 0.500000 -0.453895
O3    O     O_R   0.608740 0.567930 0.500000 -0.476343
O4    O     O_R   0.391260 0.432070 0.500000 -0.476345
O5    O     O_R   0.500000 0.567910 0.319660 -0.460995
O6    O     O_R   0.500000 0.432090 0.680340 -0.460991
O7    O     O_R   0.500000 0.567910 0.680340 -0.447945
O8    O     O_R   0.500000 0.432090 0.319660 -0.447945

loop_
_geom_bond_atom_site_label_1
_geom_bond_atom_site_label_2
_ccdc_geom_bond_type
C13   O7    A    
C3    C42   A    
C12   O2    A    
Cu1   N1    S    
C14   C18   A    
C35   C39   A    
C8    C43   A    
Cu2   O2    S    
Cu2   O4    S    
Cu1   Cu2   S    
C25   C28   A    
C15   C19   A    
C26   C27   A    
C30   C35   A    
C4    F6    S    
C23   C29   A    
C30   F2    S    
C19   C21   A    
C24   C26   A    
C23   C40   S    
C29   C33   A    
Cu1   O1    S    
C7    C42   A    
C11   O5    A    
C33   H8    S    
C22   C25   A    
C37   H11   S    
C14   I1    S    
C9    C10   T    
Cu2   N2    S    
C17   I4    S    
C2    C6    A    
C34   C41   S    
C31   F3    S    
C17   C24   A    
C30   C34   A    
Cu2   O6    S    
C3    F5    S    
C15   C26   A    
C7    C44   A    
C17   C21   A    
C3    N1    A    
C37   C38   A    
C44   H3    S    
C16   C20   A    
C31   C34   A    
Cu1   O7    S    
C32   C37   A    
C20   H5    S    
C32   F4    S    
C40   C41   T    
C5    C44   A    
C29   F1    S    
C6    F8    S    
C22   C27   A    
C4    N2    A    
C21   H1    S    
C5    F7    S    
C7    C9    S    
C13   O6    A    
C16   C22   A    
C1    O4    A    
C36   C39   A    
C2    C8    A    
C16   I3    S    
C24   C28   A    
C35   H9    S    
C2    H4    S    
C18   H7    S    
C4    C43   A    
C19   H6    S    
C33   C38   A    
Cu1   O3    S    
C1    O1    A    
C23   C32   A    
C5    N1    A    
Cu2   O8    S    
C11   C28   S    
C15   I2    S    
C18   C20   A    
C14   C25   A    
C12   C38   S    
C11   O8    A    
C1    C39   S    
C43   H2    S    
C8    C10   S    
C12   O3    A    
C42   H12   S    
C31   C36   A    
C13   C27   S    
Cu1   O5    S    
C36   H10   S    
C6    N2    A    
