data_mof_unit_47639.cif
_audit_creation_date              2012-12-10T17:24:29-0500
_audit_creation_method            fapswitch 2.2
_symmetry_space_group_name_H-M    P1
_symmetry_Int_Tables_number       1
_space_group_crystal_system       triclinic
_cell_length_a                    31.62062
_cell_length_b                    18.280767
_cell_length_c                    25.752327
_cell_angle_alpha                 89.719173
_cell_angle_beta                  144.692977
_cell_angle_gamma                 90.164037
_cell_volume                      8603.42224965

loop_
_atom_site_label
_atom_site_type_symbol
_atom_type_description
_atom_site_fract_x
_atom_site_fract_y
_atom_site_fract_z
_atom_type_partial_charge
C1    C     C_R   0.860230 0.860066 0.110183 0.790000
C2    C     C_R   0.165320 0.281632 0.284535 -0.138251
C3    C     C_R   0.748613 0.193392 0.036545 0.073684
C4    C     C_R   0.254415 0.300127 0.046276 0.078741
C5    C     C_R   0.745592 0.699866 0.953735 0.078743
C6    C     C_R   0.751385 0.306606 0.963455 0.073675
C7    C     C_R   0.248615 0.693394 0.036547 0.073674
C8    C     C_R   0.195808 0.196084 0.945791 -0.155366
C9    C     C_R   0.804192 0.803916 0.054208 -0.155370
C10   C     C_R   0.804041 0.195835 0.053872 -0.150346
C11   C     C_R   0.195958 0.804165 0.946129 -0.150351
C12   C     C_R   0.695809 0.696082 0.945793 -0.155352
C13   C     C_R   0.344865 0.898145 0.668708 -0.139281
C14   C     C_R   0.304191 0.303918 0.054206 -0.155361
C15   C     C_R   0.304043 0.695836 0.053872 -0.150350
C16   C     C_R   0.695957 0.304163 0.946128 -0.150347
C17   C     C_R   0.930162 0.117198 0.982929 -0.186661
C18   C     C_R   0.069841 0.882804 0.017073 -0.186656
C19   C     C_R   0.430206 0.617227 0.982972 -0.186664
C20   C     C_R   0.569785 0.382772 0.017022 -0.186670
C21   C     C_R   0.893337 0.171942 0.918634 -0.179685
C22   C     C_R   0.106672 0.828064 0.081373 -0.179683
C23   C     C_R   0.393403 0.671985 0.918700 -0.179658
C24   C     C_R   0.655086 0.101805 0.331325 -0.139169
C25   C     C_R   0.606565 0.328000 0.081275 -0.179659
C26   C     C_R   0.892262 0.171333 0.863444 0.155306
C27   C     C_R   0.107751 0.828675 0.136567 0.155304
C28   C     C_R   0.392323 0.671373 0.863505 0.155336
C29   C     C_R   0.607627 0.328605 0.136452 0.155388
C30   C     C_R   0.930247 0.116221 0.875291 -0.184302
C31   C     C_R   0.069763 0.883784 0.124717 -0.184306
C32   C     C_R   0.430282 0.616243 0.875326 -0.184313
C33   C     C_R   0.569682 0.383747 0.124642 -0.184283
C34   C     C_R   0.964811 0.057838 0.937140 0.042110
C35   C     C_R   0.334668 0.218375 0.715462 -0.138195
C36   C     C_R   0.035192 0.942164 0.062863 0.042110
C37   C     C_R   0.464830 0.557851 0.937158 0.042121
C38   C     C_R   0.535157 0.442149 0.062830 0.042119
C39   C     C_R   0.964529 0.058154 0.991205 0.068078
C40   C     C_R   0.035473 0.941847 0.008796 0.068077
C41   C     C_R   0.464549 0.558170 0.991226 0.068070
C42   C     C_R   0.535444 0.441832 0.008769 0.068069
C43   C     C_R   0.000285 0.999725 0.946709 -0.132561
C44   C     C_R   0.999715 0.000276 0.053291 -0.132562
C45   C     C_R   0.500284 0.499725 0.946709 -0.132539
C46   C     C_R   0.665292 0.781676 0.284514 -0.138152
C47   C     C_R   0.499712 0.500280 0.053289 -0.132531
C48   C     C_R   0.999853 0.000589 0.108853 0.786399
C49   C     C_R   0.000147 0.999411 0.891147 0.786400
C50   C     C_R   0.499852 0.500595 0.108853 0.786397
C51   C     C_R   0.500147 0.499410 0.891147 0.786398
C52   C     C_R   0.999797 0.999730 0.391445 0.776978
C53   C     C_R   0.000207 0.000269 0.608559 0.776965
C54   C     C_R   0.499792 0.499733 0.391440 0.776951
C55   C     C_R   0.500209 0.500267 0.608561 0.776946
C56   C     C_3   0.958100 0.944572 0.441722 0.112433
C57   C     C_R   0.844875 0.398154 0.668703 -0.139362
C58   C     C_3   0.041919 0.055419 0.558298 0.112256
C59   C     C_3   0.931328 0.009236 0.448273 0.103920
C60   C     C_3   0.068688 0.990755 0.551742 0.103998
C61   C     C_3   0.458005 0.444645 0.441621 0.112093
C62   C     C_3   0.541999 0.555354 0.558382 0.112075
C63   C     C_3   0.431338 0.509344 0.448286 0.104067
C64   C     C_3   0.568665 0.490654 0.551717 0.104075
C65   C     C_3   0.027085 0.935952 0.545233 -0.243831
C66   C     C_3   0.972934 0.064040 0.454786 -0.244031
C67   C     C_3   0.526980 0.435907 0.545120 -0.243801
C68   C     C_R   0.155153 0.601874 0.331279 -0.139343
C69   C     C_3   0.473023 0.564092 0.454884 -0.243822
C70   C     C_3   0.000049 0.001077 0.551188 -0.074104
C71   C     C_3   0.999966 0.998917 0.448827 -0.074131
C72   C     C_3   0.500048 0.501067 0.551187 -0.074120
C73   C     C_3   0.499954 0.498932 0.448816 -0.074127
C74   C     C_R   0.235091 0.156826 0.572952 -0.150896
C75   C     C_R   0.764880 0.843211 0.427032 -0.150963
C76   C     C_R   0.886666 0.278457 0.684926 -0.163484
C77   C     C_R   0.113351 0.721559 0.315062 -0.163508
C78   C     C_R   0.735111 0.656808 0.572956 -0.150833
C79   C     C_R   0.842756 0.764447 0.680676 -0.141928
C80   C     C_R   0.264901 0.343179 0.427047 -0.150838
C81   C     C_R   0.386659 0.778451 0.684931 -0.163511
C82   C     C_R   0.613315 0.221523 0.315088 -0.163503
C83   C     C_R   0.280980 0.164695 0.661737 -0.157301
C84   C     C_R   0.718977 0.835361 0.338238 -0.157443
C85   C     C_R   0.899238 0.344909 0.722246 -0.144454
C86   C     C_R   0.100789 0.655117 0.277736 -0.144454
C87   C     C_R   0.781012 0.664664 0.661747 -0.157182
C88   C     C_R   0.219006 0.335314 0.338259 -0.157194
C89   C     C_R   0.399227 0.844900 0.722252 -0.144414
C90   C     C_R   0.157259 0.235536 0.319330 -0.141929
C91   C     C_R   0.600729 0.155057 0.277778 -0.144344
C92   C     C_3   0.150284 0.771519 0.209199 -0.447827
C93   C     C_3   0.233001 0.780421 0.283477 -0.325387
C94   C     C_3   0.277365 0.741551 0.370126 -0.840901
C95   C     C_3   0.849739 0.228495 0.790821 -0.447826
C96   C     C_3   0.767020 0.219598 0.716533 -0.325361
C97   C     C_3   0.722665 0.258472 0.629891 -0.840902
C98   C     C_3   0.650073 0.271394 0.209006 -0.447872
C99   C     C_3   0.732805 0.280150 0.283291 -0.325734
C100  C     C_3   0.777105 0.241239 0.369891 -0.841313
C101  C     C_R   0.277813 0.885344 0.577486 -0.148696
C102  C     C_3   0.349830 0.728557 0.790911 -0.447849
C103  C     C_3   0.267108 0.719741 0.716651 -0.325510
C104  C     C_3   0.222765 0.758672 0.630040 -0.841087
C105  C     C_3   0.915391 0.878793 0.378225 -0.395660
C106  C     C_3   0.879697 0.834508 0.386315 -0.362152
C107  C     C_3   0.841222 0.766889 0.326705 -0.844617
C108  C     C_3   0.084617 0.121195 0.621803 -0.395439
C109  C     C_3   0.120482 0.165402 0.613916 -0.362311
C110  C     C_3   0.158631 0.233210 0.673192 -0.844573
C111  C     C_3   0.854841 0.024483 0.393570 -0.418959
C112  C     C_R   0.139770 0.139933 0.889817 0.789997
C113  C     C_R   0.722151 0.114620 0.422537 -0.148726
C114  C     C_3   0.796906 0.029308 0.292513 -0.341097
C115  C     C_3   0.721116 0.044814 0.238818 -0.917404
C116  C     C_3   0.145172 0.975546 0.606425 -0.419088
C117  C     C_3   0.203063 0.970395 0.707449 -0.340871
C118  C     C_3   0.278953 0.955521 0.761194 -0.917223
C119  C     C_3   0.415224 0.378929 0.378020 -0.395326
C120  C     C_3   0.379192 0.334824 0.385721 -0.362445
C121  C     C_3   0.341218 0.266905 0.326640 -0.844595
C122  C     C_3   0.584779 0.621068 0.621987 -0.395301
C123  C     C_3   0.620835 0.665163 0.614315 -0.362462
C124  C     C_R   0.342736 0.264466 0.680671 -0.141938
C125  C     C_3   0.658779 0.733098 0.673367 -0.844586
C126  C     C_3   0.354878 0.524620 0.393645 -0.419127
C127  C     C_3   0.297014 0.530064 0.292647 -0.340717
C128  C     C_3   0.221071 0.544538 0.238892 -0.917101
C129  C     C_3   0.645125 0.475381 0.606359 -0.419139
C130  C     C_3   0.702981 0.469901 0.707352 -0.340697
C131  C     C_3   0.778936 0.455493 0.761118 -0.917074
C132  C     C_R   0.657240 0.735566 0.319312 -0.141942
C133  C     C_R   0.777820 0.385350 0.577483 -0.148705
C134  C     C_R   0.222200 0.614670 0.422504 -0.148712
C135  C     C_R   0.796211 0.758131 0.590243 0.072392
C136  C     C_R   0.203796 0.241862 0.409759 0.072401
C137  C     C_R   0.263782 0.818238 0.537992 0.067192
C138  C     C_R   0.736200 0.181744 0.462020 0.067190
C139  C     C_R   0.296202 0.258138 0.590244 0.072398
C140  C     C_R   0.139738 0.860184 0.889891 0.788811
C141  C     C_R   0.703785 0.741880 0.409745 0.072390
C142  C     C_R   0.763786 0.318242 0.537991 0.067227
C143  C     C_R   0.236224 0.681768 0.462002 0.067231
C144  C     C_R   0.241655 0.203562 0.535651 0.078202
C145  C     C_R   0.758331 0.796457 0.464339 0.078249
C146  C     C_R   0.818750 0.263963 0.592495 0.066281
C147  C     C_R   0.181259 0.736046 0.407498 0.066289
C148  C     C_R   0.741664 0.703555 0.535649 0.078169
C149  C     C_R   0.258343 0.296438 0.464351 0.078172
C150  C     C_R   0.318746 0.763959 0.592497 0.066279
C151  C     C_R   0.860262 0.139816 0.110109 0.788811
C152  C     C_R   0.681239 0.236026 0.407514 0.066273
C153  C     C_R   0.804053 0.804106 0.554104 -0.155161
C154  C     C_R   0.195945 0.195896 0.445894 -0.155165
C155  C     C_R   0.195682 0.803858 0.445955 -0.158193
C156  C     C_R   0.804316 0.196140 0.554046 -0.158192
C157  C     C_R   0.304056 0.304102 0.554110 -0.155168
C158  C     C_R   0.695942 0.695902 0.445885 -0.155170
C159  C     C_R   0.695680 0.303856 0.445958 -0.158183
C160  C     C_R   0.304320 0.696144 0.554043 -0.158165
C161  C     C_R   0.757337 0.850339 0.090930 -0.144892
C162  C     C_R   0.360231 0.360066 0.110183 0.789994
C163  C     C_R   0.242641 0.149683 0.909034 -0.145016
C164  C     C_R   0.253822 0.862944 0.927942 -0.145050
C165  C     C_R   0.746177 0.137055 0.072059 -0.145042
C166  C     C_R   0.257342 0.350334 0.090938 -0.145046
C167  C     C_R   0.742670 0.649653 0.909081 -0.145068
C168  C     C_R   0.753823 0.362944 0.927945 -0.145035
C169  C     C_R   0.246179 0.637057 0.072058 -0.145037
C170  C     C_R   0.707208 0.846493 0.081387 -0.164869
C171  C     C_R   0.292758 0.153541 0.918558 -0.164922
C172  C     C_R   0.309411 0.865040 0.946630 -0.144361
C173  C     C_R   0.639770 0.639933 0.889817 0.789998
C174  C     C_R   0.690588 0.134959 0.053370 -0.144301
C175  C     C_R   0.207216 0.346486 0.081399 -0.164972
C176  C     C_R   0.792803 0.653495 0.918629 -0.164964
C177  C     C_R   0.809409 0.365038 0.946628 -0.144389
C178  C     C_R   0.190593 0.634965 0.053376 -0.144385
C179  C     C_R   0.153242 0.293033 0.027342 -0.144765
C180  C     C_R   0.846778 0.706947 0.972688 -0.144760
C181  C     C_R   0.863547 0.311528 0.000880 -0.154932
C182  C     C_R   0.136455 0.688473 0.999124 -0.154937
C183  C     C_R   0.653231 0.793043 0.027325 -0.144729
C184  C     C_R   0.639737 0.360183 0.889891 0.788807
C185  C     C_R   0.346736 0.206990 0.972622 -0.144745
C186  C     C_R   0.363554 0.811535 0.000890 -0.154939
C187  C     C_R   0.636444 0.188463 0.999108 -0.154927
C188  C     C_R   0.149104 0.243190 0.982516 -0.142263
C189  C     C_R   0.850911 0.756796 0.017506 -0.142261
C190  C     C_R   0.862079 0.255343 0.036191 -0.146297
C191  C     C_R   0.137922 0.744658 0.963812 -0.146301
C192  C     C_R   0.649094 0.743199 0.982501 -0.142230
C193  C     C_R   0.350885 0.256821 0.017466 -0.142272
C194  C     C_R   0.362085 0.755349 0.036200 -0.146292
C195  C     C_R   0.360263 0.639817 0.110109 0.788806
C196  C     C_R   0.637913 0.244649 0.963798 -0.146291
C197  C     C_R   0.199653 0.245777 0.991460 0.073124
C198  C     C_R   0.800355 0.754215 0.008551 0.073130
C199  C     C_R   0.806052 0.251993 0.018011 0.075018
C200  C     C_R   0.193948 0.748007 0.981990 0.075019
C201  C     C_R   0.699648 0.745782 0.991453 0.073115
C202  C     C_R   0.300342 0.254228 0.008531 0.073119
C203  C     C_R   0.306055 0.751996 0.018014 0.075020
C204  C     C_R   0.693944 0.248003 0.981986 0.075018
C205  C     C_R   0.139768 0.139807 0.389715 0.784783
C206  C     C_R   0.834700 0.718345 0.715473 -0.138252
C207  C     C_R   0.860232 0.860194 0.610285 0.784785
C208  C     C_R   0.860323 0.139926 0.610300 0.789157
C209  C     C_R   0.139676 0.860074 0.389700 0.789160
C210  C     C_R   0.639764 0.639811 0.389707 0.784783
C211  C     C_R   0.360234 0.360191 0.610289 0.784781
C212  C     C_R   0.360324 0.639927 0.610299 0.789144
C213  C     C_R   0.639676 0.360073 0.389701 0.789143
C214  C     C_R   0.754411 0.800130 0.046271 0.078689
C215  C     C_R   0.245578 0.199880 0.953712 0.078725
C216  C     C_R   0.251386 0.806608 0.963454 0.073679
H1    H     H_    0.049319 0.883736 0.583138 0.154977
H2    H     H_    0.394309 0.296932 0.059462 0.117555
H3    H     H_    0.638010 0.276326 0.239028 0.215048
H4    H     H_    0.632431 0.215901 0.179155 0.188841
H5    H     H_    0.239560 0.816673 0.643053 0.259933
H6    H     H_    0.230822 0.730982 0.600254 0.271319
H7    H     H_    0.163688 0.756756 0.580807 0.248230
H8    H     H_    0.252135 0.660789 0.701263 0.239178
H9    H     H_    0.252052 0.742478 0.740085 0.217081
H10   H     H_    0.367436 0.784063 0.820725 0.188896
H11   H     H_    0.361881 0.723632 0.760877 0.215020
H12   H     H_    0.797724 0.783072 0.255225 0.266505
H13   H     H_    0.405419 0.714981 0.078132 0.108652
H14   H     H_    0.881101 0.730506 0.346907 0.266859
H15   H     H_    0.815629 0.736195 0.333625 0.257385
H16   H     H_    0.921948 0.816930 0.457166 0.236155
H17   H     H_    0.838641 0.868468 0.365608 0.223248
H18   H     H_    0.873278 0.897923 0.308005 0.183940
H19   H     H_    0.954230 0.843021 0.395805 0.225415
H20   H     H_    0.118511 0.269596 0.652498 0.266776
H21   H     H_    0.201942 0.217263 0.744698 0.266692
H22   H     H_    0.184412 0.263810 0.666489 0.257359
H23   H     H_    0.161778 0.131464 0.635089 0.223241
H24   H     H_    0.594579 0.285017 0.921865 0.108654
H25   H     H_    0.078385 0.182749 0.543034 0.236269
H26   H     H_    0.045736 0.157012 0.604103 0.225445
H27   H     H_    0.126644 0.102075 0.692006 0.183869
H28   H     H_    0.706167 0.002706 0.253192 0.256999
H29   H     H_    0.719723 0.099575 0.255608 0.270036
H30   H     H_    0.679951 0.043818 0.165882 0.242191
H31   H     H_    0.811433 0.073483 0.279120 0.221133
H32   H     H_    0.794262 0.976975 0.268472 0.216430
H33   H     H_    0.840321 0.980858 0.407307 0.178879
H34   H     H_    0.856545 0.077162 0.416611 0.207629
H35   H     H_    0.930782 0.121901 0.025354 0.144810
H36   H     H_    0.280549 0.901141 0.744053 0.269869
H37   H     H_    0.293863 0.998243 0.747225 0.256798
H38   H     H_    0.320032 0.956004 0.834109 0.242207
H39   H     H_    0.205443 0.022433 0.731601 0.216323
H40   H     H_    0.188677 0.925775 0.720662 0.221137
H41   H     H_    0.143437 0.922993 0.583199 0.207358
H42   H     H_    0.159748 0.019314 0.592872 0.179125
H43   H     H_    0.298057 0.282710 0.255130 0.266824
H44   H     H_    0.381481 0.230478 0.347661 0.266723
H45   H     H_    0.315278 0.236406 0.333166 0.257339
H46   H     H_    0.069218 0.878099 0.974645 0.144808
H47   H     H_    0.421158 0.317613 0.456609 0.236337
H48   H     H_    0.337754 0.368790 0.364235 0.223211
H49   H     H_    0.373280 0.398093 0.307853 0.183751
H50   H     H_    0.454087 0.343031 0.395753 0.225489
H51   H     H_    0.618494 0.769528 0.652297 0.266712
H52   H     H_    0.701917 0.717313 0.744878 0.266843
H53   H     H_    0.684744 0.763586 0.666871 0.257335
H54   H     H_    0.662297 0.631198 0.635848 0.223217
H55   H     H_    0.578888 0.682354 0.543426 0.236347
H56   H     H_    0.545912 0.656972 0.604241 0.225490
H57   H     H_    0.430827 0.621927 0.025399 0.144770
H58   H     H_    0.626712 0.601903 0.692151 0.183746
H59   H     H_    0.206171 0.501395 0.252556 0.256663
H60   H     H_    0.219373 0.598642 0.256321 0.269807
H61   H     H_    0.180041 0.544447 0.165991 0.242214
H62   H     H_    0.311330 0.574996 0.279602 0.221172
H63   H     H_    0.294774 0.478250 0.268360 0.216261
H64   H     H_    0.340217 0.480770 0.407026 0.179289
H65   H     H_    0.356700 0.577083 0.417065 0.207208
H66   H     H_    0.780656 0.401432 0.743650 0.269800
H67   H     H_    0.793837 0.498701 0.747504 0.256644
H68   H     H_    0.569173 0.378075 0.974605 0.144782
H69   H     H_    0.819954 0.455525 0.834015 0.242212
H70   H     H_    0.705193 0.521681 0.731651 0.216253
H71   H     H_    0.688677 0.424922 0.720373 0.221171
H72   H     H_    0.643300 0.422933 0.582919 0.207182
H73   H     H_    0.659795 0.519246 0.593001 0.179317
H74   H     H_    0.865521 0.214903 0.911791 0.143704
H75   H     H_    0.134489 0.785105 0.088218 0.143706
H76   H     H_    0.365608 0.714958 0.911876 0.143679
H77   H     H_    0.950702 0.116259 0.416885 0.155125
H78   H     H_    0.634352 0.285019 0.088093 0.143677
H79   H     H_    0.931598 0.119634 0.834779 0.137050
H80   H     H_    0.068414 0.880371 0.165231 0.137055
H81   H     H_    0.431629 0.619650 0.834809 0.137021
H82   H     H_    0.568323 0.380338 0.165146 0.136989
H83   H     H_    0.129401 0.275962 0.215380 0.131582
H84   H     H_    0.870625 0.724008 0.784631 0.131578
H85   H     H_    0.645384 0.050421 0.302068 0.136027
H86   H     H_    0.354553 0.949515 0.697973 0.136141
H87   H     H_    0.629365 0.776016 0.215355 0.131590
H88   H     H_    0.549126 0.383649 0.582929 0.155038
H89   H     H_    0.370585 0.224048 0.784615 0.131590
H90   H     H_    0.145471 0.550510 0.302010 0.136213
H91   H     H_    0.854565 0.449526 0.697967 0.136231
H92   H     H_    0.194995 0.113429 0.534456 0.121520
H93   H     H_    0.804976 0.886609 0.465531 0.121480
H94   H     H_    0.930344 0.238418 0.729560 0.118883
H95   H     H_    0.069671 0.761598 0.270429 0.118869
H96   H     H_    0.695015 0.613410 0.534459 0.121528
H97   H     H_    0.304996 0.386577 0.465541 0.121529
H98   H     H_    0.430337 0.738411 0.729564 0.118873
H99   H     H_    0.450877 0.616351 0.417075 0.155056
H100  H     H_    0.569640 0.261566 0.270452 0.118891
H101  H     H_    0.275181 0.128646 0.689131 0.126925
H102  H     H_    0.724762 0.871430 0.310838 0.127207
H103  H     H_    0.951220 0.354877 0.793152 0.135143
H104  H     H_    0.048812 0.645155 0.206826 0.135133
H105  H     H_    0.775224 0.628607 0.689146 0.126690
H106  H     H_    0.224797 0.371368 0.310860 0.126722
H107  H     H_    0.451208 0.854866 0.793159 0.135118
H108  H     H_    0.548739 0.145081 0.206877 0.135122
H109  H     H_    0.886138 0.804545 0.725703 0.125240
H110  H     H_    0.105682 0.203077 0.940523 0.117555
H111  H     H_    0.113878 0.195438 0.274304 0.125252
H112  H     H_    0.237023 0.928216 0.538726 0.121487
H113  H     H_    0.762938 0.071743 0.461297 0.121510
H114  H     H_    0.386118 0.304563 0.725698 0.125245
H115  H     H_    0.613861 0.695465 0.274287 0.125218
H116  H     H_    0.737030 0.428223 0.538724 0.121498
H117  H     H_    0.262992 0.571799 0.461264 0.121479
H118  H     H_    0.885811 0.709670 0.980229 0.129778
H119  H     H_    0.114213 0.290305 0.019808 0.129780
H120  H     H_    0.093051 0.686403 0.984206 0.126502
H121  H     H_    0.894333 0.796908 0.059500 0.117546
H122  H     H_    0.906951 0.313600 0.015799 0.126501
H123  H     H_    0.385759 0.209723 0.980147 0.129769
H124  H     H_    0.614199 0.790319 0.019786 0.129734
H125  H     H_    0.593036 0.186387 0.984180 0.126494
H126  H     H_    0.406962 0.813611 0.015817 0.126493
H127  H     H_    0.797940 0.893272 0.133168 0.116121
H128  H     H_    0.202037 0.106751 0.866795 0.116134
H129  H     H_    0.213158 0.906037 0.885848 0.113481
H130  H     H_    0.786842 0.093964 0.114154 0.113465
H131  H     H_    0.297944 0.393268 0.133174 0.116125
H132  H     H_    0.905410 0.214972 0.078118 0.108658
H133  H     H_    0.702067 0.606719 0.866844 0.116118
H134  H     H_    0.713161 0.406039 0.885855 0.113492
H135  H     H_    0.286840 0.593962 0.114148 0.113492
H136  H     H_    0.710222 0.885252 0.115997 0.128226
H137  H     H_    0.289732 0.114793 0.883930 0.128421
H138  H     H_    0.310627 0.908568 0.919222 0.130805
H139  H     H_    0.689373 0.091432 0.080780 0.130871
H140  H     H_    0.210234 0.385243 0.116014 0.128551
H141  H     H_    0.789788 0.614735 0.884020 0.128573
H142  H     H_    0.810626 0.408568 0.919223 0.130736
H143  H     H_    0.094591 0.785029 0.921884 0.108657
H144  H     H_    0.189377 0.591435 0.080783 0.130745
H145  H     H_    0.269236 0.769224 0.399839 0.271269
H146  H     H_    0.260654 0.683526 0.357185 0.259853
H147  H     H_    0.336447 0.743555 0.419388 0.248228
H148  H     H_    0.248102 0.757690 0.260095 0.217116
H149  H     H_    0.247910 0.839389 0.298798 0.239134
H150  H     H_    0.138205 0.776417 0.239205 0.214999
H151  H     H_    0.132738 0.716001 0.179432 0.188920
H152  H     H_    0.739384 0.316495 0.642838 0.259841
H153  H     H_    0.730795 0.230797 0.600180 0.271265
H154  H     H_    0.605671 0.703087 0.940506 0.117538
H155  H     H_    0.663582 0.256476 0.580623 0.248230
H156  H     H_    0.752107 0.160631 0.701206 0.239128
H157  H     H_    0.751914 0.242328 0.739909 0.217118
H158  H     H_    0.867286 0.284011 0.820594 0.188921
H159  H     H_    0.861826 0.223603 0.760823 0.214980
H160  H     H_    0.769086 0.269009 0.399689 0.271371
H161  H     H_    0.760237 0.183265 0.356862 0.260084
H162  H     H_    0.836183 0.243064 0.419121 0.248256
H163  H     H_    0.747863 0.257362 0.259875 0.217027
H164  H     H_    0.747815 0.339093 0.298687 0.239261
O1    O     O_3   0.999990 0.000000 0.249990 -0.485909
O2    O     O_R   0.585440 0.646160 0.804690 -0.640721
O3    O     O_R   0.585440 0.353840 0.804690 -0.635592
O4    O     O_R   0.414560 0.646160 0.195310 -0.635591
O5    O     O_R   0.085440 0.146150 0.366190 -0.637349
O6    O     O_R   0.914560 0.853850 0.633810 -0.637340
O7    O     O_R   0.914560 0.146150 0.633810 -0.637329
O8    O     O_R   0.085440 0.853850 0.366190 -0.637345
O9    O     O_R   0.585440 0.646150 0.366190 -0.637354
O10   O     O_R   0.414560 0.353850 0.633810 -0.637353
O11   O     O_R   0.414560 0.646150 0.633810 -0.637355
O12   O     O_3   0.000010 0.000000 0.750010 -0.485910
O13   O     O_R   0.585440 0.353850 0.366190 -0.637362
O14   O     O_R   0.853820 0.085430 0.073070 -0.636891
O15   O     O_R   0.146180 0.914570 0.926930 -0.636887
O16   O     O_R   0.146180 0.085430 0.926930 -0.632334
O17   O     O_R   0.853820 0.914570 0.073070 -0.632333
O18   O     O_R   0.353820 0.585430 0.073070 -0.636878
O19   O     O_R   0.646180 0.414570 0.926930 -0.636874
O20   O     O_R   0.646180 0.585430 0.926930 -0.632329
O21   O     O_R   0.353820 0.414570 0.073070 -0.632331
O22   O     O_R   0.146150 0.914540 0.365390 -0.638034
O23   O     O_3   0.499990 0.500000 0.249990 -0.485913
O24   O     O_R   0.853850 0.085460 0.634610 -0.638049
O25   O     O_R   0.853850 0.914540 0.634610 -0.636026
O26   O     O_R   0.146150 0.085460 0.365390 -0.636019
O27   O     O_R   0.646150 0.414540 0.365390 -0.638007
O28   O     O_R   0.353850 0.585460 0.634610 -0.638012
O29   O     O_R   0.353850 0.414540 0.634610 -0.636012
O30   O     O_R   0.646150 0.585460 0.365390 -0.636010
O31   O     O_R   0.939240 0.000000 0.071950 -0.643124
O32   O     O_R   0.060760 0.000000 0.928050 -0.643126
O33   O     O_R   0.439240 0.500000 0.071950 -0.643120
O34   O     O_3   0.500010 0.500000 0.750010 -0.485912
O35   O     O_R   0.560760 0.500000 0.928050 -0.643112
O36   O     O_R   0.000020 0.939290 0.367320 -0.653931
O37   O     O_R   0.999980 0.060710 0.632680 -0.653915
O38   O     O_R   0.999980 0.939290 0.632680 -0.643719
O39   O     O_R   0.000020 0.060710 0.367320 -0.643729
O40   O     O_R   0.500020 0.439290 0.367320 -0.653913
O41   O     O_R   0.499980 0.560710 0.632680 -0.653912
O42   O     O_R   0.499980 0.439290 0.632680 -0.643738
O43   O     O_R   0.500020 0.560710 0.367320 -0.643736
O44   O     O_R   0.060680 0.000000 0.193390 -0.644300
O45   O     O_R   0.914560 0.853840 0.195310 -0.640721
O46   O     O_R   0.939320 0.000000 0.806610 -0.644293
O47   O     O_R   0.560680 0.500000 0.193390 -0.644276
O48   O     O_R   0.439320 0.500000 0.806610 -0.644291
O49   O     O_R   0.085440 0.146160 0.804690 -0.640725
O50   O     O_R   0.085440 0.853840 0.804690 -0.635591
O51   O     O_R   0.914560 0.146160 0.195310 -0.635578
O52   O     O_R   0.414560 0.353840 0.195310 -0.640724
Zn1   Zn    Zn3+2 0.000000 0.086750 0.293940 0.951365
Zn2   Zn    Zn3+2 0.086780 0.000000 0.880710 0.958871
Zn3   Zn    Zn3+2 0.413220 0.500000 0.119290 0.958880
Zn4   Zn    Zn3+2 0.586780 0.500000 0.880710 0.958890
Zn5   Zn    Zn3+2 0.086730 0.000000 0.292800 0.953816
Zn6   Zn    Zn3+2 0.913270 0.000000 0.707200 0.953808
Zn7   Zn    Zn3+2 0.586730 0.500000 0.292800 0.953845
Zn8   Zn    Zn3+2 0.413270 0.500000 0.707200 0.953836
Zn9   Zn    Zn3+2 0.000000 0.913250 0.706060 0.951353
Zn10  Zn    Zn3+2 0.000000 0.086750 0.706060 0.943776
Zn11  Zn    Zn3+2 0.000000 0.913250 0.293940 0.943773
Zn12  Zn    Zn3+2 0.500000 0.586750 0.293940 0.951353
Zn13  Zn    Zn3+2 0.500000 0.413250 0.706060 0.951351
Zn14  Zn    Zn3+2 0.500000 0.586750 0.706060 0.943768
Zn15  Zn    Zn3+2 0.500000 0.413250 0.293940 0.943762
Zn16  Zn    Zn3+2 0.913220 1.000000 0.119290 0.958874

loop_
_geom_bond_atom_site_label_1
_geom_bond_atom_site_label_2
_ccdc_geom_bond_type
C21   C26   A    
C126  C127  S    
C106  H17   S    
C107  H15   S    
O12   Zn9   S    
C142  C146  A    
C74   C83   A    
C133  H116  S    
C114  C115  S    
C110  H21   S    
O3    Zn13  S    
C35   C124  A    
C18   H46   S    
C98   H4    S    
C122  H58   S    
C59   C66   S    
C117  H40   S    
C106  C107  S    
C58   C60   S    
C119  H49   S    
C29   C33   A    
C108  C109  S    
C17   C39   A    
C104  H6    S    
C2    C90   A    
C18   C40   A    
C209  O8    A    
C62   C64   S    
C134  C143  A    
C40   C43   A    
C124  H114  S    
O39   Zn1   S    
C59   C111  S    
C196  C204  A    
C147  C155  A    
C128  H61   S    
O35   Zn4   S    
C104  H7    S    
C78   C148  A    
C11   C216  A    
C7    C15   A    
C76   C146  A    
C80   C88   A    
C3    C204  A    
C105  H19   S    
C57   C133  A    
C165  H130  S    
O8    Zn11  S    
C190  C199  A    
C109  H23   S    
C25   C29   A    
O6    Zn9   S    
C1    O17   A    
C171  C185  A    
O1    Zn5   S    
C89   H107  S    
C213  O13   A    
C28   C32   A    
C5    C12   A    
C172  C186  A    
C131  H69   S    
C101  C137  A    
C58   C70   S    
C179  C188  A    
C172  H138  S    
C83   H101  S    
C17   C21   A    
C82   C91   A    
C99   H164  S    
C42   C45   A    
C19   C23   A    
C11   C140  S    
C185  H123  S    
C211  O29   A    
C10   C151  S    
C181  C190  A    
C15   C203  A    
C114  H31   S    
O19   Zn4   S    
C91   H108  S    
C178  C182  A    
C46   C84   A    
C24   H85   S    
C123  H54   S    
C60   C65   S    
C22   C27   A    
C9    C214  A    
C36   C44   A    
C37   C45   A    
C31   H80   S    
C87   H105  S    
C105  C106  S    
C97   H153  S    
C177  H142  S    
C4    C166  A    
O4    Zn12  S    
C195  O18   A    
O14   Zn16  S    
C20   C42   A    
C16   C184  S    
C100  H160  S    
C103  H9    S    
C151  O14   A    
C33   C38   A    
C55   O42   A    
C56   C59   S    
C173  O2    A    
C130  C131  S    
O50   Zn9   S    
C65   H1    S    
O5    Zn1   S    
C57   C85   A    
O1    Zn16  S    
C51   O35   A    
C50   O33   A    
C144  C154  A    
C156  C208  S    
C162  O21   A    
C201  C214  A    
C151  O51   A    
C121  H44   S    
C6    C16   A    
C81   H98   S    
C139  C157  A    
O24   Zn6   S    
C98   C99   S    
C125  H53   S    
C31   C36   A    
C211  O10   A    
C21   H74   S    
C16   C204  A    
O34   Zn8   S    
C76   C85   A    
C116  H41   S    
C44   C48   S    
C78   C87   A    
O12   Zn2   S    
C124  C139  A    
C2    H83   S    
C207  O25   A    
C10   C199  A    
C131  H67   S    
C143  C160  A    
O51   Zn1   S    
C189  H121  S    
C133  C142  A    
C176  H141  S    
C68   H90   S    
C180  C189  A    
C46   C132  A    
C6    C199  A    
C75   C84   A    
C55   O41   A    
C65   C70   S    
C126  H65   S    
C137  C155  A    
C57   H91   S    
C67   C72   S    
C61   C67   S    
C11   C200  A    
C94   H146  S    
O13   Zn15  S    
C207  O6    A    
C63   C69   S    
C174  H139  S    
C115  H30   S    
C140  O15   A    
C95   H158  S    
C125  H51   S    
C4    C14   A    
C53   O37   A    
O32   Zn2   S    
C212  O28   A    
C1    O45   A    
O26   Zn5   S    
C100  H162  S    
C80   C149  A    
C94   H147  S    
C6    C168  A    
O49   Zn10  S    
C30   C34   A    
C34   C39   A    
C191  C200  A    
O45   Zn11  S    
C140  O50   A    
O34   Zn13  S    
C132  H115  S    
C54   O40   A    
C165  C174  A    
C23   C28   A    
C128  H59   S    
C84   H102  S    
O37   Zn10  S    
C118  H37   S    
C174  C187  A    
C85   H103  S    
O48   Zn8   S    
C49   O32   A    
C86   H104  S    
C120  H47   S    
O21   Zn3   S    
C210  O9    A    
C41   C47   A    
C32   C37   A    
C178  H144  S    
C22   H75   S    
C76   H94   S    
C186  H126  S    
C77   H95   S    
C157  C211  S    
C182  H120  S    
O1    Zn1   S    
C13   H86   S    
C180  H118  S    
C137  C150  A    
C60   C116  S    
C162  O52   A    
O12   Zn6   S    
C208  O24   A    
C74   H92   S    
C120  C121  S    
C3    C165  A    
C191  H143  S    
C129  C130  S    
O23   Zn7   S    
C132  C141  A    
C77   C147  A    
C51   O48   A    
O22   Zn5   S    
O12   Zn10  S    
C18   C22   A    
C166  H131  S    
C186  C194  A    
C34   C43   A    
C187  H125  S    
C26   C30   A    
C39   C44   A    
C141  C145  A    
C78   H96   S    
C112  O49   A    
C127  H62   S    
C15   C195  S    
C93   H148  S    
O15   Zn2   S    
C117  C118  S    
C117  H39   S    
C177  C181  A    
C14   C202  A    
C108  H27   S    
C37   C41   A    
C102  C103  S    
C154  C205  S    
C164  C172  A    
C115  H28   S    
C75   H93   S    
O7    Zn10  S    
C171  H137  S    
C176  C180  A    
C192  H154  S    
O44   Zn5   S    
C127  H63   S    
C168  H134  S    
C161  C214  A    
C159  C213  S    
C187  C196  A    
C105  H18   S    
C69   H99   S    
C48   O44   A    
C62   C122  S    
C142  C159  A    
C183  C192  A    
C136  C149  A    
C161  H127  S    
C195  O4    A    
C164  C216  A    
C111  H34   S    
C166  C175  A    
C150  C160  A    
C29   C98   S    
C8    C112  S    
C170  C183  A    
C179  H119  S    
C123  C125  S    
C20   C25   A    
C123  H55   S    
C168  C177  A    
C102  H10   S    
C99   H163  S    
O33   Zn3   S    
C7    C200  A    
O34   Zn4   S    
O9    Zn12  S    
C183  H124  S    
C153  C207  S    
C163  C215  A    
C114  H32   S    
O20   Zn4   S    
C30   H79   S    
O16   Zn2   S    
C192  C201  A    
C213  O27   A    
C92   H151  S    
C69   C73   S    
C79   H109  S    
C202  C215  A    
O40   Zn15  S    
C163  C171  A    
C122  H56   S    
C81   C89   A    
C101  H112  S    
C205  O5    A    
C98   H3    S    
O46   Zn6   S    
C194  H13   S    
C170  H136  S    
C53   C70   S    
C110  H20   S    
C52   O39   A    
C203  C216  A    
C1    C9    S    
C35   C83   A    
C167  H133  S    
O52   Zn15  S    
C60   C71   S    
C61   C73   S    
C119  H50   S    
C27   C31   A    
C17   H35   S    
C193  C202  A    
C62   C69   S    
C190  H132  S    
C205  O26   A    
C52   O36   A    
C80   H97   S    
C87   C206  A    
C103  H8    S    
C54   C73   S    
C136  C154  A    
C66   C71   S    
O29   Zn8   S    
C109  H25   S    
C54   O43   A    
C56   C71   S    
O30   Zn7   S    
C110  H22   S    
O41   Zn14  S    
C50   O47   A    
C121  H43   S    
C33   H82   S    
C7    C169  A    
O25   Zn6   S    
C182  C191  A    
C127  C128  S    
C210  O30   A    
C88   H106  S    
C116  H42   S    
C209  O22   A    
O47   Zn7   S    
C74   C144  A    
C130  H71   S    
C35   H89   S    
O38   Zn9   S    
C119  C120  S    
C212  O11   A    
O27   Zn7   S    
O23   Zn12  S    
C97   H155  S    
C79   C135  A    
C163  H128  S    
C188  H110  S    
C67   H88   S    
C138  C152  A    
C68   C134  A    
C52   C71   S    
C109  C110  S    
C188  C197  A    
O43   Zn12  S    
C155  C209  S    
C92   C93   S    
C111  C114  S    
C58   C108  S    
C56   C105  S    
C63   C126  S    
O28   Zn8   S    
C59   C70   S    
O23   Zn3   S    
C141  C158  A    
C63   C72   S    
C107  H14   S    
C108  H26   S    
C103  C104  S    
C97   H152  S    
C113  C138  A    
C20   H68   S    
O36   Zn11  S    
C149  C157  A    
C82   C152  A    
C19   C41   A    
C12   C173  S    
C115  H29   S    
C189  C198  A    
C158  C210  S    
C173  O20   A    
C14   C162  S    
C93   C94   S    
C25   H78   S    
C61   C119  S    
C68   C86   A    
C95   C96   S    
C47   C50   S    
C8    C215  A    
C206  H84   S    
O11   Zn14  S    
C208  O7    A    
C75   C145  A    
C143  C147  A    
C169  H135  S    
O10   Zn13  S    
C48   O31   A    
C38   C42   A    
O34   Zn14  S    
C45   C51   S    
C43   C49   S    
C56   C65   S    
C116  C117  S    
O2    Zn14  S    
C128  H60   S    
C90   H111  S    
C118  H38   S    
C121  H45   S    
C46   H87   S    
C58   C66   S    
O18   Zn3   S    
C82   H100  S    
C120  H48   S    
C164  H129  S    
C2    C88   A    
C55   C72   S    
C145  C153  A    
C129  H73   S    
C24   C113  A    
C92   H150  S    
C8    C197  A    
O17   Zn16  S    
C193  H2    S    
C160  C212  S    
C64   C67   S    
C36   C40   A    
C23   H76   S    
C184  O3    A    
O23   Zn15  S    
C96   H156  S    
C175  C179  A    
C169  C178  A    
C66   H77   S    
C126  H64   S    
C93   H149  S    
C94   H145  S    
C113  H113  S    
C90   C136  A    
C139  C144  A    
C112  O16   A    
C99   C100  S    
C64   C73   S    
C96   C97   S    
C61   C63   S    
C62   C72   S    
C27   C92   S    
C148  C158  A    
C12   C201  A    
C38   C47   A    
C161  C170  A    
C4    C197  A    
C77   C86   A    
C125  H52   S    
C49   O46   A    
C53   O38   A    
C81   C150  A    
C13   C101  A    
C24   C91   A    
C104  H5    S    
C9    C198  A    
C100  H161  S    
C196  H24   S    
C138  C156  A    
C26   C95   S    
C134  H117  S    
C13   C89   A    
C129  H72   S    
C175  H140  S    
C185  C193  A    
C181  H122  S    
C32   H81   S    
C107  H12   S    
C5    C198  A    
C111  H33   S    
C79   C206  A    
C135  C153  A    
O1    Zn11  S    
O42   Zn13  S    
C95   H159  S    
C3    C10   A    
C118  H36   S    
C19   H57   S    
C194  C203  A    
C102  H11   S    
C106  H16   S    
C130  H70   S    
C5    C167  A    
C152  C159  A    
O31   Zn16  S    
C28   C102  S    
C96   H157  S    
C146  C156  A    
C64   C129  S    
C135  C148  A    
C122  C123  S    
C184  O19   A    
C131  H66   S    
C167  C176  A    
