data_mof_unit_19015.cif
_audit_creation_date              2012-10-26T19:45:14-0400
_audit_creation_method            fapswitch 2.2
_symmetry_space_group_name_H-M    P1
_symmetry_Int_Tables_number       1
_space_group_crystal_system       triclinic
_cell_length_a                    9.7527
_cell_length_b                    10.940313
_cell_length_c                    14.027809
_cell_angle_alpha                 92.349744
_cell_angle_beta                  85.893999
_cell_angle_gamma                 88.067828
_cell_volume                      1490.6273715

loop_
_atom_site_label
_atom_site_type_symbol
_atom_type_description
_atom_site_fract_x
_atom_site_fract_y
_atom_site_fract_z
_atom_type_partial_charge
C1    C     C_R   0.498130 0.737174 0.494167 0.538566
C2    C     C_R   0.937458 0.448944 0.424134 0.050111
C3    C     C_1   0.530187 0.507137 0.215181 0.007794
C4    C     C_1   0.468275 0.514520 0.784078 0.010108
C5    C     C_2   0.551385 0.507367 0.025222 -0.019309
C6    C     C_2   0.449944 0.548531 0.972584 -0.017995
C7    C     C_1   0.460134 0.529506 0.869738 -0.037214
C8    C     C_1   0.537856 0.509825 0.128941 -0.045756
C9    C     C_R   0.617836 0.933249 0.474139 -0.030560
C10   C     C_R   0.376645 0.068934 0.530974 -0.025222
C11   C     C_R   0.622911 0.056919 0.500982 0.172086
C12   C     C_R   0.500937 0.263229 0.507583 0.572224
C13   C     C_R   0.371500 0.943181 0.511999 0.196232
C14   C     C_R   0.081413 0.675671 0.640715 0.083870
C15   C     C_R   0.204410 0.714223 0.679172 -0.013440
C16   C     C_R   0.206196 0.805622 0.751888 -0.112267
C17   C     C_R   0.085938 0.868038 0.786659 -0.086520
C18   C     C_R   0.964528 0.842848 0.745814 -0.074436
C19   C     C_R   0.962539 0.750637 0.674169 -0.054123
C20   C     C_R   0.881943 0.384425 0.342037 0.111636
C21   C     C_R   0.841967 0.263306 0.349005 -0.038333
C22   C     C_R   0.807995 0.195322 0.268203 -0.102957
C23   C     C_R   0.501239 0.128568 0.516091 -0.016153
C24   C     C_R   0.820754 0.246353 0.178660 -0.102620
C25   C     C_R   0.867167 0.365207 0.170679 -0.106856
C26   C     C_R   0.896496 0.434017 0.251713 -0.045515
C27   C     C_R   0.334035 0.627846 0.013759 0.044312
C28   C     C_R   0.345347 0.755370 0.012092 -0.094813
C29   C     C_R   0.230738 0.832869 0.037417 -0.106268
C30   C     C_R   0.104390 0.783418 0.064091 -0.108097
C31   C     C_R   0.093321 0.656525 0.067363 -0.132950
C32   C     C_R   0.207663 0.578491 0.042050 -0.079485
C33   C     C_R   0.686269 0.466843 0.978471 0.045067
C34   C     C_R   0.493827 0.872383 0.489197 -0.022614
C35   C     C_R   0.781921 0.554995 0.953025 -0.075864
C36   C     C_R   0.913958 0.518562 0.915529 -0.062981
C37   C     C_R   0.951772 0.394409 0.904847 -0.088216
C38   C     C_R   0.854944 0.305989 0.926238 -0.120128
C39   C     C_R   0.721544 0.342114 0.962149 -0.082046
C40   C     C_R   0.732438 0.876188 0.411420 0.067685
C41   C     C_R   0.714120 0.853250 0.313870 -0.107809
C42   C     C_R   0.819648 0.795888 0.253971 -0.126088
C43   C     C_R   0.941819 0.758166 0.291998 -0.112786
C44   C     C_R   0.957443 0.775073 0.389210 -0.070702
C45   C     C_R   0.478725 0.501152 0.682013 0.532130
C46   C     C_R   0.855704 0.838491 0.448311 -0.004382
C47   C     C_R   0.259719 0.129441 0.588504 0.095933
C48   C     C_R   0.147062 0.177761 0.544580 0.004396
C49   C     C_R   0.035315 0.230344 0.600382 -0.034099
C50   C     C_R   0.029222 0.224070 0.699536 -0.049608
C51   C     C_R   0.140236 0.173724 0.743978 -0.130164
C52   C     C_R   0.256647 0.128334 0.688596 -0.077558
C53   C     C_R   0.521118 0.502048 0.317775 0.558688
C54   C     C_R   0.919285 0.529609 0.579244 0.277682
C55   C     C_R   0.084584 0.441206 0.427707 0.281967
C56   C     C_R   0.058794 0.562766 0.571745 0.098746
Cl1   Cl    Cl    0.852718 0.497143 0.694951 -0.646373
Cl2   Cl    Cl    0.183436 0.350929 0.338570 -0.620654
Cl3   Cl    Cl    0.765346 0.099874 0.561341 -0.692633
Cl4   Cl    Cl    0.207294 0.883610 0.506945 -0.663711
Cu1   Cu    Cu3+1 0.359340 0.499980 0.500000 1.030530
Cu2   Cu    Cu3+1 0.640660 0.500020 0.500000 1.019178
H1    H     H_    0.303448 0.687558 0.652493 0.178780
H2    H     H_    0.936589 0.523473 0.243448 0.102051
H3    H     H_    0.441970 0.794421 0.988532 0.096940
H4    H     H_    0.239327 0.931054 0.034830 0.109790
H5    H     H_    0.015220 0.843492 0.082363 0.107120
H6    H     H_    0.995357 0.618677 0.088487 0.093739
H7    H     H_    0.196837 0.480284 0.041925 0.120326
H8    H     H_    0.754885 0.651683 0.963801 0.095772
H9    H     H_    0.987395 0.586570 0.895298 0.142601
H10   H     H_    0.055804 0.367441 0.879001 0.113169
H11   H     H_    0.883940 0.209668 0.916679 0.094052
H12   H     H_    0.302833 0.830479 0.779545 0.097303
H13   H     H_    0.647866 0.273451 0.980495 0.105219
H14   H     H_    0.618649 0.880618 0.284343 0.104889
H15   H     H_    0.805927 0.779328 0.178707 0.096014
H16   H     H_    0.024480 0.713381 0.247479 0.131441
H17   H     H_    0.048221 0.737212 0.418084 0.179554
H18   H     H_    0.871258 0.856182 0.522627 0.171123
H19   H     H_    0.145908 0.173614 0.467624 0.182420
H20   H     H_    0.951107 0.272433 0.566566 0.178970
H21   H     H_    0.937193 0.256616 0.741054 0.188260
H22   H     H_    0.135668 0.168198 0.820931 0.086329
H23   H     H_    0.087728 0.938524 0.842919 0.099526
H24   H     H_    0.342086 0.088255 0.723244 0.106847
H25   H     H_    0.870775 0.894199 0.770054 0.124319
H26   H     H_    0.862982 0.737024 0.647153 0.136104
H27   H     H_    0.844125 0.220221 0.415897 0.178699
H28   H     H_    0.776723 0.101950 0.274545 0.123957
H29   H     H_    0.798641 0.192507 0.115608 0.104145
H30   H     H_    0.884646 0.404205 0.102123 0.124855
N1    N     N_R   0.147930 0.499970 0.499980 -0.244272
N2    N     N_R   0.852070 0.500030 0.500020 -0.259717
O1    O     O_R   0.381260 0.680340 0.500000 -0.477479
O2    O     O_R   0.618740 0.319660 0.500000 -0.463750
O3    O     O_R   0.618830 0.680370 0.500010 -0.511441
O4    O     O_R   0.381170 0.319630 0.499990 -0.475577
O5    O     O_R   0.364420 0.499960 0.637840 -0.546083
O6    O     O_R   0.635580 0.500040 0.362160 -0.515491
O7    O     O_R   0.601990 0.499990 0.637850 -0.413703
O8    O     O_R   0.398010 0.500010 0.362150 -0.426440

loop_
_geom_bond_atom_site_label_1
_geom_bond_atom_site_label_2
_ccdc_geom_bond_type
C14   C56   S    
Cu2   O2    S    
C41   C42   A    
Cu1   O4    S    
C55   N1    A    
C13   Cl4   S    
C21   H27   S    
C43   H16   S    
C40   C46   A    
C12   C23   S    
C37   C38   A    
C16   H12   S    
C28   C29   A    
C2    C55   A    
C5    C6    D    
C31   C32   A    
Cu1   N1    S    
C15   C16   A    
C48   H19   S    
C18   C19   A    
C26   H2    S    
C47   C48   A    
C35   H8    S    
C16   C17   A    
C5    C33   S    
C1    C34   S    
C39   H13   S    
C12   O4    A    
C30   H5    S    
C36   H9    S    
Cu2   O7    S    
C21   C22   A    
Cu1   O5    S    
C4    C7    T    
C11   Cl3   S    
C44   C46   A    
C50   H21   S    
C50   C51   A    
C4    C45   S    
C53   O6    A    
C56   N1    A    
C54   C56   A    
C2    C20   S    
C51   C52   A    
C2    N2    A    
C24   C25   A    
C19   H26   S    
C45   O5    A    
C1    O3    A    
C25   C26   A    
C9    C40   S    
C35   C36   A    
C49   H20   S    
C43   C44   A    
C29   C30   A    
Cu2   O3    S    
C6    C27   S    
C53   O8    A    
C1    O1    A    
C17   C18   A    
C22   H28   S    
C33   C39   A    
C9    C11   A    
C6    C7    S    
C45   O7    A    
Cu2   O6    S    
C40   C41   A    
C3    C8    T    
Cu2   N2    S    
C9    C34   A    
C17   H23   S    
C37   H10   S    
C42   C43   A    
C24   H29   S    
C10   C47   S    
C48   C49   A    
C25   H30   S    
C27   C32   A    
C32   H7    S    
C14   C19   A    
C44   H17   S    
C10   C13   A    
C5    C8    S    
Cu1   O1    S    
C47   C52   A    
C10   C23   A    
C31   H6    S    
C18   H25   S    
C52   H24   S    
C28   H3    S    
C13   C34   A    
C41   H14   S    
C46   H18   S    
C3    C53   S    
C30   C31   A    
C38   C39   A    
C20   C26   A    
C11   C23   A    
C33   C35   A    
Cu1   O8    S    
C22   C24   A    
Cu1   Cu2   S    
C54   N2    A    
C29   H4    S    
C20   C21   A    
C42   H15   S    
C36   C37   A    
C49   C50   A    
C55   Cl2   S    
C27   C28   A    
C15   H1    S    
C14   C15   A    
C12   O2    A    
C51   H22   S    
C54   Cl1   S    
C38   H11   S    
