data_mof_unit_66485.cif
_audit_creation_date              2012-12-10T21:28:59-0500
_audit_creation_method            fapswitch 2.2
_symmetry_space_group_name_H-M    P1
_symmetry_Int_Tables_number       1
_space_group_crystal_system       triclinic
_cell_length_a                    10.612283
_cell_length_b                    16.205215
_cell_length_c                    16.987685
_cell_angle_alpha                 86.9531
_cell_angle_beta                  91.547405
_cell_angle_gamma                 91.474122
_cell_volume                      2915.3884596

loop_
_atom_site_label
_atom_site_type_symbol
_atom_type_description
_atom_site_fract_x
_atom_site_fract_y
_atom_site_fract_z
_atom_type_partial_charge
C1    C     C_R   0.497859 0.488181 0.652830 0.936794
C2    C     C_R   0.531232 0.472594 0.903011 0.270896
C3    C     C_R   0.501134 0.399936 0.864680 0.101289
C4    C     C_R   0.739291 0.499301 0.499162 0.898283
C5    C     C_R   0.484275 0.402921 0.782236 -0.104007
C6    C     C_R   0.459603 0.465465 0.134755 -0.155554
C7    C     C_R   0.452226 0.457999 0.215428 0.131289
C8    C     C_R   0.523270 0.532597 0.097336 0.240322
C9    C     C_R   0.506607 0.520510 0.261275 -0.163901
C10   C     C_R   0.567344 0.591085 0.223745 -0.132955
C11   C     C_R   0.574746 0.597024 0.140848 -0.116404
C12   C     C_R   0.930957 0.483100 0.425498 0.057028
C13   C     C_R   0.427855 0.761400 0.464868 0.013684
C14   C     C_R   0.436401 0.848661 0.455465 0.061971
C15   C     C_R   0.528920 0.892493 0.498945 0.201728
C16   C     C_R   0.501221 0.511602 0.347225 0.871625
C17   C     C_R   0.618667 0.846380 0.544429 -0.221318
C18   C     C_R   0.612104 0.758278 0.547323 -0.018626
C19   C     C_R   0.571943 0.147405 0.512632 -0.302457
C20   C     C_R   0.582022 0.233710 0.516727 0.055237
C21   C     C_R   0.458912 0.109387 0.486244 0.258000
C22   C     C_R   0.374818 0.247713 0.463574 -0.013600
C23   C     C_R   0.871214 0.497933 0.496064 -0.100531
C24   C     C_R   0.358731 0.161318 0.462622 0.089067
C25   C     C_R   0.260552 0.500798 0.500171 0.902432
C26   C     C_R   0.863102 0.465230 0.355390 -0.123979
C27   C     C_R   0.926320 0.454825 0.285772 0.232060
C28   C     C_R   0.057168 0.462864 0.284874 -0.117295
C29   C     C_R   0.125294 0.479054 0.353925 -0.172278
C30   C     C_R   0.062755 0.487953 0.425278 0.035667
C31   C     C_2   0.442035 0.326917 0.743572 1.017758
C32   C     C_2   0.633655 0.654392 0.270639 1.013045
C33   C     C_2   0.642473 0.667262 0.098867 0.948113
C34   C     C_R   0.937343 0.515611 0.564968 -0.174060
C35   C     C_2   0.696359 0.267931 0.554882 0.970124
C36   C     C_2   0.720534 0.890824 0.588538 0.983098
C37   C     C_2   0.717312 0.711844 0.584767 1.040252
C38   C     C_2   0.322765 0.719237 0.424004 1.017066
C39   C     C_R   0.066369 0.517799 0.565935 0.171200
C40   C     C_R   0.128140 0.503070 0.496623 -0.137856
C41   C     C_R   0.501795 0.479790 0.739082 -0.142003
C42   C     C_R   0.530439 0.551410 0.779083 -0.185443
C43   C     C_R   0.547446 0.547899 0.859429 -0.158271
H1    H     H_    0.888156 0.526625 0.618369 0.158975
H2    H     H_    0.479471 0.209807 0.719048 0.349493
H3    H     H_    0.781046 0.682254 0.342633 0.362670
H4    H     H_    0.764932 0.704321 0.014474 0.363553
H5    H     H_    0.886405 0.274039 0.560096 0.356016
H6    H     H_    0.849097 0.984795 0.589139 0.365241
H7    H     H_    0.780410 0.639282 0.676616 0.340337
H8    H     H_    0.137891 0.687053 0.423494 0.352567
H9    H     H_    0.570930 0.604979 0.887467 0.198591
H10   H     H_    0.539985 0.611309 0.748548 0.239513
H11   H     H_    0.650082 0.110161 0.534339 0.220976
H12   H     H_    0.297409 0.286629 0.444583 0.180868
H13   H     H_    0.761377 0.459880 0.353772 0.153317
H14   H     H_    0.106234 0.456398 0.230610 0.181200
H15   H     H_    0.226680 0.485501 0.350817 0.155929
H16   H     H_    0.415216 0.417749 0.100464 0.196192
I1    I     I_    0.322550 0.908923 0.364244 -0.090843
I2    I     I_    0.179403 0.113749 0.428046 -0.151639
I3    I     I_    0.824418 0.427570 0.181707 -0.234148
I4    I     I_    0.161236 0.541741 0.674483 -0.236158
I5    I     I_    0.355520 0.347813 0.257709 -0.288982
I6    I     I_    0.469779 0.287994 0.934633 -0.149746
N1    N     N_2   0.534593 0.468940 0.986005 -0.131894
N2    N     N_2   0.530424 0.537866 0.014723 -0.141203
N3    N     N_R   0.515300 0.716920 0.509720 -0.182248
N4    N     N_2   0.541425 0.981339 0.495270 -0.104400
N5    N     N_2   0.441513 0.020862 0.487378 -0.107517
N6    N     N_R   0.484690 0.283070 0.490290 -0.137993
O1    O     O_R   0.494530 0.422540 0.612660 -0.575344
O2    O     O_R   0.517982 0.257549 0.748404 -0.735378
O3    O     O_2   0.588354 0.722543 0.275078 -0.521540
O4    O     O_R   0.746020 0.634919 0.311312 -0.818845
O5    O     O_2   0.624775 0.738382 0.115672 -0.546866
O6    O     O_R   0.725350 0.651815 0.039029 -0.765734
O7    O     O_2   0.687729 0.311109 0.611183 -0.581687
O8    O     O_R   0.814879 0.247197 0.529112 -0.778872
O9    O     O_2   0.750462 0.866945 0.655801 -0.583989
O10   O     O_R   0.782209 0.959934 0.553153 -0.755580
O11   O     O_2   0.821272 0.716970 0.555269 -0.598615
O12   O     O_R   0.504350 0.561840 0.618900 -0.592537
O13   O     O_R   0.700139 0.665921 0.655478 -0.795968
O14   O     O_2   0.336995 0.693233 0.358734 -0.586451
O15   O     O_R   0.203827 0.715490 0.457637 -0.757392
O16   O     O_R   0.678320 0.430330 0.496880 -0.618083
O17   O     O_R   0.688140 0.569640 0.503120 -0.609745
O18   O     O_R   0.495650 0.438160 0.381100 -0.603452
O19   O     O_R   0.505470 0.577460 0.387340 -0.593791
O20   O     O_R   0.311860 0.430360 0.496880 -0.620162
O21   O     O_R   0.321680 0.569670 0.503120 -0.607588
O22   O     O_2   0.340579 0.324987 0.707733 -0.597485
Zn1   Zn    Zn3+2 0.493440 0.406980 0.495830 1.021390
Zn2   Zn    Zn3+2 0.506560 0.593020 0.504170 1.027553

loop_
_geom_bond_atom_site_label_1
_geom_bond_atom_site_label_2
_ccdc_geom_bond_type
C16   O19   A    
C24   I2    S    
C41   C42   A    
C19   C20   A    
C32   O4    S    
H7    O13   S    
O19   Zn2   S    
C4    O16   A    
C28   H14   S    
C12   C23   A    
C26   C27   A    
C38   O15   S    
H5    O8    S    
C28   C29   A    
C19   C21   A    
C9    C16   S    
C25   C40   S    
C32   O3    D    
C43   H9    S    
C31   O2    S    
C18   N3    A    
O16   Zn1   S    
H2    O2    S    
H6    O10   S    
O18   Zn1   S    
C20   C35   S    
C20   N6    A    
C17   C36   S    
C9    C10   A    
C2    C43   A    
O1    Zn1   S    
N1    N2    D    
O17   Zn2   S    
C16   O18   A    
C13   C14   A    
C3    I6    S    
H8    O15   S    
H3    O4    S    
C7    C9    A    
C15   N4    S    
C25   O20   A    
C1    O1    A    
C38   O14   D    
C34   C39   A    
N3    Zn2   S    
C11   C33   S    
C34   H1    S    
C36   O9    D    
C39   C40   A    
N6    Zn1   S    
C4    C23   S    
C6    C8    A    
C3    C5    A    
C31   O22   D    
O21   Zn2   S    
C12   C26   A    
C29   C30   A    
C27   I3    S    
C33   O5    D    
C36   O10   S    
C23   C34   A    
O12   Zn2   S    
C17   C18   A    
C30   C40   A    
C37   O13   S    
C13   C38   S    
C22   H12   S    
C19   H11   S    
C1    C41   S    
C22   C24   A    
C37   O11   D    
C42   C43   A    
H4    O6    S    
C22   N6    A    
C14   I1    S    
C15   C17   A    
C5    C41   A    
C25   O21   A    
C12   C30   A    
C6    H16   S    
C18   C37   S    
C2    N1    S    
C26   H13   S    
C6    C7    A    
C4    O17   A    
C1    O12   A    
C39   I4    S    
C35   O7    D    
C21   N5    S    
C2    C3    A    
C42   H10   S    
O20   Zn1   S    
C33   O6    S    
C8    C11   A    
C35   O8    S    
N4    N5    D    
C7    I5    S    
C10   C11   A    
C10   C32   S    
C29   H15   S    
C8    N2    S    
C21   C24   A    
C27   C28   A    
C14   C15   A    
C5    C31   S    
C13   N3    A    
