data_mof_unit_31581.cif
_audit_creation_date              2012-12-11T16:24:07-0500
_audit_creation_method            fapswitch 2.2
_symmetry_space_group_name_H-M    P1
_symmetry_Int_Tables_number       1
_space_group_crystal_system       triclinic
_cell_length_a                    14.750606
_cell_length_b                    14.754202
_cell_length_c                    33.277919
_cell_angle_alpha                 96.050418
_cell_angle_beta                  96.184788
_cell_angle_gamma                 61.202798
_cell_volume                      6297.87161132

loop_
_atom_site_label
_atom_site_type_symbol
_atom_type_description
_atom_site_fract_x
_atom_site_fract_y
_atom_site_fract_z
_atom_type_partial_charge
C1    C     C_R   0.391044 0.699481 0.446073 0.542137
C2    C     C_R   0.333748 0.355058 0.307777 0.004541
C3    C     C_R   0.431117 0.289688 0.325236 -0.107615
C4    C     C_R   0.450119 0.294426 0.366934 -0.120047
C5    C     C_R   0.392680 0.257990 0.165764 -0.107655
C6    C     C_R   0.384015 0.236419 0.124147 -0.122590
C7    C     C_R   0.210366 0.382522 0.120655 -0.124526
C8    C     C_R   0.219194 0.403733 0.162315 -0.106980
C9    C     C_R   0.309128 0.339562 0.184987 0.041020
C10   C     C_1   0.313009 0.350854 0.228249 -0.009845
C11   C     C_1   0.319463 0.355091 0.264585 -0.014799
C12   C     C_R   0.405362 0.385804 0.434128 0.521902
C13   C     C_R   0.291282 0.296226 0.101433 0.019926
C14   C     C_R   0.754503 0.371321 0.409314 0.010398
C15   C     C_R   0.803032 0.420374 0.392809 -0.001665
C16   C     C_R   0.818861 0.403851 0.351377 -0.148324
C17   C     C_R   0.792622 0.335763 0.326656 -0.004213
C18   C     C_R   0.754515 0.278385 0.343878 0.011384
C19   C     C_R   0.737766 0.295776 0.385134 -0.116860
C20   C     C_R   0.820972 0.314651 0.202224 0.340338
C21   C     C_R   0.804399 0.327816 0.283064 0.321552
C22   C     C_R   0.825897 0.392805 0.140238 -0.117845
C23   C     C_R   0.701805 0.409212 0.447687 0.575849
C24   C     C_R   0.859933 0.380680 0.101648 -0.127061
C25   C     C_R   0.906934 0.198478 0.098224 -0.124385
C26   C     C_R   0.873557 0.210455 0.136912 -0.117666
C27   C     C_R   0.837104 0.306679 0.158916 0.034352
C28   C     C_R   0.904985 0.282431 0.081121 0.026644
C29   C     C_R   0.371314 0.753833 0.408905 0.017906
C30   C     C_R   0.277369 0.783249 0.385602 -0.117282
C31   C     C_R   0.267587 0.810470 0.345972 -0.109884
C32   C     C_R   0.351446 0.809051 0.329006 0.031868
C33   C     C_R   0.441908 0.789130 0.353528 -0.115473
C34   C     C_R   0.393168 0.702187 0.561219 0.542836
C35   C     C_R   0.451798 0.761677 0.393202 -0.129436
C36   C     C_R   0.344695 0.826110 0.203978 0.347268
C37   C     C_R   0.347523 0.819101 0.285229 0.348803
C38   C     C_R   0.259027 0.830505 0.134959 -0.117178
C39   C     C_R   0.238937 0.861798 0.095516 -0.128482
C40   C     C_R   0.382133 0.900615 0.104679 -0.129829
C41   C     C_R   0.402297 0.869191 0.144184 -0.118444
C42   C     C_R   0.337662 0.838700 0.160264 0.035288
C43   C     C_R   0.297073 0.901934 0.080730 0.021868
C44   C     C_R   0.372733 0.370273 0.585870 0.024365
C45   C     C_R   0.407581 0.389061 0.549216 0.543986
C46   C     C_R   0.288175 0.451040 0.605345 -0.129211
C47   C     C_R   0.270416 0.442340 0.644728 -0.125305
C48   C     C_R   0.336842 0.352853 0.665291 0.035807
C49   C     C_R   0.415558 0.268638 0.644468 -0.116694
C50   C     C_R   0.433368 0.277291 0.605118 -0.127039
C51   C     C_R   0.328084 0.349661 0.790427 0.321345
C52   C     C_R   0.329934 0.350473 0.709029 0.346337
C53   C     C_R   0.222085 0.397136 0.849248 -0.129829
C54   C     C_R   0.207014 0.376859 0.887156 -0.138593
C55   C     C_R   0.390908 0.260153 0.897102 -0.086036
C56   C     C_R   0.701620 0.413336 0.562588 0.553586
C57   C     C_R   0.407671 0.281494 0.859249 0.017927
C58   C     C_R   0.320883 0.345727 0.833986 -0.002461
C59   C     C_R   0.290437 0.304080 0.910409 -0.007397
C60   C     C_R   0.755628 0.378786 0.602478 0.023543
C61   C     C_R   0.779767 0.445167 0.629512 -0.116606
C62   C     C_R   0.809358 0.422471 0.670054 -0.120017
C63   C     C_R   0.815806 0.333026 0.683852 0.034619
C64   C     C_R   0.798369 0.263309 0.656683 -0.098474
C65   C     C_R   0.768747 0.285798 0.616175 -0.126691
C66   C     C_R   0.843428 0.230511 0.826108 -0.001978
C67   C     C_R   0.372030 0.365316 0.392103 -0.024069
C68   C     C_R   0.866568 0.225592 0.868838 -0.032614
C69   C     C_R   0.920103 0.358090 0.867954 -0.147059
C70   C     C_R   0.897026 0.363377 0.826639 -0.150547
C71   C     C_R   0.862192 0.298521 0.805338 0.043255
C72   C     C_1   0.845598 0.306511 0.762176 0.055402
C73   C     C_1   0.832947 0.316853 0.726312 0.012518
C74   C     C_R   0.910114 0.286708 0.889410 0.029457
C75   C     C_R   0.374501 0.757440 0.602004 -0.009953
C76   C     C_R   0.283451 0.778497 0.619814 -0.113823
C77   C     C_R   0.271916 0.805607 0.661142 0.147322
C78   C     C_R   0.270037 0.425433 0.374623 0.006835
C79   C     C_R   0.352219 0.813974 0.685180 0.013049
C80   C     C_R   0.439315 0.801884 0.667434 -0.106797
C81   C     C_R   0.451640 0.774572 0.625687 0.130898
C82   C     C_R   0.397605 0.882239 0.833010 -0.105968
C83   C     C_R   0.377492 0.910760 0.873742 -0.121587
C84   C     C_R   0.229883 0.878509 0.863459 -0.121691
C85   C     C_R   0.250311 0.849870 0.822783 -0.107119
C86   C     C_R   0.332293 0.854599 0.807321 0.038213
C87   C     C_1   0.343624 0.839272 0.764566 -0.021085
C88   C     C_1   0.349066 0.828310 0.728463 -0.022350
C89   C     C_R   0.252639 0.420510 0.332171 -0.068644
C90   C     C_R   0.291216 0.912609 0.889042 0.017259
C91   C     C_R   0.963071 0.264398 0.045360 0.557423
C92   C     C_R   0.272710 0.259701 0.059977 0.545150
C93   C     C_R   0.259244 0.959556 0.043752 0.542782
C94   C     C_R   0.961585 0.268137 0.930860 0.583475
C95   C     C_R   0.270866 0.264091 0.945372 0.543600
C96   C     C_R   0.256289 0.964751 0.929037 0.539240
Cr1   Cr    Cr6+3 0.576280 0.580550 0.506370 1.057733
Cr2   Cr    Cr6+3 0.346780 0.572400 0.496520 1.029918
Cr3   Cr    Cr6+3 0.576960 0.347070 0.497150 1.028331
Cr4   Cr    Cr6+3 0.087320 0.083240 0.984860 1.058811
Cr5   Cr    Cr6+3 0.087720 0.316210 0.996740 1.019826
Cr6   Cr    Cr6+3 0.317350 0.090340 0.995890 1.024430
H1    H     H_    0.447625 0.169573 0.110247 0.133135
H2    H     H_    0.702488 0.256149 0.397549 0.175095
H3    H     H_    0.856376 0.446989 0.088896 0.133929
H4    H     H_    0.852585 0.443992 0.338174 0.132292
H5    H     H_    0.796814 0.468257 0.156289 0.140855
H6    H     H_    0.940590 0.121953 0.082938 0.136687
H7    H     H_    0.881245 0.143111 0.150310 0.139649
H8    H     H_    0.213554 0.779045 0.397038 0.154966
H9    H     H_    0.524956 0.740095 0.410566 0.137399
H10   H     H_    0.173739 0.860585 0.077548 0.133700
H11   H     H_    0.462707 0.208105 0.183222 0.119940
H12   H     H_    0.196029 0.827608 0.328053 0.151967
H13   H     H_    0.507381 0.788722 0.341427 0.145209
H14   H     H_    0.209231 0.805219 0.146243 0.138231
H15   H     H_    0.428835 0.930428 0.093963 0.132272
H16   H     H_    0.464369 0.875028 0.162815 0.138863
H17   H     H_    0.239569 0.523496 0.591207 0.128740
H18   H     H_    0.498576 0.213353 0.590764 0.133444
H19   H     H_    0.128765 0.412493 0.896864 0.130041
H20   H     H_    0.207658 0.507575 0.659696 0.122821
H21   H     H_    0.467179 0.197924 0.659252 0.139454
H22   H     H_    0.493766 0.237606 0.306439 0.151403
H23   H     H_    0.154850 0.447477 0.830635 0.135974
H24   H     H_    0.455929 0.206930 0.915846 0.180839
H25   H     H_    0.803508 0.193749 0.667126 0.146404
H26   H     H_    0.750825 0.232969 0.596141 0.132321
H27   H     H_    0.770475 0.517180 0.619899 0.137381
H28   H     H_    0.909449 0.416873 0.810935 0.116038
H29   H     H_    0.952112 0.406457 0.882668 0.135469
H30   H     H_    0.528452 0.246626 0.379165 0.173121
H31   H     H_    0.823077 0.476743 0.690955 0.107657
H32   H     H_    0.426048 0.936837 0.892608 0.140212
H33   H     H_    0.461311 0.885987 0.821219 0.125020
H34   H     H_    0.497968 0.812213 0.686732 0.119316
H35   H     H_    0.222294 0.769114 0.601960 0.151005
H36   H     H_    0.199483 0.828352 0.803015 0.119598
H37   H     H_    0.162906 0.879138 0.874279 0.134361
H38   H     H_    0.154269 0.467138 0.177052 0.121874
H39   H     H_    0.137934 0.430069 0.104006 0.131741
H40   H     H_    0.176357 0.467994 0.317997 0.164524
N1    N     N_R   0.778029 0.408300 0.223098 -0.224929
N2    N     N_R   0.265146 0.436954 0.730798 -0.243100
N3    N     N_R   0.393254 0.263526 0.728767 -0.226076
N4    N     N_R   0.391686 0.262901 0.768597 -0.229533
N5    N     N_R   0.769645 0.414793 0.262805 -0.215466
N6    N     N_R   0.848745 0.234150 0.262394 -0.224193
N7    N     N_R   0.856794 0.227722 0.222689 -0.227061
N8    N     N_R   0.268264 0.819524 0.220642 -0.224751
N9    N     N_R   0.269838 0.815728 0.260426 -0.221651
N10   N     N_R   0.424367 0.825221 0.268603 -0.220663
N11   N     N_R   0.422608 0.829368 0.228752 -0.223037
N12   N     N_R   0.263660 0.436358 0.770692 -0.232888
O1    O     O_R   0.679450 0.499830 0.463150 -0.463194
O2    O     O_R   0.356040 0.477400 0.534170 -0.503309
O3    O     O_R   0.495910 0.323070 0.537100 -0.516253
O4    O     O_R   0.663920 0.359620 0.542290 -0.503714
O5    O     O_3   0.500010 0.500010 0.500010 -0.248725
O6    O     O_R   0.170070 0.978950 0.027680 -0.518824
O7    O     O_R   0.001760 0.175230 0.026640 -0.489821
O8    O     O_R   0.984760 0.333570 0.037150 -0.519386
O9    O     O_R   0.183410 0.309240 0.041890 -0.502243
O10   O     O_R   0.340240 0.172500 0.045430 -0.516093
O11   O     O_R   0.309670 0.000990 0.032050 -0.502237
O12   O     O_R   0.480650 0.664000 0.464630 -0.509110
O13   O     O_R   0.168330 0.982130 0.939200 -0.517064
O14   O     O_R   0.000140 0.178170 0.944610 -0.460630
O15   O     O_R   0.983010 0.336750 0.948660 -0.528341
O16   O     O_R   0.181800 0.312190 0.959860 -0.503042
O17   O     O_R   0.338500 0.175680 0.956950 -0.513294
O18   O     O_R   0.308050 0.003930 0.950020 -0.501287
O19   O     O_3   0.164130 0.163270 0.992500 -0.249745
O20   O     O_R   0.323930 0.675950 0.455370 -0.506722
O21   O     O_R   0.354700 0.475360 0.451930 -0.505060
O22   O     O_R   0.494470 0.320860 0.448390 -0.512931
O23   O     O_R   0.662580 0.357570 0.460050 -0.516902
O24   O     O_R   0.680900 0.502040 0.551870 -0.493457
O25   O     O_R   0.481990 0.666040 0.546870 -0.476598
O26   O     O_R   0.325370 0.678160 0.544080 -0.525494
C97   C     C_2   0.721961 0.207819 0.319051 0.226543
H41   H     H_    0.704904 0.214235 0.286672 0.135623
O27   O     O_2   0.712537 0.141824 0.334705 -0.520469
C98   C     C_2   0.515495 0.237344 0.846904 0.239179
H42   H     H_    0.531537 0.264799 0.820957 0.130940
O28   O     O_2   0.588300 0.170781 0.866042 -0.512719
C99   C     C_2   0.846008 0.156467 0.891490 0.248508
H43   H     H_    0.858696 0.081361 0.878069 0.100402
O29   O     O_2   0.812072 0.184083 0.925041 -0.468218
C100  C     C_2   0.797438 0.167182 0.804019 0.206489
H44   H     H_    0.755935 0.139809 0.819989 0.138459
O30   O     O_2   0.805801 0.143843 0.767801 -0.506078
N13   N     N_2   0.540133 0.763164 0.607179 -0.485666
H45   H     H_    0.522531 0.804007 0.581617 0.256653
C101  C     C_3   0.629237 0.757867 0.631979 -0.305731
H46   H     H_    0.694009 0.735821 0.612410 0.147743
H47   H     H_    0.655439 0.697893 0.654356 0.147645
H48   H     H_    0.610118 0.834630 0.647657 0.139728
N14   N     N_2   0.179992 0.822100 0.678098 -0.511944
H49   H     H_    0.160839 0.870041 0.704157 0.264120
C102  C     C_3   0.171882 0.729100 0.680841 -0.299523
H50   H     H_    0.097057 0.749733 0.693356 0.153021
H51   H     H_    0.236291 0.675511 0.701168 0.162534
H52   H     H_    0.174028 0.689515 0.650401 0.143909
C103  C     C_2   0.181155 0.491325 0.399835 0.244420
H53   H     H_    0.187289 0.481651 0.432024 0.128383
O31   O     O_2   0.098839 0.556160 0.384767 -0.509926
C104  C     C_2   0.840023 0.487596 0.417218 0.251823
H54   H     H_    0.849467 0.544680 0.402615 0.119261
O32   O     O_2   0.865963 0.476237 0.453205 -0.475834

loop_
_geom_bond_atom_site_label_1
_geom_bond_atom_site_label_2
_ccdc_geom_bond_type
C66   C68   A    
C87   C88   T    
C51   N12   A    
C40   C41   A    
C52   N3    A    
Cr2   O21   S    
C23   O1    A    
C93   O6    A    
C41   C42   A    
C74   C94   S    
C36   C42   S    
C76   H35   S    
N3    N4    A    
Cr1   O24   S    
C7    C8    A    
C4    H30   S    
C56   O24   A    
C103  H53   S    
C98   H42   S    
C25   C28   A    
N1    N5    A    
C26   C27   A    
C100  H44   S    
C59   C95   S    
C30   H8    S    
Cr4   O13   S    
C50   H18   S    
Cr1   O5    S    
C62   H31   S    
Cr5   O8    S    
C38   C42   A    
C55   C59   A    
C94   O15   A    
C5    C6    A    
Cr2   O20   S    
C99   O29   D    
Cr1   O25   S    
C68   C74   A    
C89   H40   S    
C49   H21   S    
C97   H41   S    
C70   H28   S    
C20   N7    A    
C18   C19   A    
C102  H50   S    
C82   H33   S    
C49   C50   A    
C83   H32   S    
C56   O4    A    
C43   C93   S    
Cr5   O19   S    
C40   C43   A    
Cr3   O22   S    
C66   C71   A    
C84   H37   S    
C16   C17   A    
N13   C101  S    
C91   O8    A    
Cr5   O15   S    
C70   C71   A    
C41   H16   S    
C29   C30   A    
C9    C10   S    
C31   H12   S    
C15   C104  S    
N13   H45   S    
C61   H27   S    
C34   C75   S    
C12   O22   A    
C101  H48   S    
C92   O10   A    
C97   O27   D    
C40   H15   S    
C93   O11   A    
N14   H49   S    
C96   O13   A    
C102  H51   S    
C20   N1    A    
C34   O25   A    
C61   C62   A    
C67   C78   A    
C84   C90   A    
C37   N9    A    
C2    C11   S    
C79   C88   S    
C53   C54   A    
C44   C46   A    
C36   N11   A    
C54   C59   A    
C103  O31   D    
C78   C89   A    
Cr6   O18   S    
C12   C67   S    
Cr2   O2    S    
C1    O20   A    
C33   H13   S    
C32   C37   S    
C15   C16   A    
C65   H26   S    
Cr5   O9    S    
C45   O3    A    
C84   C85   A    
C68   C99   S    
C72   C73   T    
C94   O14   A    
C45   O2    A    
C86   C87   S    
C8    C9    A    
C47   H20   S    
C39   C43   A    
C101  H46   S    
C63   C73   S    
C51   N4    A    
C25   C26   A    
C85   C86   A    
C17   C21   S    
C63   C64   A    
C60   C61   A    
Cr6   O19   S    
C14   C23   S    
C2    C89   A    
C75   C76   A    
C21   N6    A    
C5    C9    A    
C62   C63   A    
C38   H14   S    
C19   H2    S    
Cr4   O6    S    
C47   C48   A    
C55   H24   S    
C7    C13   A    
C30   C31   A    
C69   H29   S    
C64   H25   S    
C1    C29   S    
C17   C18   A    
C77   C79   A    
Cr5   O16   S    
C51   C58   S    
C52   N2    A    
C6    H1    S    
N6    N7    A    
C90   C96   S    
C77   N14   S    
C26   H7    S    
C104  H54   S    
Cr4   O7    S    
C53   H23   S    
C12   O21   A    
C92   O9    A    
C104  O32   D    
C48   C49   A    
C54   H19   S    
C60   C65   A    
C82   C83   A    
Cr6   O11   S    
C22   C27   A    
Cr3   O3    S    
C13   C92   S    
C102  H52   S    
C22   C24   A    
Cr3   O5    S    
C37   N10   A    
Cr2   O26   S    
C3    C4    A    
C21   N5    A    
C7    H39   S    
C35   H9    S    
C3    H22   S    
C44   C50   A    
Cr6   O17   S    
C83   C90   A    
C46   C47   A    
C39   H10   S    
C100  O30   D    
C5    H11   S    
C14   C15   A    
C14   C19   A    
C31   C32   A    
C75   C81   A    
C44   C45   S    
C24   C28   A    
C80   C81   A    
C80   H34   S    
C4    C67   A    
C53   C58   A    
Cr3   O23   S    
C24   H3    S    
C20   C27   S    
C16   H4    S    
C29   C35   A    
C18   C97   S    
Cr4   O14   S    
C8    H38   S    
C64   C65   A    
C55   C57   A    
C2    C3    A    
C78   C103  S    
C99   H43   S    
C82   C86   A    
C32   C33   A    
C6    C13   A    
C76   C77   A    
C36   N8    A    
C57   C58   A    
C38   C39   A    
C1    O12   A    
Cr1   O12   S    
C66   C100  S    
C33   C35   A    
C98   O28   D    
C46   H17   S    
C28   C91   S    
Cr1   O1    S    
N2    N12   A    
C69   C70   A    
C95   O16   A    
C23   O23   A    
C10   C11   T    
C81   N13   S    
C79   C80   A    
C56   C60   S    
C48   C52   S    
C71   C72   S    
Cr2   O5    S    
Cr6   O10   S    
C34   O26   A    
C96   O18   A    
Cr3   O4    S    
Cr4   O19   S    
N14   C102  S    
N8    N9    A    
C91   O7    A    
N10   N11   A    
C69   C74   A    
C95   O17   A    
C85   H36   S    
C57   C98   S    
C22   H5    S    
C25   H6    S    
C101  H47   S    
