data_mof_unit_42332.cif
_audit_creation_date              2012-12-11T16:46:33-0500
_audit_creation_method            fapswitch 2.2
_symmetry_space_group_name_H-M    P1
_symmetry_Int_Tables_number       1
_space_group_crystal_system       triclinic
_cell_length_a                    26.176094
_cell_length_b                    7.206662
_cell_length_c                    23.948175
_cell_angle_alpha                 89.997095
_cell_angle_beta                  101.588322
_cell_angle_gamma                 90.002916
_cell_volume                      4425.55132244

loop_
_atom_site_label
_atom_site_type_symbol
_atom_type_description
_atom_site_fract_x
_atom_site_fract_y
_atom_site_fract_z
_atom_type_partial_charge
O1    O     O_R   0.547620 0.505720 0.453310 -0.544360
O2    O     O_R   0.452380 0.005720 0.546690 -0.544779
O3    O     O_R   0.442260 0.172470 0.436770 -0.538304
O4    O     O_R   0.557740 0.672470 0.563230 -0.538212
C1    C     C_R   0.076132 0.468070 0.078582 0.705625
C2    C     C_R   0.923865 0.968071 0.921419 0.705319
C3    C     C_R   0.424074 0.344495 0.421718 0.704474
C4    C     C_R   0.575923 0.844496 0.578285 0.704789
O5    O     O_R   0.546600 0.175780 0.446490 -0.504456
O6    O     O_R   0.453400 0.675780 0.553510 -0.504164
O7    O     O_R   0.557460 0.008970 0.556480 -0.530537
O8    O     O_R   0.442540 0.508970 0.443520 -0.530689
C5    C     C_R   0.562368 0.344188 0.434233 0.712084
C6    C     C_R   0.437659 0.844237 0.565813 0.711005
O9    O     O_R   0.047630 0.803580 0.953300 -0.504717
O10   O     O_R   0.952370 0.303580 0.046700 -0.504611
O11   O     O_3   0.503440 0.340340 0.536080 -0.373244
O12   O     O_3   0.496560 0.840340 0.463920 -0.373341
V1    V     V_3+5 0.499360 0.064140 0.493310 1.445246
V2    V     V_3+5 0.500640 0.564140 0.506690 1.445734
O13   O     O_R   0.057730 0.636870 0.063240 -0.533462
O14   O     O_R   0.942270 0.136870 0.936760 -0.533478
O15   O     O_3   0.996540 0.468950 0.963950 -0.369124
O16   O     O_3   0.003460 0.968950 0.036050 -0.368871
C7    C     C_R   0.113259 0.783537 0.871782 0.452041
C8    C     C_R   0.887445 0.282821 0.128664 0.451856
C9    C     C_R   0.151246 0.778865 0.837841 -0.215703
C10   C     C_R   0.849648 0.277350 0.162785 -0.216739
H1    H     H_    0.161974 0.646437 0.822089 0.129180
H2    H     H_    0.839379 0.144675 0.178789 0.123733
C11   C     C_R   0.174399 0.942430 0.823164 0.056406
C12   C     C_R   0.826034 0.440236 0.177242 0.060066
C13   C     C_R   0.159545 0.112367 0.843576 -0.145879
C14   C     C_R   0.840360 0.610499 0.156502 -0.150871
H3    H     H_    0.177015 0.240616 0.833022 0.132399
H4    H     H_    0.822538 0.738284 0.166851 0.122210
C15   C     C_R   0.123306 0.118063 0.879346 -0.241943
C16   C     C_R   0.876554 0.617025 0.120673 -0.239079
H5    H     H_    0.114263 0.251218 0.895756 0.191878
H6    H     H_    0.885277 0.750323 0.104081 0.190778
C17   C     C_R   0.099827 0.954570 0.894557 -0.145498
C18   C     C_R   0.900374 0.454058 0.105609 -0.145853
C19   C     C_R   0.209619 0.047256 0.738177 -0.130931
C20   C     C_R   0.789738 0.547782 0.261183 -0.156958
H7    H     H_    0.177793 0.145315 0.727555 0.137643
H8    H     H_    0.820432 0.650583 0.270780 0.138941
C21   C     C_R   0.245011 0.029538 0.701723 -0.190028
C22   C     C_R   0.754317 0.530136 0.297470 -0.220232
H9    H     H_    0.239845 0.114495 0.663688 0.155630
H10   H     H_    0.758233 0.620620 0.334201 0.159979
C23   C     C_R   0.285959 0.900101 0.713376 0.046497
C24   C     C_R   0.714892 0.394593 0.287436 0.068362
C25   C     C_R   0.292582 0.795029 0.764172 0.540834
C26   C     C_R   0.710215 0.278369 0.239062 0.526776
C27   C     C_R   0.255794 0.808510 0.799318 -0.223356
C28   C     C_R   0.746161 0.298915 0.202499 -0.258352
H11   H     H_    0.260233 0.721677 0.836919 0.131304
H12   H     H_    0.742452 0.214850 0.164469 0.117266
C29   C     C_R   0.214017 0.934054 0.786638 0.026370
C30   C     C_R   0.786560 0.430259 0.213958 0.048506
C31   C     C_R   0.333306 0.705201 0.650245 -0.023897
C32   C     C_R   0.667913 0.204071 0.351888 -0.011738
C33   C     C_R   0.375933 0.691087 0.622206 0.359842
C34   C     C_R   0.624764 0.190152 0.379014 0.362718
C35   C     C_R   0.398779 0.852902 0.604075 -0.144767
C36   C     C_R   0.601431 0.352299 0.396207 -0.147439
C37   C     C_R   0.383536 0.025099 0.622513 -0.240102
C38   C     C_R   0.616529 0.523922 0.377214 -0.236947
H13   H     H_    0.399734 0.151339 0.609488 0.195692
H14   H     H_    0.600039 0.650273 0.389666 0.193972
C39   C     C_R   0.348683 0.036458 0.659515 -0.209608
C40   C     C_R   0.651551 0.534156 0.340327 -0.199614
H15   H     H_    0.341992 0.169136 0.677676 0.144461
H16   H     H_    0.658059 0.666199 0.321604 0.128682
C41   C     C_R   0.322438 0.878887 0.673261 0.042840
C42   C     C_R   0.678292 0.376220 0.327630 0.063228
C43   C     C_3   0.760799 0.747676 0.799410 -0.452469
C44   C     C_3   0.239201 0.247739 0.200587 -0.452596
C45   C     C_3   0.757312 0.102510 0.786028 0.295977
C46   C     C_3   0.242658 0.602552 0.214008 0.295253
C47   C     C_3   0.705390 0.077883 0.740473 0.333088
C48   C     C_3   0.294581 0.577930 0.259560 0.332692
H17   H     H_    0.676220 0.722891 0.770281 0.183188
H18   H     H_    0.323781 0.223011 0.229727 0.184202
H19   H     H_    0.749546 0.745718 0.841414 0.165982
H20   H     H_    0.250463 0.245886 0.158588 0.166331
H21   H     H_    0.778889 0.210744 0.767121 0.100738
H22   H     H_    0.221071 0.710712 0.232929 0.100942
H23   H     H_    0.703703 0.190160 0.707758 0.002865
H24   H     H_    0.296262 0.690161 0.292285 0.002397
C49   C     C_1   0.621656 0.855377 0.624061 -0.189854
C50   C     C_1   0.378335 0.355374 0.375949 -0.189436
C51   C     C_3   0.793139 0.923794 0.790194 0.040316
C52   C     C_3   0.206845 0.423782 0.209820 0.040099
C53   C     C_3   0.711626 0.728196 0.751268 -0.348983
C54   C     C_3   0.288371 0.228250 0.248735 -0.348509
C55   C     C_3   0.707486 0.890926 0.708221 0.136033
C56   C     C_3   0.292497 0.390922 0.291795 0.136281
C57   C     C_3   0.757680 0.890744 0.682592 -0.577904
C58   C     C_3   0.242301 0.390624 0.317421 -0.578431
C59   C     C_3   0.809438 0.899810 0.730176 0.405482
C60   C     C_3   0.190544 0.399665 0.269833 0.406384
C61   C     C_1   0.660144 0.869423 0.661955 0.004060
C62   C     C_1   0.339842 0.369420 0.338060 0.004074
C63   C     C_1   0.840132 0.943595 0.837166 0.095171
C64   C     C_1   0.159856 0.443586 0.162846 0.095199
C65   C     C_1   0.878351 0.957151 0.875409 -0.139744
C66   C     C_1   0.121640 0.457147 0.124599 -0.139572
H25   H     H_    0.757427 0.766424 0.654971 0.144400
H26   H     H_    0.242562 0.266269 0.345032 0.143773
H27   H     H_    0.784936 0.620407 0.800416 0.178960
H28   H     H_    0.215074 0.120430 0.199560 0.179062
H29   H     H_    0.713535 0.594415 0.728534 0.142837
H30   H     H_    0.286463 0.094438 0.271457 0.142574
H31   H     H_    0.755658 0.012424 0.653618 0.174786
H32   H     H_    0.244310 0.512270 0.346403 0.174295
V3    V     V_3+5 0.000640 0.745210 0.006690 1.483777
V4    V     V_3+5 0.999360 0.245210 0.993310 1.483740
O17   O     O_R   0.057440 0.306950 0.056520 -0.533553
O18   O     O_R   0.942560 0.806950 0.943480 -0.533635
O19   O     O_R   0.953390 0.633680 0.053510 -0.546872
O20   O     O_R   0.046610 0.133680 0.946490 -0.546977
C67   C     C_R   0.937939 0.464468 0.066042 0.701996
C68   C     C_R   0.062110 0.964524 0.933994 0.702385
O21   O     O_3   0.091372 0.618406 0.884586 -0.559845
C69   C     C_3   0.050625 0.571352 0.838702 -0.205488
H33   H     H_    0.065852 0.540270 0.799553 0.124118
H34   H     H_    0.020541 0.682696 0.830135 0.146394
H35   H     H_    0.031211 0.444072 0.850152 0.169803
O22   O     O_3   0.909533 0.118087 0.115841 -0.559926
C70   C     C_3   0.950292 0.071242 0.161730 -0.203607
H36   H     H_    0.935094 0.040046 0.200890 0.123846
H37   H     H_    0.980320 0.182783 0.170271 0.146617
H38   H     H_    0.969745 0.944049 0.150287 0.169958
O23   O     O_3   0.396119 0.518316 0.614162 -0.562627
C71   C     C_3   0.435473 0.479289 0.662535 -0.245572
H39   H     H_    0.417757 0.440634 0.699413 0.139800
H40   H     H_    0.463204 0.596983 0.674392 0.122873
H41   H     H_    0.459198 0.360666 0.652862 0.153568
O24   O     O_3   0.604613 0.017398 0.387117 -0.563836
C72   C     C_3   0.565343 0.978042 0.338672 -0.234837
H42   H     H_    0.583225 0.935553 0.302269 0.139021
H43   H     H_    0.538151 0.096717 0.325866 0.125927
H44   H     H_    0.540907 0.862040 0.348739 0.152391
O25   O     O_3   0.751300 0.190392 0.837753 -0.553627
C73   C     C_3   0.734318 0.073690 0.877612 -0.169196
H45   H     H_    0.701254 0.983147 0.858521 0.175041
H46   H     H_    0.720087 0.162832 0.909019 0.144628
H47   H     H_    0.767355 0.992305 0.901963 0.116709
O26   O     O_3   0.248662 0.690545 0.162293 -0.553874
C74   C     C_3   0.265652 0.573952 0.122419 -0.167051
H48   H     H_    0.298726 0.483438 0.141498 0.175515
H49   H     H_    0.279872 0.663181 0.091022 0.145435
H50   H     H_    0.232623 0.492546 0.098060 0.116877
O27   O     O_3   0.660572 0.080310 0.765475 -0.546548
C75   C     C_3   0.638211 0.259130 0.762285 -0.240848
H51   H     H_    0.622060 0.298029 0.717248 0.128046
H52   H     H_    0.666858 0.364547 0.782938 0.162501
H53   H     H_    0.605486 0.257875 0.785376 0.154043
O28   O     O_3   0.339399 0.580454 0.234559 -0.546337
C76   C     C_3   0.361740 0.759313 0.237749 -0.235712
H54   H     H_    0.377878 0.798232 0.282787 0.127457
H55   H     H_    0.333084 0.864681 0.217085 0.161673
H56   H     H_    0.394471 0.758122 0.214667 0.156868
C77   C     C_2   0.841313 0.721388 0.730050 0.357586
H57   H     H_    0.823493 0.597088 0.709053 0.030385
O29   O     O_2   0.886627 0.713827 0.755551 -0.531471
C78   C     C_2   0.158688 0.221179 0.269939 0.357293
H58   H     H_    0.176517 0.096886 0.290930 0.030093
O30   O     O_2   0.113378 0.213561 0.244425 -0.531653
O31   O     O_3   0.839841 0.057986 0.721195 -0.555811
C79   C     C_3   0.862206 0.044794 0.672084 -0.194604
H59   H     H_    0.839849 0.956050 0.637689 0.107019
H60   H     H_    0.902645 0.991033 0.684345 0.178967
H61   H     H_    0.864297 0.186049 0.654283 0.148508
O32   O     O_3   0.160123 0.557765 0.278826 -0.555648
C80   C     C_3   0.137752 0.544440 0.327930 -0.195863
H62   H     H_    0.160121 0.455716 0.362323 0.105949
H63   H     H_    0.097323 0.490579 0.315660 0.179237
H64   H     H_    0.135633 0.685665 0.345739 0.147996
O33   O     O_3   0.332990 0.669241 0.777804 -0.547910
C81   C     C_3   0.376068 0.760935 0.811187 -0.304380
H65   H     H_    0.366864 0.811819 0.851944 0.140053
H66   H     H_    0.389675 0.877559 0.787382 0.140167
H67   H     H_    0.408709 0.660641 0.821951 0.168606
O34   O     O_3   0.667912 0.157399 0.226948 -0.562302
C82   C     C_3   0.681797 0.983928 0.206844 -0.260326
H68   H     H_    0.721028 0.935727 0.229248 0.164035
H69   H     H_    0.679564 0.989261 0.160078 0.138351
H70   H     H_    0.653165 0.878835 0.214921 0.158775
C83   C     C_2   0.299318 0.539488 0.650099 0.389645
H71   H     H_    0.307535 0.414854 0.628323 0.068733
O35   O     O_2   0.260163 0.542268 0.670436 -0.533740
C84   C     C_2   0.703031 0.040735 0.354250 0.354807
H72   H     H_    0.692712 0.911431 0.372051 0.079565
O36   O     O_2   0.745434 0.051206 0.340636 -0.545531

loop_
_geom_bond_atom_site_label_1
_geom_bond_atom_site_label_2
_ccdc_geom_bond_type
C36   C38   A    
O31   C79   S    
C33   C35   A    
C58   H26   S    
C69   H33   S    
C27   C29   A    
C9    H1    S    
C84   O36   D    
C58   H32   S    
O4    C4    A    
C70   H38   S    
C32   C42   A    
O15   V4    S    
C45   H21   S    
O25   C73   S    
O23   C71   S    
C45   O25   S    
C7    C17   A    
O33   C81   S    
C31   C41   A    
C46   O26   S    
C63   C65   T    
O7    V1    S    
O16   V3    S    
C77   H57   S    
C64   C66   T    
C1    O17   A    
C17   C68   S    
C75   H51   S    
O10   C67   A    
C20   C30   A    
C16   C18   A    
O3    C3    A    
C72   H43   S    
H18   C54   S    
C13   H3    S    
C37   C39   A    
C60   O32   S    
C2    O14   A    
O11   V2    S    
C43   H27   S    
O12   V1    S    
V4    O20   S    
C74   H50   S    
C11   C29   S    
C31   C33   A    
O5    C5    A    
V4    O17   S    
C82   H70   S    
C7    O21   S    
C51   C63   S    
C81   H65   S    
C75   H52   S    
O5    V1    S    
C52   C64   S    
C20   H8    S    
C80   H63   S    
C54   C56   S    
C60   C78   S    
C2    C65   S    
C11   C13   A    
O3    V1    S    
O6    V2    S    
C49   C61   T    
C32   C34   A    
C8    O22   S    
C79   H61   S    
C19   C29   A    
C47   H23   S    
C44   H20   S    
C78   O30   D    
C84   H72   S    
C43   H19   S    
C77   O29   D    
C48   C56   S    
C54   H30   S    
C71   H41   S    
C53   H29   S    
C2    O18   A    
C76   H55   S    
C24   C26   A    
C18   C67   S    
C76   H54   S    
C73   H46   S    
C5    C36   S    
C25   C27   A    
C3    O8    A    
C26   C28   A    
C39   C41   A    
C82   H69   S    
O9    C68   A    
C9    C11   A    
C83   H71   S    
C10   C12   A    
O24   C72   S    
C40   H16   S    
O6    C6    A    
V3    O18   S    
C44   C54   S    
C45   C47   S    
C51   C59   S    
C21   C23   A    
C69   H35   S    
C35   C37   A    
C12   C14   A    
C43   C53   S    
C13   C15   A    
C28   C30   A    
C38   C40   A    
C23   C25   A    
C81   H67   S    
C33   O23   S    
C83   O35   D    
O10   V4    S    
C73   H47   S    
C48   O28   S    
C74   H48   S    
C80   H64   S    
H17   C53   S    
O8    V2    S    
C58   C60   S    
C40   C42   A    
C4    C49   S    
C59   C77   S    
C22   H10   S    
C19   H7    S    
C55   C61   S    
C71   H40   S    
C78   H58   S    
C57   C59   S    
C21   H9    S    
C56   C58   S    
C27   H11   S    
C24   C42   S    
O21   C69   S    
C72   H44   S    
O1    C5    A    
C32   C84   S    
O20   C68   A    
C70   H36   S    
C76   H56   S    
C79   H59   S    
C8    C18   A    
C39   H15   S    
C73   H45   S    
C34   O24   S    
O14   V4    S    
C6    C35   S    
O32   C80   S    
O1    V2    S    
C69   H34   S    
O2    V1    S    
C14   C16   A    
C75   H53   S    
C23   C41   S    
C71   H39   S    
C70   H37   S    
C47   O27   S    
C53   C55   S    
C45   C51   S    
C25   O33   S    
V3    O19   S    
C7    C9    A    
C8    C10   A    
C48   H24   S    
C55   C57   S    
O28   C76   S    
C10   H2    S    
O22   C70   S    
C82   H68   S    
C15   H5    S    
C72   H42   S    
C16   H6    S    
C47   C55   S    
C44   C52   S    
C4    O7    A    
C56   C62   S    
C3    C50   S    
C57   H31   S    
C43   C51   S    
C79   H60   S    
C46   C48   S    
C28   H12   S    
C59   O31   S    
C14   H4    S    
C74   H49   S    
C15   C17   A    
O2    C6    A    
C81   H66   S    
O19   C67   A    
O13   V3    S    
C50   C62   T    
O4    V2    S    
O9    V3    S    
C22   C24   A    
C1    O13   A    
C52   C60   S    
C46   H22   S    
C80   H62   S    
C26   O34   S    
O27   C75   S    
C31   C83   S    
C38   H14   S    
C12   C30   S    
O26   C74   S    
C46   C52   S    
C44   H28   S    
C37   H13   S    
O34   C82   S    
C19   C21   A    
C20   C22   A    
C34   C36   A    
C1    C66   S    
C57   H25   S    
