data_mof_unit_55670.cif
_audit_creation_date              2013-03-05T16:36:14-0500
_audit_creation_method            fapswitch 2.2
_symmetry_space_group_name_H-M    P1
_symmetry_Int_Tables_number       1
_space_group_crystal_system       triclinic
_cell_length_a                    27.868358
_cell_length_b                    9.073006
_cell_length_c                    7.777087
_cell_angle_alpha                 90.05629
_cell_angle_beta                  90.0
_cell_angle_gamma                 89.999981
_cell_volume                      1966.43378289

loop_
_atom_site_label
_atom_site_type_symbol
_atom_site_description
_atom_site_fract_x
_atom_site_fract_y
_atom_site_fract_z
_atom_type_partial_charge
O1    O     O_R   0.500000 0.288390 0.642760 -0.579723
O2    O     O_R   0.500000 0.711610 0.357240 -0.579723
O3    O     O_R   0.500000 0.711610 0.642760 -0.559735
O4    O     O_R   0.500000 0.288390 0.357240 -0.559735
C1    C     C_R   0.500002 0.220021 0.499943 0.858459
C2    C     C_R   0.500002 0.779979 0.500057 0.858459
O5    O     O_R   0.430260 0.500000 0.642770 -0.553410
O6    O     O_R   0.569740 0.500000 0.357230 -0.553796
O7    O     O_R   0.569740 0.500000 0.642770 -0.553796
O8    O     O_R   0.430260 0.500000 0.357230 -0.553409
C3    C     C_R   0.407248 0.500000 0.500000 0.868704
C4    C     C_R   0.592740 0.500000 0.500000 0.869487
Cu1   Cu    Cu3+1 0.500000 0.500000 0.669080 1.108571
Cu2   Cu    Cu3+1 0.500000 0.500000 0.330920 1.108571
C5    C     C_R   0.177746 0.371344 0.530851 0.556024
C6    C     C_R   0.822191 0.628120 0.466251 0.556096
C7    C     C_R   0.177746 0.628657 0.469150 0.556024
C8    C     C_R   0.822190 0.371883 0.533747 0.556096
O9    O     O_2   0.202411 0.246482 0.563844 -0.501654
O10   O     O_2   0.797520 0.752404 0.430455 -0.502093
O11   O     O_2   0.202411 0.753519 0.436157 -0.501654
O12   O     O_2   0.797520 0.247598 0.569543 -0.502093
N1    N     N_R   0.201891 0.500000 0.500000 -0.455333
N2    N     N_R   0.798049 0.500001 0.499999 -0.455292
C9    C     C_R   0.278637 0.584784 0.620057 -0.103902
C10   C     C_R   0.721311 0.413643 0.381458 -0.103655
C11   C     C_R   0.278637 0.415217 0.379943 -0.103902
C12   C     C_R   0.721311 0.586359 0.618541 -0.103656
C13   C     C_R   0.328688 0.586353 0.620465 0.210206
C14   C     C_R   0.671261 0.412132 0.381048 0.209451
C15   C     C_R   0.328688 0.413648 0.379535 0.210206
C16   C     C_R   0.671261 0.587869 0.618951 0.209450
C17   C     C_R   0.253452 0.500000 0.500000 0.228689
C18   C     C_R   0.746493 0.500001 0.499999 0.228819
C19   C     C_R   0.101756 0.500001 0.500000 -0.042791
C20   C     C_R   0.898180 0.500001 0.499999 -0.042451
C21   C     C_R   0.127374 0.368776 0.530026 -0.027216
C22   C     C_R   0.872562 0.630710 0.467039 -0.027367
C23   C     C_R   0.127374 0.631225 0.469975 -0.027217
C24   C     C_R   0.872562 0.369292 0.532959 -0.027367
C25   C     C_R   0.102355 0.237940 0.558803 -0.140556
C26   C     C_R   0.897582 0.760981 0.434959 -0.141229
C27   C     C_R   0.102355 0.762061 0.441198 -0.140556
C28   C     C_R   0.897581 0.239021 0.565039 -0.141229
C29   C     C_R   0.354397 0.500000 0.500000 -0.171030
C30   C     C_R   0.645570 0.500000 0.500000 -0.170390
H1    H     H_    0.259101 0.349397 0.287133 0.189763
H2    H     H_    0.740847 0.653406 0.710152 0.189821
H3    H     H_    0.259101 0.650604 0.712867 0.189763
H4    H     H_    0.740847 0.346596 0.289846 0.189821
H5    H     H_    0.121210 0.135311 0.581405 0.188564
H6    H     H_    0.878727 0.863070 0.409191 0.189563
H7    H     H_    0.121210 0.864690 0.418597 0.188564
H8    H     H_    0.878727 0.136931 0.590807 0.189563
C31   C     C_R   0.974442 0.366430 0.531862 0.044646
C32   C     C_R   0.025493 0.633795 0.469457 0.044818
C33   C     C_R   0.974442 0.633572 0.468138 0.044647
C34   C     C_R   0.025493 0.366207 0.530544 0.044818
C35   C     C_R   0.949253 0.500001 0.500000 0.070083
C36   C     C_R   0.050683 0.500001 0.500000 0.069830
C37   C     C_R   0.947372 0.237207 0.564419 -0.208053
C38   C     C_R   0.052563 0.763765 0.441281 -0.207151
C39   C     C_R   0.947372 0.762795 0.435580 -0.208053
C40   C     C_R   0.052563 0.236236 0.558720 -0.207150
H9    H     H_    0.963282 0.131699 0.591050 0.134541
H10   H     H_    0.036650 0.869987 0.418978 0.132776
H11   H     H_    0.963282 0.868303 0.408949 0.134541
H12   H     H_    0.036650 0.130015 0.581023 0.132776
C41   C     C_1   0.500003 0.065407 0.499920 -0.098269
C42   C     C_1   0.500003 0.934593 0.500079 -0.098269
N3    N     N_1   0.500000 0.500000 0.076820 -0.000763
N4    N     N_1   0.500000 0.500000 0.923180 -0.000763
Br1   Br    Br    0.359404 0.284746 0.216894 -0.401782
Br2   Br    Br    0.640464 0.718665 0.779307 -0.402108
Br3   Br    Br    0.359404 0.715255 0.783106 -0.401782
Br4   Br    Br    0.640465 0.281335 0.220693 -0.402107

loop_
_geom_bond_atom_site_label_1
_geom_bond_atom_site_label_2
_geom_bond_distance
_ccdc_geom_bond_type
O5    Cu1   1.954281 S    
C31   C35   1.422478 A    
Cu2   N3    1.976157 S    
C20   C35   1.423307 A    
C11   C17   1.398116 A    
C5    O9    1.349918 S    
C7    N1    1.368749 A    
O1    C1    1.271646 A    
C40   H12   1.075124 S    
C19   C21   1.407948 A    
C22   C26   1.394984 A    
C10   H4    1.083151 S    
C16   Br2   1.922816 S    
C15   Br1   1.922899 S    
C34   C36   1.422450 A    
C32   C33   1.422757 A    
C7    C23   1.403993 A    
O7    Cu1   1.954278 S    
C5    C21   1.403993 A    
C8    C24   1.403984 A    
C27   H7    1.083687 S    
N1    C17   1.436915 S    
C1    C41   1.402817 S    
C8    N2    1.368695 A    
O3    Cu1   1.931020 S    
C6    O10   1.349951 S    
O3    C2    1.271936 A    
C5    N1    1.368748 A    
C12   C18   1.398187 A    
C6    N2    1.368696 A    
Cu1   Cu2   2.629901 S    
C21   C25   1.394958 A    
O2    C2    1.271646 A    
C10   C18   1.398187 A    
C33   C39   1.417188 A    
C9    C13   1.394901 A    
C39   H11   1.075294 S    
C38   H10   1.075123 S    
C11   C15   1.394901 A    
C12   C16   1.394885 A    
C4    C30   1.472299 S    
O8    Cu2   1.954281 S    
C23   C27   1.394957 A    
C34   C40   1.417114 A    
N2    C18   1.436784 S    
C32   C36   1.422450 A    
C13   C29   1.415429 A    
C19   C36   1.423326 A    
C19   C23   1.407947 A    
C37   H9    1.075295 S    
C14   Br4   1.922816 S    
O5    C3    1.282227 A    
C20   C24   1.407987 A    
O6    C4    1.282064 A    
C9    C17   1.398117 A    
C10   C14   1.394885 A    
C32   C38   1.417113 A    
C3    C29   1.472885 S    
O1    Cu1   1.930621 S    
C11   H1    1.083132 S    
C2    C42   1.402817 S    
C12   H2    1.083152 S    
O6    Cu2   1.954278 S    
C8    O12   1.349951 S    
C16   C30   1.415100 A    
C14   C30   1.415100 A    
O4    C1    1.271936 A    
C13   Br3   1.922899 S    
Cu1   N4    1.976157 S    
C28   C37   1.387685 A    
C20   C22   1.407988 A    
N3    N4    1.194872 T    
C31   C37   1.417187 A    
O4    Cu2   1.931021 S    
C41   C42   1.186877 T    
O2    Cu2   1.930620 S    
O7    C4    1.282065 A    
C9    H3    1.083132 S    
C33   C35   1.422479 A    
O8    C3    1.282228 A    
C28   H8    1.083778 S    
C24   C28   1.394982 A    
C15   C29   1.415429 A    
C31   C34   1.422760 A    
C6    C22   1.403981 A    
C25   C40   1.387696 A    
C26   C39   1.387685 A    
C25   H5    1.083687 S    
C27   C38   1.387699 A    
C26   H6    1.083778 S    
C7    O11   1.349920 S    
