data_mof_unit_54202.cif
_audit_creation_date              2012-12-10T17:06:38-0500
_audit_creation_method            fapswitch 2.2
_symmetry_space_group_name_H-M    P1
_symmetry_Int_Tables_number       1
_space_group_crystal_system       triclinic
_cell_length_a                    15.828892
_cell_length_b                    11.102466
_cell_length_c                    9.98201
_cell_angle_alpha                 111.585398
_cell_angle_beta                  98.220048
_cell_angle_gamma                 92.816316
_cell_volume                      1604.55895923

loop_
_atom_site_label
_atom_site_type_symbol
_atom_type_description
_atom_site_fract_x
_atom_site_fract_y
_atom_site_fract_z
_atom_type_partial_charge
C1    C     C_R   0.491377 0.255078 0.440727 0.753923
C2    C     C_3   0.023252 0.574290 0.428588 0.052676
C3    C     C_3   0.017670 0.377167 0.432511 0.383875
C4    C     C_3   0.982538 0.623196 0.567531 0.383470
C5    C     C_1   0.250966 0.501092 0.501513 -0.199867
C6    C     C_1   0.749153 0.499702 0.498716 -0.195096
C7    C     C_3   0.042080 0.549192 0.639092 0.390864
C8    C     C_3   0.958112 0.451162 0.360942 0.391806
C9    C     C_3   0.083847 0.500683 0.499807 -0.172590
C10   C     C_3   0.916318 0.499682 0.500246 -0.172706
C11   C     C_1   0.175449 0.500987 0.500867 0.086810
C12   C     C_R   0.504112 0.746438 0.559282 0.709513
C13   C     C_1   0.824685 0.499566 0.499273 0.085010
C14   C     C_2   0.464133 0.119519 0.412215 0.268592
C15   C     C_2   0.505039 0.888044 0.586298 0.298654
C16   C     C_3   0.971768 0.158976 0.297497 -0.309840
C17   C     C_3   0.028722 0.841307 0.702534 -0.299854
C18   C     C_3   0.012576 0.274700 0.692852 -0.662401
C19   C     C_3   0.987915 0.725784 0.307217 -0.662865
C20   C     C_3   0.960597 0.376999 0.112668 -0.311362
C21   C     C_3   0.039687 0.623389 0.887403 -0.306392
C22   C     C_3   0.345421 0.789573 0.333939 -0.579459
C23   C     C_2   0.513315 0.054738 0.479210 0.138113
C24   C     C_3   0.629405 0.191351 0.680641 -0.574110
C25   C     C_3   0.593228 0.961515 0.816287 -0.273181
C26   C     C_3   0.319247 0.136018 0.397327 -0.327461
C27   C     C_3   0.333231 0.491971 0.874186 -0.617858
C28   C     C_3   0.665902 0.501471 0.123306 -0.621371
C29   C     C_3   0.658207 0.689470 0.921282 -0.101854
C30   C     C_3   0.345359 0.302699 0.077651 -0.036190
C31   C     C_2   0.480360 0.924342 0.471030 0.201416
C32   C     C_2   0.511863 0.505134 0.078911 0.439044
C33   C     C_2   0.487949 0.495410 0.921470 0.419374
C34   C     C_R   0.340355 0.500811 0.500714 0.780843
C35   C     C_R   0.659723 0.500133 0.499545 0.797193
C36   C     C_3   0.976948 0.426060 0.571453 0.050685
Cu1   Cu    Cu3+1 0.514700 0.521810 0.644910 0.942330
Cu2   Cu    Cu3+1 0.485300 0.478190 0.355090 0.961653
H1    H     H_    0.945872 0.160737 0.189122 0.192601
H2    H     H_    0.022499 0.189264 0.596936 0.245337
H3    H     H_    0.110717 0.705285 0.398112 0.247613
H4    H     H_    0.010521 0.761477 0.226835 0.195139
H5    H     H_    0.978060 0.811253 0.403153 0.246175
H6    H     H_    0.925678 0.664194 0.255360 0.253960
H7    H     H_    0.020223 0.334739 0.138314 0.178526
H8    H     H_    0.977341 0.468048 0.096318 0.194331
H9    H     H_    0.924058 0.306374 0.007343 0.171213
H10   H     H_    0.022883 0.532339 0.903713 0.192887
H11   H     H_    0.980099 0.665772 0.861859 0.176349
H12   H     H_    0.920040 0.171433 0.364393 0.161418
H13   H     H_    0.076292 0.693931 0.992721 0.173578
H14   H     H_    0.441863 0.851772 0.242429 0.288709
H15   H     H_    0.341713 0.752279 0.422142 0.201290
H16   H     H_    0.319319 0.709522 0.227626 0.208595
H17   H     H_    0.304417 0.869918 0.349782 0.239621
H18   H     H_    0.635564 0.115554 0.457857 0.222618
H19   H     H_    0.657499 0.284659 0.679660 0.206947
H20   H     H_    0.679972 0.153919 0.738882 0.217244
H21   H     H_    0.574880 0.211358 0.741692 0.268759
H22   H     H_    0.643317 0.911609 0.755097 0.126945
H23   H     H_    0.992325 0.060801 0.278597 0.168428
H24   H     H_    0.567636 0.907185 0.878079 0.217261
H25   H     H_    0.624933 0.056149 0.899152 0.175401
H26   H     H_    0.255646 0.079739 0.343170 0.195115
H27   H     H_    0.318729 0.229985 0.382187 0.156052
H28   H     H_    0.326748 0.152340 0.515596 0.158523
H29   H     H_    0.405555 0.364826 0.732920 0.280312
H30   H     H_    0.335293 0.580312 0.847200 0.252927
H31   H     H_    0.330589 0.524771 0.992321 0.201673
H32   H     H_    0.273859 0.426523 0.811404 0.223493
H33   H     H_    0.596194 0.633785 0.266035 0.284714
H34   H     H_    0.080520 0.828510 0.635741 0.160925
H35   H     H_    0.663191 0.415046 0.153690 0.246978
H36   H     H_    0.726503 0.565367 0.181951 0.228927
H37   H     H_    0.666494 0.464351 0.004203 0.197993
H38   H     H_    0.653518 0.728212 0.833634 0.162176
H39   H     H_    0.691123 0.599564 0.890661 0.142970
H40   H     H_    0.699645 0.763452 0.018936 0.118631
H41   H     H_    0.310790 0.390805 0.112641 0.123259
H42   H     H_    0.351505 0.258094 0.160427 0.184051
H43   H     H_    0.304514 0.230679 0.977721 0.120711
H44   H     H_    0.054478 0.839702 0.811038 0.193957
H45   H     H_    0.008348 0.939543 0.721159 0.168282
H46   H     H_    0.889691 0.294813 0.601886 0.248900
H47   H     H_    0.990089 0.238977 0.773296 0.196324
H48   H     H_    0.074766 0.336439 0.744641 0.252926
N1    N     N_2   0.463210 0.445420 0.137360 -0.031975
N2    N     N_2   0.536790 0.554580 0.862640 -0.029489
N3    N     N_2   0.948778 0.348193 0.649053 -0.422912
N4    N     N_2   0.051564 0.652092 0.351005 -0.423246
N5    N     N_2   0.433379 0.833452 0.333963 -0.418364
N6    N     N_2   0.603102 0.097226 0.532137 -0.458035
N7    N     N_2   0.407966 0.423344 0.840518 -0.423551
N8    N     N_2   0.592853 0.574102 0.158482 -0.418802
O1    O     O_R   0.507840 0.332340 0.577400 -0.623164
O2    O     O_3   0.956335 0.748260 0.633375 -0.574122
O3    O     O_3   0.907553 0.399646 0.219720 -0.579982
O4    O     O_3   0.092684 0.600687 0.780280 -0.576004
O5    O     O_3   0.525250 0.986297 0.725656 -0.578279
O6    O     O_3   0.383381 0.063989 0.330640 -0.597014
O7    O     O_3   0.577171 0.671321 0.957529 -0.508593
O8    O     O_3   0.425810 0.326679 0.042584 -0.497258
O9    O     O_R   0.492160 0.667660 0.422600 -0.587025
O10   O     O_R   0.483020 0.295500 0.332650 -0.545883
O11   O     O_R   0.516980 0.704500 0.667350 -0.554167
O12   O     O_R   0.391490 0.518400 0.622350 -0.574534
O13   O     O_R   0.608510 0.481600 0.377650 -0.579271
O14   O     O_R   0.366660 0.481570 0.377600 -0.600568
O15   O     O_R   0.633340 0.518430 0.622400 -0.602830
O16   O     O_3   0.044043 0.252209 0.366729 -0.577087

loop_
_geom_bond_atom_site_label_1
_geom_bond_atom_site_label_2
_ccdc_geom_bond_type
C36   N3    S    
C32   N8    S    
C7    O4    S    
Cu2   O9    S    
C7    C36   S    
Cu1   N2    S    
C28   H36   S    
C21   H11   S    
N2    O7    S    
C16   O16   S    
C22   H16   S    
H33   N8    S    
C18   H48   S    
C33   N2    D    
C16   H12   S    
C5    C11   T    
C12   O11   A    
C3    O16   S    
C6    C35   S    
Cu1   O1    S    
C28   N8    S    
C17   H44   S    
C25   H25   S    
Cu2   O13   S    
C2    N4    S    
C18   H2    S    
C26   H26   S    
C27   H30   S    
C4    O2    S    
C25   O5    S    
C20   O3    S    
C24   H19   S    
Cu2   O10   S    
C22   N5    S    
C25   H22   S    
Cu1   O15   S    
C20   H7    S    
C27   H31   S    
C19   H4    S    
C21   H10   S    
C30   H42   S    
H3    N4    S    
C26   H27   S    
C4    C7    S    
C28   H35   S    
C24   N6    S    
C19   H5    S    
C22   H15   S    
C18   H47   S    
C29   H40   S    
C26   H28   S    
C12   O9    A    
C3    C8    S    
C29   H38   S    
C32   N1    D    
C17   H45   S    
C23   C31   S    
C14   C23   D    
C2    C4    S    
C8    O3    S    
Cu1   O11   S    
Cu1   Cu2   S    
C3    C9    S    
N1    O8    S    
C12   C15   S    
C1    O1    A    
C5    C34   S    
C30   O8    S    
C29   O7    S    
C17   O2    S    
C14   O6    S    
C9    C11   S    
C1    O10   A    
C27   H32   S    
C30   H41   S    
C8    C10   S    
C31   N5    S    
C27   N7    S    
H46   N3    S    
C4    C10   S    
C21   H13   S    
C19   H6    S    
C7    C9    S    
C18   N3    S    
C2    C8    S    
C15   O5    S    
C10   C13   S    
C33   N7    S    
C15   C31   D    
C22   H17   S    
Cu2   N1    S    
C34   O14   A    
C32   C33   S    
C30   H43   S    
Cu1   O12   S    
C19   N4    S    
C6    C13   T    
C21   O4    S    
C28   H37   S    
C3    C36   S    
C24   H21   S    
C35   O15   A    
C34   O12   A    
C25   H24   S    
Cu2   O14   S    
C20   H9    S    
C35   O13   A    
C16   H1    S    
H18   N6    S    
C29   H39   S    
C17   H34   S    
C24   H20   S    
C16   H23   S    
H29   N7    S    
C23   N6    S    
H14   N5    S    
C10   C36   S    
C1    C14   S    
C2    C9    S    
C20   H8    S    
C26   O6    S    
