data_mof_unit_46504.cif
_audit_creation_date              2012-12-11T16:28:29-0500
_audit_creation_method            fapswitch 2.2
_symmetry_space_group_name_H-M    P1
_symmetry_Int_Tables_number       1
_space_group_crystal_system       triclinic
_cell_length_a                    16.855675
_cell_length_b                    7.249969
_cell_length_c                    14.936148
_cell_angle_alpha                 91.064113
_cell_angle_beta                  94.57273
_cell_angle_gamma                 91.055293
_cell_volume                      1818.75767522

loop_
_atom_site_label
_atom_site_type_symbol
_atom_type_description
_atom_site_fract_x
_atom_site_fract_y
_atom_site_fract_z
_atom_type_partial_charge
O1    O     O_R   0.663460 0.361760 0.165970 -0.501350
O2    O     O_R   0.336540 0.638240 0.834030 -0.501350
O3    O     O_R   0.836540 0.861760 0.334030 -0.551065
O4    O     O_R   0.163460 0.138240 0.665970 -0.551064
O5    O     O_R   0.827100 0.689870 0.163730 -0.539896
O6    O     O_R   0.172900 0.310130 0.836270 -0.539893
O7    O     O_R   0.672900 0.189870 0.336270 -0.493858
O8    O     O_R   0.327100 0.810130 0.663730 -0.493859
C1    C     C_R   0.854241 0.523536 0.144779 0.760444
C2    C     C_R   0.145759 0.476464 0.855221 0.760438
C3    C     C_R   0.645803 0.022921 0.355350 0.757983
C4    C     C_R   0.354197 0.977079 0.644649 0.757976
O9    O     O_R   0.663490 0.691370 0.155500 -0.547829
O10   O     O_R   0.336510 0.308630 0.844500 -0.547830
O11   O     O_R   0.836510 0.191370 0.344500 -0.500864
O12   O     O_R   0.163490 0.808630 0.655500 -0.500865
O13   O     O_R   0.671770 0.863320 0.325740 -0.536754
O14   O     O_R   0.328230 0.136680 0.674260 -0.536754
O15   O     O_R   0.828230 0.363320 0.174260 -0.490196
O16   O     O_R   0.171770 0.636680 0.825740 -0.490197
C5    C     C_R   0.638566 0.519442 0.130532 0.848543
C6    C     C_R   0.361434 0.480558 0.869468 0.848539
C7    C     C_R   0.861969 0.025481 0.369393 0.845820
C8    C     C_R   0.138031 0.974519 0.630607 0.845823
O17   O     O_3   0.752910 0.528800 0.305860 -0.370508
O18   O     O_3   0.247090 0.471200 0.694140 -0.370507
O19   O     O_3   0.747090 0.028800 0.194140 -0.365492
O20   O     O_3   0.252910 0.971200 0.805860 -0.365490
V1    V     V_3+5 0.749460 0.803010 0.239640 1.640200
V2    V     V_3+5 0.250540 0.196990 0.760360 1.640206
V3    V     V_3+5 0.750540 0.303010 0.260360 1.769609
V4    V     V_3+5 0.249460 0.696990 0.739640 1.769609
C9    C     C_1   0.469150 0.994797 0.530481 0.154298
C10   C     C_1   0.530849 0.005203 0.469518 0.154300
C11   C     C_1   0.030832 0.494318 0.969492 0.157500
C12   C     C_1   0.969169 0.505682 0.030509 0.157499
C13   C     C_R   0.023184 0.078148 0.317496 0.440268
C14   C     C_R   0.976817 0.921856 0.682504 0.440273
C15   C     C_R   0.478583 0.485554 0.187248 0.435140
C16   C     C_R   0.521417 0.514435 0.812751 0.435137
C17   C     C_R   0.099143 0.080884 0.287269 0.305502
C18   C     C_R   0.900858 0.919109 0.712729 0.305495
C19   C     C_R   0.402851 0.491283 0.217851 0.301278
C20   C     C_R   0.597148 0.508691 0.782146 0.301278
C21   C     C_R   0.163879 0.025504 0.343207 0.357856
C22   C     C_R   0.836120 0.974478 0.656791 0.357865
C23   C     C_R   0.337399 0.526578 0.158502 0.359270
C24   C     C_R   0.662600 0.473399 0.841495 0.359268
C25   C     C_R   0.153007 0.971767 0.431286 0.200320
C26   C     C_R   0.846992 0.028219 0.568714 0.200321
C27   C     C_R   0.347182 0.548552 0.066809 0.197685
C28   C     C_R   0.652818 0.451439 0.933189 0.197687
C29   C     C_R   0.077885 0.993589 0.468339 -0.140524
C30   C     C_R   0.922114 0.006407 0.531661 -0.140524
C31   C     C_R   0.422236 0.515192 0.031380 -0.137639
C32   C     C_R   0.577764 0.484805 0.968619 -0.137636
C33   C     C_R   0.010384 0.032923 0.407838 -0.148801
C34   C     C_R   0.989616 0.967077 0.592162 -0.148801
C35   C     C_R   0.490408 0.499807 0.094007 -0.150042
C36   C     C_R   0.509592 0.500189 0.905992 -0.150043
C37   C     C_R   0.067837 0.973192 0.562059 -0.009688
C38   C     C_R   0.932163 0.026808 0.437941 -0.009687
C39   C     C_R   0.431708 0.501725 0.936946 -0.012232
C40   C     C_R   0.568292 0.498275 0.063053 -0.012233
C41   C     C_1   0.416769 0.986260 0.582346 -0.012658
C42   C     C_1   0.583230 0.013740 0.417653 -0.012653
C43   C     C_1   0.083182 0.485239 0.917586 -0.008209
C44   C     C_1   0.916818 0.514761 0.082414 -0.008208
Cl1   Cl    Cl    0.229858 0.839736 0.482769 -0.563717
Cl2   Cl    Cl    0.770139 0.160241 0.517231 -0.563720
Cl3   Cl    Cl    0.268805 0.659210 0.005737 -0.576863
Cl4   Cl    Cl    0.731197 0.340793 0.994265 -0.576870
Cl5   Cl    Cl    0.110985 0.144130 0.175496 -0.419276
Cl6   Cl    Cl    0.889016 0.855862 0.824502 -0.419284
Cl7   Cl    Cl    0.392053 0.464890 0.333542 -0.400679
Cl8   Cl    Cl    0.607945 0.535063 0.666453 -0.400673
Cl9   Cl    Cl    0.740962 0.982151 0.698869 -0.377427
Cl10  Cl    Cl    0.259035 0.017811 0.301127 -0.377424
Cl11  Cl    Cl    0.757186 0.449220 0.799445 -0.362972
Cl12  Cl    Cl    0.242812 0.550739 0.200550 -0.362973
F1    F     F_    0.963063 0.127149 0.257320 -0.658269
F2    F     F_    0.036939 0.872867 0.742681 -0.658269
F3    F     F_    0.539476 0.459560 0.250543 -0.654906
F4    F     F_    0.460524 0.540431 0.749456 -0.654905

loop_
_geom_bond_atom_site_label_1
_geom_bond_atom_site_label_2
_ccdc_geom_bond_type
O17   V3    S    
O1    C5    A    
C8    C37   S    
C16   C36   A    
C31   C35   A    
O19   V1    S    
O13   V1    S    
C16   F4    S    
O3    C7    A    
C11   C12   S    
O15   V3    S    
C10   C42   T    
C9    C41   T    
C33   C38   A    
C2    C43   S    
O7    C3    A    
C35   C40   A    
C26   C30   A    
C36   C39   A    
C24   Cl11  S    
O9    V1    S    
C14   C18   A    
O16   V4    S    
O4    C8    A    
O1    V3    S    
O2    V4    S    
C18   C22   A    
O3    V1    S    
C5    C40   S    
C6    C39   S    
C14   C34   A    
C29   C37   A    
C1    O15   A    
C7    C38   S    
C2    O16   A    
C31   C39   A    
O2    C6    A    
C32   C40   A    
C21   Cl10  S    
O14   V2    S    
C11   C43   T    
C16   C20   A    
C3    C42   S    
C34   C37   A    
O11   C7    A    
O12   C8    A    
C25   Cl1   S    
C14   F2    S    
C13   F1    S    
C27   Cl3   S    
C23   Cl12  S    
O10   V2    S    
O5    V1    S    
C19   Cl7   S    
C18   Cl6   S    
O7    V3    S    
O8    V4    S    
C29   C33   A    
O18   V4    S    
C15   C19   A    
C30   C38   A    
C32   C36   A    
O5    C1    A    
C28   Cl4   S    
C21   C25   A    
O8    C4    A    
C15   C35   A    
C9    C10   S    
O9    C5    A    
O6    V2    S    
C30   C34   A    
C3    O13   A    
O6    C2    A    
C22   Cl9   S    
C23   C27   A    
C12   C44   T    
O11   V3    S    
O12   V4    S    
C4    C41   S    
C22   C26   A    
O10   C6    A    
O20   V2    S    
C26   Cl2   S    
C1    C44   S    
C15   F3    S    
C25   C29   A    
C27   C31   A    
C13   C17   A    
O4    V2    S    
C17   Cl5   S    
C28   C32   A    
C24   C28   A    
C4    O14   A    
C17   C21   A    
C20   Cl8   S    
C19   C23   A    
C13   C33   A    
C20   C24   A    
