data_mof_unit_16495.cif
_audit_creation_date              2012-12-11T17:08:36-0500
_audit_creation_method            fapswitch 2.2
_symmetry_space_group_name_H-M    P1
_symmetry_Int_Tables_number       1
_space_group_crystal_system       triclinic
_cell_length_a                    6.952862
_cell_length_b                    14.591036
_cell_length_c                    16.028988
_cell_angle_alpha                 90.023893
_cell_angle_beta                  90.178158
_cell_angle_gamma                 89.774714
_cell_volume                      1626.11160808

loop_
_atom_site_label
_atom_site_type_symbol
_atom_type_description
_atom_site_fract_x
_atom_site_fract_y
_atom_site_fract_z
_atom_type_partial_charge
O1    O     O_R   0.505700 0.583890 0.413310 -0.537822
O2    O     O_R   0.175960 0.594920 0.586080 -0.539195
O3    O     O_R   0.005660 0.416110 0.586690 -0.533686
C1    C     C_R   0.344675 0.617974 0.614005 0.726307
O4    O     O_R   0.175980 0.594920 0.413930 -0.545937
O5    O     O_R   0.005680 0.416110 0.413310 -0.540627
C2    C     C_R   0.344479 0.616879 0.385032 0.689188
O6    O     O_R   0.505680 0.583890 0.586690 -0.542608
O7    O     O_3   0.339200 0.441330 0.500000 -0.369191
V1    V     V_3+5 0.064350 0.510880 0.500000 1.404355
O8    O     O_R   0.675960 0.405080 0.413920 -0.540613
C3    C     C_R   0.845063 0.383868 0.384592 0.694256
O9    O     O_R   0.675940 0.405080 0.586070 -0.541468
C4    C     C_R   0.845472 0.383751 0.615403 0.710762
V2    V     V_3+5 0.564340 0.489120 0.500000 1.397031
O10   O     O_3   0.839360 0.558670 0.500000 -0.374053
C5    C     C_R   0.992703 0.323678 0.749808 0.096306
C6    C     C_R   0.855001 0.317389 0.685374 -0.157373
C7    C     C_R   0.712038 0.249326 0.694068 -0.202812
H1    H     H_    0.596917 0.244108 0.648686 0.127941
C8    C     C_R   0.719882 0.184953 0.759851 -0.197627
H2    H     H_    0.611121 0.132165 0.762948 0.124214
C9    C     C_R   0.873142 0.185629 0.817756 -0.094278
C10   C     C_R   0.001990 0.258152 0.812242 0.040109
C11   C     C_3   0.213597 0.261782 0.820176 -0.489429
C12   C     C_3   0.207499 0.336772 0.752656 0.290105
H3    H     H_    0.283688 0.197538 0.798451 0.149057
H4    H     H_    0.255883 0.284145 0.883785 0.170544
H5    H     H_    0.279542 0.318559 0.692983 0.071532
C13   C     C_R   0.739027 0.177807 0.247471 0.081662
C14   C     C_R   0.883596 0.181118 0.186675 -0.133667
C15   C     C_R   0.030963 0.246142 0.198883 -0.180606
H6    H     H_    0.150271 0.249684 0.155847 0.125354
C16   C     C_R   0.019620 0.311367 0.263813 -0.177261
H7    H     H_    0.131112 0.362605 0.269020 0.121906
C17   C     C_R   0.859573 0.314169 0.317760 -0.104444
C18   C     C_R   0.724876 0.244082 0.309389 0.065793
C19   C     C_3   0.510579 0.245521 0.306638 -0.401429
C20   C     C_3   0.525138 0.168530 0.241957 -0.094608
H8    H     H_    0.455684 0.310713 0.279678 0.149905
H9    H     H_    0.443721 0.226858 0.366978 0.167375
H10   H     H_    0.468505 0.188750 0.179670 0.131274
C21   C     C_R   0.505356 0.750714 0.686848 0.091342
C22   C     C_R   0.351665 0.689316 0.679848 -0.116276
C23   C     C_R   0.200512 0.698813 0.737653 -0.155314
H11   H     H_    0.078844 0.653085 0.734870 0.145537
C24   C     C_R   0.212654 0.762043 0.804008 -0.189885
H12   H     H_    0.098571 0.764135 0.849659 0.131980
C25   C     C_R   0.376631 0.817351 0.814733 -0.111484
C26   C     C_R   0.517645 0.812877 0.752661 0.099534
C27   C     C_3   0.729530 0.800014 0.760376 -0.409623
C28   C     C_3   0.716482 0.733104 0.687845 -0.398247
H13   H     H_    0.769694 0.766704 0.820298 0.173295
H14   H     H_    0.810205 0.863411 0.745074 0.169522
H15   H     H_    0.752094 0.661428 0.705329 0.173076
H16   H     H_    0.787830 0.758344 0.630352 0.169770
C29   C     C_R   0.507610 0.682388 0.258450 0.100925
C30   C     C_R   0.352097 0.681849 0.313905 -0.110384
C31   C     C_R   0.199503 0.742944 0.297298 -0.182668
H17   H     H_    0.076711 0.745324 0.338332 0.135540
C32   C     C_R   0.210544 0.806538 0.231336 -0.179133
H18   H     H_    0.095376 0.855823 0.223589 0.130941
C33   C     C_R   0.375191 0.811439 0.180302 -0.112560
C34   C     C_R   0.519088 0.745604 0.193407 0.101825
C35   C     C_3   0.729477 0.758490 0.206177 -0.416321
C36   C     C_3   0.717047 0.689520 0.276905 -0.401756
H19   H     H_    0.764153 0.828976 0.227593 0.165504
H20   H     H_    0.814956 0.733379 0.152265 0.178991
H21   H     H_    0.744526 0.719872 0.339428 0.170210
H22   H     H_    0.795188 0.624483 0.263866 0.169402
O11   O     O_R   0.229000 0.916070 0.913330 -0.538808
O12   O     O_R   0.558770 0.905070 0.086080 -0.540990
O13   O     O_R   0.729000 0.083900 0.086690 -0.540956
C37   C     C_R   0.389703 0.882185 0.114196 0.685524
O14   O     O_R   0.558720 0.905070 0.913930 -0.539656
O15   O     O_R   0.728960 0.083900 0.913310 -0.540340
C38   C     C_R   0.389679 0.882993 0.885168 0.698309
O16   O     O_R   0.229050 0.916070 0.086710 -0.539647
O17   O     O_3   0.395460 0.058650 0.000020 -0.371287
V3    V     V_3+5 0.670340 0.989120 0.000000 1.387051
O18   O     O_R   0.058670 0.094960 0.913900 -0.537547
C39   C     C_R   0.888950 0.116073 0.884588 0.708585
O19   O     O_R   0.058720 0.094960 0.086050 -0.543958
C40   C     C_R   0.890136 0.116046 0.115600 0.694309
V4    V     V_3+5 0.170330 0.010930 0.999970 1.384588
O20   O     O_3   0.895340 0.941350 0.999980 -0.369225
C41   C     C_3   0.450232 0.074148 0.271359 -0.296020
C42   C     C_3   0.542054 0.037355 0.352700 -0.307813
C43   C     C_3   0.466073 0.942549 0.374668 -0.792975
H23   H     H_    0.306464 0.943171 0.377561 0.232699
H24   H     H_    0.514498 0.891968 0.327618 0.242140
H25   H     H_    0.523530 0.921164 0.436406 0.214965
H26   H     H_    0.700721 0.032260 0.345877 0.190204
H27   H     H_    0.510039 0.083752 0.405708 0.192559
H28   H     H_    0.291746 0.079157 0.279298 0.171772
H29   H     H_    0.478292 0.024188 0.220682 0.169536
O21   O     O_3   0.254659 0.425557 0.782436 -0.544362
C44   C     C_3   0.441339 0.426186 0.818543 0.112780
H30   H     H_    0.537657 0.371852 0.793545 0.133845
H31   H     H_    0.428941 0.416814 0.887089 0.124850
C45   C     C_3   0.537848 0.517667 0.803475 -0.733395
H32   H     H_    0.445770 0.574429 0.826652 0.236104
H33   H     H_    0.678001 0.519754 0.836835 0.177640
H34   H     H_    0.565218 0.525894 0.735994 0.219529

loop_
_geom_bond_atom_site_label_1
_geom_bond_atom_site_label_2
_ccdc_geom_bond_type
C41   C42   S    
C45   H32   S    
C9    C39   S    
O11   C38   A    
C4    C6    S    
C7    H1    S    
C20   C41   S    
C29   C36   S    
C1    O6    A    
O18   C39   A    
C24   C25   A    
C36   H22   S    
C23   H11   S    
C11   H4    S    
O19   C40   A    
C5    C12   S    
C17   C18   A    
C7    C8    A    
C16   H7    S    
O5    C3    A    
C13   C14   A    
C21   C28   S    
C36   H21   S    
V2    O10   S    
C44   H30   S    
C6    C7    A    
C32   C33   A    
V3    O20   S    
O11   V4    S    
O8    V2    S    
C14   C15   A    
C35   H19   S    
C41   H28   S    
C9    C10   A    
O1    V2    S    
C43   H24   S    
O14   V3    S    
O13   C40   A    
C28   H15   S    
C31   H17   S    
C45   H33   S    
O9    C4    A    
O21   C44   S    
C20   H10   S    
C23   C24   A    
C42   H27   S    
C31   C32   A    
C5    C10   A    
C27   C28   S    
C10   C11   S    
C19   H9    S    
O12   C37   A    
O15   C39   A    
O4    C2    A    
C1    C22   S    
C26   C27   S    
C30   C31   A    
V4    O20   S    
C14   C40   S    
O17   V3    S    
C13   C18   A    
C27   H13   S    
C15   C16   A    
O2    C1    A    
C21   C22   A    
C18   C19   S    
C24   H12   S    
C35   H20   S    
C41   H29   S    
C5    C6    A    
C43   H25   S    
O14   C38   A    
O3    C4    A    
O16   V4    S    
O19   V4    S    
C35   C36   S    
O6    V2    S    
C44   H31   S    
C8    C9    A    
C3    C17   S    
O2    V1    S    
O17   V4    S    
C22   C23   A    
C29   C34   A    
O7    V1    S    
C42   H26   S    
C2    C30   S    
O1    C2    A    
O15   V3    S    
O5    V1    S    
O8    C3    A    
C21   C26   A    
C33   C37   S    
C11   H3    S    
C44   C45   S    
C27   H14   S    
C15   H6    S    
O9    V2    S    
C11   C12   S    
O4    V1    S    
O12   V3    S    
O3    V1    S    
V1    O10   S    
C34   C35   S    
C19   H8    S    
C29   C30   A    
C19   C20   S    
O13   V3    S    
C25   C38   S    
C13   C20   S    
C16   C17   A    
O7    V2    S    
C32   H18   S    
C12   O21   S    
C33   C34   A    
C42   C43   S    
C12   H5    S    
C25   C26   A    
C37   O16   A    
C45   H34   S    
C43   H23   S    
C8    H2    S    
O18   V4    S    
C28   H16   S    
