data_mof_unit_52392.cif
_audit_creation_date              2012-12-11T17:19:16-0500
_audit_creation_method            fapswitch 2.2
_symmetry_space_group_name_H-M    P1
_symmetry_Int_Tables_number       1
_space_group_crystal_system       triclinic
_cell_length_a                    15.058633
_cell_length_b                    7.280768
_cell_length_c                    13.073629
_cell_angle_alpha                 90.538875
_cell_angle_beta                  100.160143
_cell_angle_gamma                 89.504008
_cell_volume                      1410.79654277

loop_
_atom_site_label
_atom_site_type_symbol
_atom_type_description
_atom_site_fract_x
_atom_site_fract_y
_atom_site_fract_z
_atom_type_partial_charge
O1    O     O_R   0.648180 0.355050 0.151550 -0.531270
O2    O     O_R   0.351820 0.644950 0.848450 -0.531263
O3    O     O_R   0.851820 0.855050 0.348450 -0.533122
O4    O     O_R   0.148180 0.144950 0.651550 -0.533130
O5    O     O_R   0.835240 0.681980 0.154280 -0.534616
O6    O     O_R   0.164760 0.318020 0.845720 -0.534628
O7    O     O_R   0.664760 0.181980 0.345720 -0.540272
O8    O     O_R   0.335240 0.818020 0.654280 -0.540287
C1    C     C_R   0.858249 0.514029 0.126532 0.704865
C2    C     C_R   0.141753 0.485973 0.873471 0.704853
C3    C     C_R   0.641359 0.016685 0.373155 0.701489
C4    C     C_R   0.358635 0.983314 0.626838 0.701498
O9    O     O_R   0.647870 0.684600 0.139630 -0.534241
O10   O     O_R   0.352130 0.315400 0.860370 -0.534232
O11   O     O_R   0.852130 0.184600 0.360370 -0.536224
O12   O     O_R   0.147870 0.815400 0.639630 -0.536198
O13   O     O_R   0.663110 0.857440 0.333700 -0.531627
O14   O     O_R   0.336890 0.142560 0.666300 -0.531605
O15   O     O_R   0.836890 0.357440 0.166300 -0.537044
O16   O     O_R   0.163110 0.642560 0.833700 -0.537034
C5    C     C_R   0.613750 0.516519 0.115161 0.722387
C6    C     C_R   0.386248 0.483481 0.884841 0.722349
C7    C     C_R   0.885866 0.016283 0.385445 0.729215
C8    C     C_R   0.114133 0.983716 0.614557 0.729194
H1    H     H_    0.486467 0.927960 0.761717 0.139631
H2    H     H_    0.513529 0.072165 0.238293 0.139623
H3    H     H_    0.011262 0.504353 0.733550 0.145305
H4    H     H_    0.988747 0.495461 0.266442 0.145301
O17   O     O_3   0.755220 0.522230 0.313690 -0.375270
O18   O     O_3   0.244780 0.477770 0.686310 -0.375265
O19   O     O_3   0.744780 0.022230 0.186310 -0.376987
O20   O     O_3   0.255220 0.977770 0.813690 -0.376992
V1    V     V_3+5 0.749030 0.796100 0.238190 1.399745
V2    V     V_3+5 0.250970 0.203900 0.761810 1.399779
V3    V     V_3+5 0.750970 0.296100 0.261810 1.387554
V4    V     V_3+5 0.249030 0.703900 0.738190 1.387567
C9    C     C_1   0.966419 0.005615 0.466243 -0.193730
C10   C     C_1   0.033581 0.994384 0.533756 -0.193727
C11   C     C_1   0.533457 0.505740 0.033938 -0.182924
C12   C     C_1   0.466540 0.494259 0.966065 -0.182944
C13   C     C_R   0.539868 0.947950 0.717700 -0.197692
C14   C     C_R   0.460127 0.052148 0.282307 -0.197688
C15   C     C_R   0.958699 0.496421 0.780034 -0.211552
C16   C     C_R   0.041305 0.503488 0.219954 -0.211552
C17   C     C_R   0.626760 0.940447 0.774188 0.140625
C18   C     C_R   0.373232 0.059764 0.225830 0.140670
C19   C     C_R   0.870811 0.493623 0.725401 0.130711
C20   C     C_R   0.129196 0.506294 0.274580 0.130759
C21   C     C_R   0.700279 0.969967 0.723577 0.214405
C22   C     C_R   0.299715 0.030182 0.276436 0.214366
C23   C     C_R   0.798760 0.481744 0.780265 0.214946
C24   C     C_R   0.201238 0.518336 0.219711 0.215039
C25   C     C_R   0.684675 0.993745 0.613155 0.084958
C26   C     C_R   0.315331 0.006085 0.386835 0.084903
C27   C     C_R   0.817719 0.458201 0.890040 0.085597
C28   C     C_R   0.182261 0.541941 0.109941 0.085404
C29   C     C_R   0.593513 0.993914 0.553438 0.006019
C30   C     C_R   0.406489 0.006024 0.446557 0.006035
C31   C     C_R   0.907544 0.485420 0.947586 0.012163
C32   C     C_R   0.092445 0.514627 0.052402 0.012172
C33   C     C_R   0.520605 0.977517 0.609190 -0.004306
C34   C     C_R   0.479394 0.022497 0.390809 -0.004313
C35   C     C_R   0.979281 0.494912 0.889933 0.002264
C36   C     C_R   0.020714 0.505075 0.110057 0.002287
C37   C     C_R   0.571447 0.012100 0.441779 -0.108046
C38   C     C_R   0.428552 0.987875 0.558217 -0.108060
C39   C     C_R   0.928969 0.499010 0.059217 -0.116393
C40   C     C_R   0.071024 0.500999 0.940775 -0.116396
C41   C     C_3   0.638248 0.895951 0.888793 -0.753540
H5    H     H_    0.682295 0.773612 0.906136 0.211750
H6    H     H_    0.668247 0.013054 0.936884 0.209405
H7    H     H_    0.573213 0.864398 0.913548 0.204931
C42   C     C_3   0.361744 0.104363 0.111237 -0.753507
H8    H     H_    0.317852 0.226939 0.093969 0.211689
H9    H     H_    0.426800 0.135569 0.086441 0.204931
H10   H     H_    0.331568 0.987448 0.063113 0.209435
C43   C     C_3   0.858631 0.501117 0.608077 -0.748708
H11   H     H_    0.788351 0.480875 0.567866 0.214915
H12   H     H_    0.882158 0.635900 0.584569 0.206997
H13   H     H_    0.899805 0.390885 0.579589 0.207461
C44   C     C_3   0.141387 0.498583 0.391899 -0.748815
H14   H     H_    0.211674 0.518691 0.432116 0.214916
H15   H     H_    0.100239 0.608784 0.420459 0.207486
H16   H     H_    0.117834 0.363767 0.415328 0.206991
C45   C     C_3   0.204537 0.027883 0.213147 -0.756749
H17   H     H_    0.200535 0.047938 0.128763 0.212462
H18   H     H_    0.172716 0.893601 0.221426 0.217394
H19   H     H_    0.163236 0.138477 0.240356 0.215800
C46   C     C_3   0.795443 0.972538 0.786896 -0.756658
H20   H     H_    0.799399 0.953323 0.871339 0.212457
H21   H     H_    0.836720 0.861554 0.760019 0.215742
H22   H     H_    0.827317 0.106631 0.778254 0.217405
C47   C     C_3   0.297502 0.506289 0.278568 -0.765533
H23   H     H_    0.304459 0.393820 0.335919 0.215977
H24   H     H_    0.346981 0.471965 0.227764 0.215668
H25   H     H_    0.316643 0.637405 0.319916 0.216261
C48   C     C_3   0.702504 0.493891 0.721395 -0.765515
H26   H     H_    0.695605 0.606211 0.663955 0.215991
H27   H     H_    0.683289 0.362704 0.680158 0.216216
H28   H     H_    0.653050 0.528526 0.772181 0.215715
C49   C     C_3   0.765907 0.019106 0.561542 -0.777026
H29   H     H_    0.771325 0.899510 0.510208 0.203141
H30   H     H_    0.760075 0.151566 0.520182 0.210770
H31   H     H_    0.831950 0.026074 0.613527 0.208856
C50   C     C_3   0.234122 0.980172 0.438414 -0.777019
H32   H     H_    0.228509 0.099728 0.489709 0.203006
H33   H     H_    0.168110 0.972687 0.386397 0.208921
H34   H     H_    0.240146 0.847745 0.479809 0.210864
C51   C     C_3   0.745258 0.375753 0.940669 -0.767529
H35   H     H_    0.773627 0.261589 0.991857 0.219688
H36   H     H_    0.715452 0.484846 0.982550 0.184007
H37   H     H_    0.690575 0.310845 0.884766 0.216992
C52   C     C_3   0.254668 0.624640 0.059324 -0.767444
H38   H     H_    0.226223 0.738752 0.008136 0.219750
H39   H     H_    0.309297 0.689680 0.115243 0.217008
H40   H     H_    0.284558 0.515667 0.017441 0.183996

loop_
_geom_bond_atom_site_label_1
_geom_bond_atom_site_label_2
_ccdc_geom_bond_type
C23   C48   S    
C16   C20   A    
C30   C34   A    
C47   H23   S    
C27   C31   A    
C42   H8    S    
O1    C5    A    
O3    C7    A    
C13   C33   A    
C44   H16   S    
C48   H26   S    
C15   C35   A    
C45   H17   S    
C16   C36   A    
O7    C3    A    
C50   H33   S    
O1    V3    S    
C49   H29   S    
C51   H36   S    
C14   C18   A    
O4    C8    A    
C43   H13   S    
O3    V1    S    
C20   C44   S    
O8    V4    S    
C41   H6    S    
C22   C45   S    
C44   H15   S    
C33   C38   A    
C30   C38   A    
C2    O16   A    
O5    V1    S    
O2    C6    A    
C8    C10   S    
C28   C52   S    
O19   V1    S    
C46   H21   S    
C14   C34   A    
C34   C37   A    
C43   H11   S    
C52   H40   S    
C31   C39   A    
O11   C7    A    
O12   C8    A    
C27   C51   S    
C42   H9    S    
O13   V1    S    
O11   V3    S    
C48   H27   S    
C1    O15   A    
C44   H14   S    
C43   H12   S    
C50   H34   S    
O4    V2    S    
C45   H18   S    
C17   C41   S    
C36   C39   A    
C51   H37   S    
H1    C13   S    
C11   C12   T    
C25   C29   A    
C19   C23   A    
C7    C9    S    
C4    C38   S    
H4    C16   S    
O6    V2    S    
O20   V2    S    
C41   H7    S    
C1    C39   S    
O5    C1    A    
C9    C10   T    
H3    C15   S    
C5    C11   S    
C17   C21   A    
O8    C4    A    
C6    C12   S    
O9    C5    A    
C24   C47   S    
C22   C26   A    
C46   H22   S    
O14   V2    S    
C47   H25   S    
C42   H10   S    
C31   C35   A    
C19   C43   S    
C48   H28   S    
H2    C14   S    
C52   H38   S    
C26   C30   A    
C45   H19   S    
O2    V4    S    
O17   V3    S    
C35   C40   A    
C3    O13   A    
C26   C50   S    
O7    V3    S    
C21   C46   S    
O10   V2    S    
O6    C2    A    
C29   C33   A    
C2    C40   S    
C49   H31   S    
C50   H32   S    
C18   C22   A    
C25   C49   S    
O18   V4    S    
C32   C36   A    
O10   C6    A    
O15   V3    S    
C51   H35   S    
O12   V4    S    
C47   H24   S    
C21   C25   A    
C23   C27   A    
C41   H5    S    
O16   V4    S    
C24   C28   A    
C20   C24   A    
C28   C32   A    
C32   C40   A    
C49   H30   S    
O9    V1    S    
C4    O14   A    
C13   C17   A    
C52   H39   S    
C46   H20   S    
C15   C19   A    
C18   C42   S    
C3    C37   S    
C29   C37   A    
