data_mof_unit_47789.cif
_audit_creation_date              2012-12-10T18:57:03-0500
_audit_creation_method            fapswitch 2.2
_symmetry_space_group_name_H-M    P1
_symmetry_Int_Tables_number       1
_space_group_crystal_system       triclinic
_cell_length_a                    10.719989
_cell_length_b                    9.83231
_cell_length_c                    10.757257
_cell_angle_alpha                 90.002814
_cell_angle_beta                  90.013535
_cell_angle_gamma                 89.997207
_cell_volume                      1133.83911154

loop_
_atom_site_label
_atom_site_type_symbol
_atom_type_description
_atom_site_fract_x
_atom_site_fract_y
_atom_site_fract_z
_atom_type_partial_charge
C1    C     C_R   0.259864 0.499951 0.499902 0.870611
C2    C     C_R   0.500647 0.618159 0.937978 0.007168
C3    C     C_R   0.499504 0.498193 0.129163 -0.089540
C4    C     C_R   0.500887 0.498205 0.870837 -0.089592
C5    C     C_R   0.500247 0.373661 0.064509 -0.218364
C6    C     C_R   0.500886 0.373668 0.935477 -0.219695
C7    C     C_3   0.500020 0.769493 0.927971 0.288386
C8    C     C_3   0.498703 0.769479 0.072076 0.288203
C9    C     C_R   0.063907 0.377723 0.519430 -0.197823
C10   C     C_R   0.936130 0.377737 0.519570 -0.192829
C11   C     C_R   0.872581 0.499955 0.500058 -0.007704
C12   C     C_R   0.740136 0.499950 0.500067 0.870357
C13   C     C_R   0.127420 0.499939 0.499837 -0.010329
C14   C     C_R   0.936093 0.622170 0.480440 -0.188647
C15   C     C_R   0.063872 0.622154 0.480288 -0.181657
C16   C     C_3   0.611520 0.959658 0.871700 -0.348829
C17   C     C_3   0.385608 0.958574 0.128268 -0.349881
C18   C     C_R   0.597500 0.071936 0.549893 -0.102696
C19   C     C_R   0.402490 0.071945 0.450122 -0.106363
C20   C     C_R   0.597590 0.928037 0.549694 -0.062510
C21   C     C_R   0.402416 0.928046 0.450297 -0.060040
C22   C     C_R   0.499692 0.499861 0.260367 0.900827
C23   C     C_R   0.500378 0.499866 0.739633 0.900688
C24   C     C_R   0.499296 0.618149 0.062038 0.006181
H1    H     H_    0.500371 0.276860 0.112638 0.161238
H2    H     H_    0.324729 0.126326 0.409706 0.127918
H3    H     H_    0.675439 0.873608 0.589887 0.152549
H4    H     H_    0.324591 0.873627 0.410067 0.148657
H5    H     H_    0.610865 0.004965 0.966359 0.153350
H6    H     H_    0.530709 0.997417 0.816626 0.161698
H7    H     H_    0.697686 0.994864 0.824589 0.192402
H8    H     H_    0.385563 0.003778 0.033570 0.154067
H9    H     H_    0.466266 0.997234 0.183040 0.161790
H10   H     H_    0.299296 0.992940 0.175640 0.192563
H11   H     H_    0.501234 0.276872 0.887333 0.160936
H12   H     H_    0.414036 0.807459 0.881027 0.103952
H13   H     H_    0.584373 0.808248 0.119038 0.103459
H14   H     H_    0.112516 0.282648 0.535273 0.153308
H15   H     H_    0.887559 0.282680 0.535526 0.149003
H16   H     H_    0.887483 0.717245 0.464599 0.152089
H17   H     H_    0.112445 0.717209 0.464318 0.151848
H18   H     H_    0.675230 0.126307 0.590362 0.123904
N1    N     N_R   0.500000 0.857200 0.500000 -0.081204
N2    N     N_R   0.500000 0.142810 0.500000 -0.075132
O1    O     O_R   0.316770 0.614620 0.499990 -0.632045
O2    O     O_3   0.384618 0.815339 0.122518 -0.591399
O3    O     O_R   0.683230 0.614620 0.500010 -0.632503
O4    O     O_R   0.316800 0.385290 0.500000 -0.634112
O5    O     O_R   0.683200 0.385290 0.500000 -0.633420
O6    O     O_R   0.500000 0.614690 0.316780 -0.596245
O7    O     O_R   0.500000 0.614690 0.683220 -0.594478
O8    O     O_R   0.500020 0.385360 0.316780 -0.630880
O9    O     O_R   0.499980 0.385360 0.683220 -0.632548
O10   O     O_3   0.613733 0.816446 0.877549 -0.590343
Zn1   Zn    Zn3+2 0.500000 0.653120 0.500000 0.976024
Zn2   Zn    Zn3+2 0.500000 0.346880 0.500000 0.937633

loop_
_geom_bond_atom_site_label_1
_geom_bond_atom_site_label_2
_ccdc_geom_bond_type
C2    C4    A    
C11   C12   S    
C19   H2    S    
C1    O4    A    
C20   H3    S    
C18   N2    A    
C8    H13   S    
O5    Zn2   S    
C9    C10   A    
N2    Zn2   S    
C18   C20   A    
C2    C7    S    
C22   O6    A    
C13   C15   A    
C12   O5    A    
C17   O2    S    
C7    C8    S    
C19   N2    A    
C16   H7    S    
C1    O1    A    
C3    C24   A    
C17   H9    S    
C12   O3    A    
C5    H1    S    
N1    Zn1   S    
C9    H14   S    
C19   C21   A    
C21   H4    S    
C23   O9    A    
O7    Zn1   S    
C10   C11   A    
C18   H18   S    
C2    C24   A    
C5    C6    A    
C17   H8    S    
C11   C14   A    
C16   O10   S    
C4    C6    A    
C1    C13   S    
C17   H10   S    
C16   H6    S    
O8    Zn2   S    
C20   N1    A    
C6    H11   S    
C15   H17   S    
C22   O8    A    
C7    H12   S    
O9    Zn2   S    
O1    Zn1   S    
O4    Zn2   S    
O3    Zn1   S    
C9    C13   A    
C14   C15   A    
C3    C22   S    
C7    O10   S    
C8    C24   S    
C16   H5    S    
C21   N1    A    
C14   H16   S    
C4    C23   S    
C8    O2    S    
C23   O7    A    
O6    Zn1   S    
C10   H15   S    
C3    C5    A    
