data_mof_unit_33882.cif
_audit_creation_date              2012-12-11T15:18:33-0500
_audit_creation_method            fapswitch 2.2
_symmetry_space_group_name_H-M    P1
_symmetry_Int_Tables_number       1
_space_group_crystal_system       triclinic
_cell_length_a                    6.944104
_cell_length_b                    19.828757
_cell_length_c                    23.866555
_cell_angle_alpha                 93.703524
_cell_angle_beta                  91.209507
_cell_angle_gamma                 88.655817
_cell_volume                      3277.85875564

loop_
_atom_site_label
_atom_site_type_symbol
_atom_type_description
_atom_site_fract_x
_atom_site_fract_y
_atom_site_fract_z
_atom_type_partial_charge
O1    O     O_R   0.620100 0.812200 0.810870 -0.538553
O2    O     O_R   0.379900 0.187800 0.189130 -0.538060
O3    O     O_R   0.296960 0.671650 0.794750 -0.535370
O4    O     O_R   0.703040 0.328350 0.205250 -0.535127
O5    O     O_R   0.120160 0.687800 0.689130 -0.519400
O6    O     O_R   0.879840 0.312200 0.310870 -0.528910
C1    C     C_R   0.468309 0.647214 0.805155 0.763344
C2    C     C_R   0.531692 0.352872 0.194968 0.757744
O7    O     O_R   0.290810 0.810670 0.817290 -0.546706
O8    O     O_R   0.709190 0.189330 0.182710 -0.548277
O9    O     O_R   0.113980 0.827820 0.711840 -0.529446
O10   O     O_R   0.886020 0.172180 0.288160 -0.531891
C3    C     C_R   0.459420 0.831676 0.834298 0.691157
C4    C     C_R   0.540569 0.168273 0.165732 0.691038
O11   O     O_R   0.626290 0.672180 0.788160 -0.537309
O12   O     O_R   0.373710 0.327820 0.211840 -0.539654
O13   O     O_3   0.451520 0.755460 0.715370 -0.357418
O14   O     O_3   0.548480 0.244540 0.284630 -0.362770
V1    V     V_3+5 0.179200 0.748980 0.756420 1.534510
V2    V     V_3+5 0.820800 0.251020 0.243580 1.507261
O15   O     O_R   0.783880 0.828350 0.705250 -0.544656
O16   O     O_R   0.216120 0.171650 0.294750 -0.539577
C5    C     C_R   0.949816 0.852588 0.694806 0.751379
C6    C     C_R   0.049645 0.147205 0.304762 0.764701
O17   O     O_R   0.790030 0.689320 0.682700 -0.536964
O18   O     O_R   0.209970 0.310680 0.317300 -0.537475
C7    C     C_R   0.959082 0.668434 0.665591 0.753458
C8    C     C_R   0.041149 0.331943 0.334205 0.775639
V3    V     V_3+5 0.678400 0.751010 0.743570 1.522609
V4    V     V_3+5 0.321600 0.248990 0.256430 1.510259
O19   O     O_3   0.955950 0.744540 0.784620 -0.377979
O20   O     O_3   0.044050 0.255460 0.215380 -0.381604
C9    C     C_R   0.179134 0.426665 0.395744 -0.194703
C10   C     C_R   0.830577 0.570096 0.606620 -0.149966
C11   C     C_R   0.031975 0.380310 0.384223 -0.072841
C12   C     C_R   0.970109 0.619495 0.616040 -0.100646
C13   C     C_R   0.874674 0.380756 0.420247 -0.107259
C14   C     C_R   0.123060 0.621402 0.578693 -0.142326
C15   C     C_R   0.865536 0.425389 0.468782 0.019995
C16   C     C_R   0.143139 0.572977 0.532876 0.021078
C17   C     C_R   0.010446 0.474481 0.478064 0.082701
C18   C     C_R   0.999690 0.523096 0.524060 0.062908
C19   C     C_R   0.166529 0.474905 0.441282 0.117938
C20   C     C_R   0.843019 0.522437 0.560765 0.089582
C21   C     C_R   0.713607 0.423643 0.507516 -0.035629
C22   C     C_R   0.298289 0.573433 0.494756 -0.024769
C23   C     C_R   0.701650 0.473481 0.551896 -0.221316
C24   C     C_R   0.308191 0.523677 0.450128 -0.211219
H1    H     H_    0.300795 0.426567 0.368122 0.153581
H2    H     H_    0.711798 0.568834 0.635128 0.170916
H3    H     H_    0.759680 0.346147 0.409686 0.167124
H4    H     H_    0.222091 0.662147 0.585720 0.196613
H5    H     H_    0.583357 0.472961 0.580782 0.160454
H6    H     H_    0.428703 0.522887 0.421904 0.148984
C25   C     C_R   0.945076 0.913399 0.662104 -0.129902
C26   C     C_R   0.045027 0.086879 0.337650 -0.134431
C27   C     C_R   0.818005 0.027236 0.655264 -0.113523
C28   C     C_R   0.048692 0.964912 0.336553 -0.113833
C29   C     C_R   0.844259 0.969991 0.685135 -0.134127
C30   C     C_R   0.046446 0.023816 0.308103 -0.156700
C31   C     C_R   0.020621 0.914154 0.607199 -0.079361
C32   C     C_R   0.041845 0.091239 0.397315 -0.071592
C33   C     C_R   0.969083 0.969316 0.573088 0.034815
C34   C     C_R   0.018869 0.030837 0.426488 0.033657
C35   C     C_R   0.877126 0.027310 0.599634 0.112804
C36   C     C_R   0.035982 0.967735 0.395135 0.105000
C37   C     C_R   0.996745 0.968738 0.513426 0.075842
C38   C     C_R   0.975030 0.030057 0.485064 0.072393
C39   C     C_R   0.885700 0.086051 0.514085 -0.122906
C40   C     C_R   0.018673 0.907851 0.480073 -0.132529
C41   C     C_R   0.836557 0.084410 0.569935 -0.157193
C42   C     C_R   0.034811 0.907440 0.422177 -0.167423
H7    H     H_    0.762788 0.128117 0.589867 0.143261
H8    H     H_    0.044810 0.859174 0.398214 0.142795
H9    H     H_    0.051449 0.020198 0.262639 0.176530
H10   H     H_    0.787151 0.970078 0.727073 0.152653
H11   H     H_    0.743578 0.070851 0.675087 0.141274
H12   H     H_    0.056644 0.916718 0.312446 0.152754
H13   H     H_    0.837237 0.130075 0.493040 0.152185
H14   H     H_    0.006470 0.859188 0.497192 0.139477
C43   C     C_R   0.484827 0.584222 0.835424 -0.128260
C44   C     C_R   0.515038 0.416186 0.165188 -0.126536
C45   C     C_R   0.540845 0.463250 0.837244 -0.165706
C46   C     C_R   0.459434 0.537273 0.164255 -0.174722
C47   C     C_R   0.525745 0.521139 0.806627 -0.021827
C48   C     C_R   0.476106 0.479106 0.194525 -0.020908
C49   C     C_R   0.466910 0.587677 0.894290 -0.168081
C50   C     C_R   0.529502 0.413175 0.106255 -0.179402
C51   C     C_R   0.500055 0.530022 0.926175 0.104847
C52   C     C_R   0.493860 0.471051 0.074849 0.119256
C53   C     C_R   0.521918 0.466939 0.895765 0.079372
C54   C     C_R   0.474191 0.533958 0.105594 0.113689
C55   C     C_R   0.502297 0.531901 0.986743 0.019272
C56   C     C_R   0.488173 0.469425 0.014337 -0.004062
C57   C     C_R   0.469190 0.408090 0.980144 -0.028397
C58   C     C_R   0.519416 0.593319 0.021026 -0.096263
C59   C     C_R   0.507745 0.407185 0.922911 -0.196338
C60   C     C_R   0.485856 0.593854 0.078518 -0.237357
H15   H     H_    0.505272 0.359497 0.897900 0.169469
H16   H     H_    0.490344 0.641393 0.103691 0.140429
H17   H     H_    0.573502 0.365260 0.085977 0.113819
H18   H     H_    0.420828 0.635652 0.913961 0.114030
H19   H     H_    0.560641 0.414200 0.815002 0.165001
H20   H     H_    0.441107 0.586193 0.186816 0.164345
C61   C     C_R   0.670730 0.067205 0.109241 -0.115216
C62   C     C_R   0.328940 0.932489 0.890960 -0.121273
C63   C     C_R   0.530837 0.119165 0.116276 -0.104413
C64   C     C_R   0.468858 0.880557 0.883904 -0.110785
C65   C     C_R   0.379689 0.123244 0.076733 -0.067076
C66   C     C_R   0.618926 0.876064 0.923736 -0.054438
C67   C     C_R   0.367090 0.076005 0.030460 0.095988
C68   C     C_R   0.630995 0.923112 0.970164 0.117058
C69   C     C_R   0.506894 0.023480 0.023538 0.036943
C70   C     C_R   0.491146 0.975629 0.977089 0.018427
C71   C     C_R   0.661256 0.018651 0.063232 0.014543
C72   C     C_R   0.336694 0.980434 0.937414 -0.024006
C73   C     C_R   0.214305 0.080328 0.991553 -0.207399
C74   C     C_R   0.782783 0.918420 0.009366 -0.216375
C75   C     C_R   0.196609 0.033408 0.945282 0.443766
C76   C     C_R   0.799575 0.965041 0.055880 0.413406
H21   H     H_    0.783283 0.064534 0.140969 0.188531
H22   H     H_    0.218176 0.935718 0.858789 0.194655
H23   H     H_    0.271476 0.163359 0.082072 0.108618
H24   H     H_    0.726914 0.835871 0.918441 0.128565
H25   H     H_    0.108064 0.120903 0.997408 0.184028
H26   H     H_    0.888577 0.877710 0.003589 0.161888
C77   C     C_2   0.461468 0.487103 0.256745 0.725591
O21   O     O_2   0.540470 0.446435 0.286578 -0.580539
O22   O     O_R   0.360210 0.542788 0.281397 -0.652032
H27   H     H_    0.361462 0.543478 0.323874 0.303536
C78   C     C_2   0.543348 0.512567 0.744544 0.727181
O23   O     O_2   0.464118 0.552523 0.714107 -0.572533
O24   O     O_R   0.647374 0.457028 0.720731 -0.653618
H28   H     H_    0.647404 0.455655 0.678249 0.296557
C79   C     C_2   0.380079 0.346557 0.999657 0.754776
O25   O     O_2   0.438366 0.290398 0.982575 -0.547397
O26   O     O_R   0.224780 0.352919 0.036167 -0.657799
H29   H     H_    0.176216 0.307542 0.046342 0.292623
C80   C     C_2   0.603684 0.655707 0.001409 0.783973
O27   O     O_2   0.751357 0.651558 0.974381 -0.530675
O28   O     O_R   0.519989 0.719544 0.014265 -0.643977
H30   H     H_    0.392419 0.717519 0.033845 0.272953
S1    S     S_3+6 0.999820 0.044643 0.897864 -0.024253
O29   O     O_2   0.074493 0.068352 0.844037 -0.316147
O30   O     O_2   0.899316 0.978935 0.885566 -0.378093
O31   O     O_3   0.840969 0.102492 0.925216 -0.499644
H31   H     H_    0.720416 0.095202 0.902934 0.375801
S2    S     S_3+6 0.991188 0.952387 0.104767 -0.011738
O32   O     O_2   0.103661 0.015936 0.114597 -0.342979
O33   O     O_2   0.909134 0.934850 0.159639 -0.339783
O34   O     O_3   0.142148 0.889719 0.081188 -0.484840
H32   H     H_    0.080279 0.847410 0.090392 0.349728
C81   C     C_2   0.572673 0.368238 0.505650 0.764759
O35   O     O_2   0.405798 0.380343 0.519073 -0.553585
O36   O     O_R   0.633159 0.301554 0.491949 -0.653329
H33   H     H_    0.524941 0.268346 0.493090 0.301711
C82   C     C_2   0.451619 0.625004 0.498431 0.762312
O37   O     O_2   0.516554 0.644693 0.455264 -0.546108
O38   O     O_R   0.527693 0.649403 0.550256 -0.671945
H34   H     H_    0.631084 0.684008 0.546466 0.299241
C83   C     C_2   0.090239 0.156524 0.428032 0.720650
O39   O     O_2   0.014229 0.209428 0.414447 -0.568265
O40   O     O_R   0.221460 0.157035 0.473291 -0.652775
H35   H     H_    0.236555 0.203832 0.492334 0.305381
C84   C     C_2   0.169530 0.862595 0.589322 0.724384
O41   O     O_2   0.143709 0.802587 0.594690 -0.583067
O42   O     O_R   0.339162 0.883109 0.565538 -0.648575
H36   H     H_    0.429586 0.843711 0.554805 0.302360

loop_
_geom_bond_atom_site_label_1
_geom_bond_atom_site_label_2
_ccdc_geom_bond_type
S1    O31   S    
V4    O20   S    
C33   C35   A    
C55   C56   A    
C52   C56   A    
C25   C29   A    
C17   C19   A    
C17   C18   A    
O40   H35   S    
S2    O34   S    
C6    C26   S    
O4    C2    A    
V1    O19   S    
C58   C80   S    
C68   C70   A    
C83   O39   D    
C54   C60   A    
C79   O25   D    
C15   C17   A    
C24   H6    S    
C61   C63   A    
O9    V1    S    
C84   O41   D    
C45   H19   S    
C2    C44   S    
C34   C38   A    
O16   C6    A    
C11   C13   A    
C31   C84   S    
C46   C48   A    
C69   C70   A    
O3    C1    A    
C73   C75   A    
C13   H3    S    
C27   C29   A    
C32   C83   S    
C14   H4    S    
C28   C30   A    
S1    O29   D    
C75   S1    S    
S1    O30   D    
C2    O12   A    
C39   C41   A    
O7    C3    A    
C32   C34   A    
C59   H15   S    
O5    C7    A    
C28   C36   A    
C82   O37   D    
C36   C42   A    
C8    C11   S    
O8    V2    S    
C38   C39   A    
C58   C60   A    
O34   H32   S    
O3    V1    S    
O14   V4    S    
C51   C53   A    
C19   C24   A    
C10   C12   A    
C20   C23   A    
C23   H5    S    
C66   H24   S    
C16   C18   A    
C82   O38   S    
C63   C65   A    
C62   H22   S    
C21   C81   S    
C18   C20   A    
C3    C64   S    
C57   C79   S    
C83   O40   S    
O7    V1    S    
O11   V3    S    
C22   C24   A    
C21   C23   A    
O17   V3    S    
C13   C15   A    
C33   C37   A    
C10   H2    S    
C40   H14   S    
C37   C38   A    
C9    C19   A    
C27   H11   S    
C10   C20   A    
S2    O32   D    
C42   H8    S    
O8    C4    A    
C27   C35   A    
O42   H36   S    
C41   H7    S    
C65   H23   S    
C1    O11   A    
C44   C48   A    
C22   C82   S    
O15   V3    S    
C26   C30   A    
C62   C72   A    
C34   C36   A    
C16   C22   A    
C77   O22   S    
C68   C74   A    
C49   H18   S    
C52   C54   A    
O38   H34   S    
O10   V2    S    
O1    V3    S    
C61   H21   S    
C67   C69   A    
C53   C59   A    
C46   C54   A    
C43   C49   A    
C74   C76   A    
C4    C63   S    
C45   C47   A    
C50   C52   A    
C76   S2    S    
C55   C58   A    
C60   H16   S    
O15   C5    A    
O24   H28   S    
C46   H20   S    
C26   C32   A    
C39   H13   S    
C81   O36   S    
O2    V4    S    
C78   O23   D    
C45   C53   A    
C73   H25   S    
O31   H31   S    
V2    O20   S    
C79   O26   S    
O16   V4    S    
C1    C43   S    
C48   C77   S    
C61   C71   A    
C31   C33   A    
C50   H17   S    
S2    O33   D    
C78   O24   S    
C70   C72   A    
C80   O27   D    
C57   C59   A    
C5    C25   S    
O5    V1    S    
C7    C12   S    
O17   C7    A    
O6    V2    S    
O26   H29   S    
O10   C6    A    
C30   H9    S    
O18   C8    A    
C72   C75   A    
C15   C21   A    
C67   C73   A    
C37   C40   A    
C65   C67   A    
O22   H27   S    
V3    O19   S    
C35   C41   A    
O13   V3    S    
C47   C78   S    
C12   C14   A    
C14   C16   A    
C80   O28   S    
C9    C11   A    
C62   C64   A    
C44   C50   A    
C25   C31   A    
O9    C5    A    
O13   V1    S    
C64   C66   A    
O14   V2    S    
C51   C55   A    
C56   C57   A    
O2    C4    A    
C66   C68   A    
C28   H12   S    
O4    V2    S    
O6    C8    A    
O1    C3    A    
C84   O42   S    
C71   C76   A    
C9    H1    S    
O36   H33   S    
C49   C51   A    
C40   C42   A    
C74   H26   S    
C81   O35   D    
O28   H30   S    
O12   V4    S    
C29   H10   S    
C43   C47   A    
C77   O21   D    
C69   C71   A    
O18   V4    S    
