data_mof_unit_39279.cif
_audit_creation_date              2012-10-26T19:45:10-0400
_audit_creation_method            fapswitch 2.2
_symmetry_space_group_name_H-M    P1
_symmetry_Int_Tables_number       1
_space_group_crystal_system       triclinic
_cell_length_a                    9.52072
_cell_length_b                    10.818204
_cell_length_c                    13.878862
_cell_angle_alpha                 89.874917
_cell_angle_beta                  84.759151
_cell_angle_gamma                 89.626819
_cell_volume                      1423.47450081

loop_
_atom_site_label
_atom_site_type_symbol
_atom_type_description
_atom_site_fract_x
_atom_site_fract_y
_atom_site_fract_z
_atom_type_partial_charge
C1    C     C_R   0.499776 0.737741 0.496526 0.590065
C2    C     C_R   0.934486 0.427353 0.436985 0.057523
C3    C     C_1   0.536793 0.505095 0.213879 -0.007537
C4    C     C_1   0.463272 0.494270 0.786123 0.010062
C5    C     C_2   0.556046 0.518683 0.022244 0.302459
C6    C     C_2   0.443831 0.481095 0.977796 0.299663
C7    C     C_1   0.452975 0.488388 0.872879 0.001159
C8    C     C_1   0.547032 0.511082 0.127133 -0.011890
C9    C     C_R   0.590632 0.931472 0.553026 -0.163682
C10   C     C_R   0.408679 0.068770 0.447568 -0.148718
C11   C     C_R   0.592092 0.059541 0.559361 0.193869
C12   C     C_R   0.500158 0.262322 0.503484 0.580442
C13   C     C_R   0.406715 0.940735 0.441513 0.248692
C14   C     C_3   0.213705 0.403934 0.979271 -0.007887
C15   C     C_3   0.089682 0.359929 0.047222 -0.356361
C16   C     C_3   0.783867 0.600862 0.021119 -0.005952
C17   C     C_3   0.907333 0.646280 0.953303 -0.354788
C18   C     C_R   0.500951 0.128462 0.504712 -0.040015
C19   C     C_R   0.498594 0.871706 0.495645 -0.030956
C20   C     C_R   0.477125 0.499546 0.683056 0.568555
C21   C     C_R   0.522898 0.499991 0.316947 0.570454
C22   C     C_R   0.916732 0.572821 0.562941 0.055586
C23   C     C_R   0.083274 0.427218 0.437030 0.040802
C24   C     C_R   0.065528 0.572757 0.562936 0.063426
Cu1   Cu    Cu3+1 0.359340 0.499980 0.500000 1.024565
Cu2   Cu    Cu3+1 0.640660 0.500020 0.500000 1.040432
H1    H     H_    0.853616 0.631371 0.613254 0.117385
H2    H     H_    0.999598 0.337193 0.005072 0.123652
H3    H     H_    0.120156 0.276107 0.086921 0.182790
H4    H     H_    0.821057 0.521653 0.063549 0.127171
H5    H     H_    0.747937 0.677994 0.070566 0.157455
H6    H     H_    0.874693 0.727942 0.911924 0.183526
H7    H     H_    0.995760 0.672873 0.995763 0.114225
H8    H     H_    0.943852 0.571954 0.901712 0.158254
H9    H     H_    0.886481 0.124807 0.536302 0.338595
H10   H     H_    0.313361 0.726378 0.255395 0.368443
H11   H     H_    0.146388 0.368658 0.386723 0.116878
H12   H     H_    0.114496 0.631272 0.613208 0.119218
H13   H     H_    0.885526 0.368858 0.386696 0.113916
H14   H     H_    0.659404 0.877288 0.594974 0.170026
H15   H     H_    0.339940 0.123064 0.405678 0.171303
H16   H     H_    0.245884 0.327537 0.928149 0.160936
H17   H     H_    0.178678 0.485701 0.938724 0.125017
H18   H     H_    0.056551 0.433612 0.100258 0.151152
N1    N     N_R   0.147930 0.499970 0.499980 -0.221976
N2    N     N_R   0.852070 0.500030 0.500020 -0.215549
O1    O     O_R   0.381260 0.680340 0.500000 -0.440562
O2    O     O_3   0.674283 0.563726 0.965751 -0.571644
O3    O     O_2   0.622701 0.226559 0.698560 -0.241178
O4    O     O_2   0.754467 0.033046 0.708116 -0.279303
O5    O     O_3   0.843089 0.192469 0.577028 -0.485802
O6    O     O_2   0.170546 0.814779 0.419464 -0.275926
O7    O     O_2   0.241179 0.968533 0.295071 -0.291006
O8    O     O_3   0.383759 0.763570 0.294781 -0.520747
O9    O     O_R   0.618740 0.319660 0.500000 -0.440708
O10   O     O_R   0.618830 0.680370 0.500010 -0.521580
O11   O     O_R   0.381170 0.319630 0.499990 -0.518987
O12   O     O_R   0.364420 0.499960 0.637840 -0.521380
O13   O     O_R   0.635580 0.500040 0.362160 -0.516869
O14   O     O_R   0.601990 0.499990 0.637850 -0.462996
O15   O     O_R   0.398010 0.500010 0.362150 -0.480606
O16   O     O_3   0.325770 0.435683 0.034265 -0.579360
S1    S     S_3+6 0.703033 0.128097 0.640146 0.042642
S2    S     S_3+6 0.294335 0.872561 0.361601 0.023624

loop_
_geom_bond_atom_site_label_1
_geom_bond_atom_site_label_2
_ccdc_geom_bond_type
C5    C8    S    
C24   H12   S    
C11   C18   A    
C21   O13   A    
C6    C7    S    
O3    S1    D    
O6    S2    D    
C20   O14   A    
Cu2   O13   S    
Cu1   O1    S    
C21   O15   A    
C14   H16   S    
Cu2   O9    S    
C6    O16   S    
Cu1   O15   S    
C2    N2    A    
C16   H5    S    
O4    S1    D    
C9    C11   A    
C16   O2    S    
C15   H2    S    
C16   C17   S    
C13   S2    S    
C17   H7    S    
C10   C18   A    
C4    C7    T    
C23   N1    A    
C24   N1    A    
C5    O2    S    
C1    O10   A    
C15   H18   S    
C15   H3    S    
C11   S1    S    
C22   H1    S    
Cu2   N2    S    
H9    O5    S    
C5    C6    D    
O7    S2    D    
C22   C24   A    
C3    C21   S    
C12   O9    A    
H10   O8    S    
C17   H8    S    
C12   O11   A    
C16   H4    S    
C14   O16   S    
Cu1   N1    S    
Cu1   O11   S    
O5    S1    S    
O8    S2    S    
Cu2   O14   S    
C3    C8    T    
Cu1   O12   S    
C12   C18   S    
C2    C23   A    
C17   H6    S    
C13   C19   A    
C14   C15   S    
C1    O1    A    
C22   N2    A    
Cu1   Cu2   S    
C23   H11   S    
C1    C19   S    
C20   O12   A    
C2    H13   S    
C9    C19   A    
C9    H14   S    
Cu2   O10   S    
C14   H17   S    
C10   H15   S    
C10   C13   A    
C4    C20   S    
