data_mof_unit_32427.cif
_audit_creation_date              2012-10-26T18:54:13-0400
_audit_creation_method            fapswitch 2.2
_symmetry_space_group_name_H-M    P1
_symmetry_Int_Tables_number       1
_space_group_crystal_system       triclinic
_cell_length_a                    14.677412
_cell_length_b                    14.655231
_cell_length_c                    23.537096
_cell_angle_alpha                 76.584139
_cell_angle_beta                  103.017932
_cell_angle_gamma                 115.52253
_cell_volume                      4398.6205552

loop_
_atom_site_label
_atom_site_type_symbol
_atom_type_description
_atom_site_fract_x
_atom_site_fract_y
_atom_site_fract_z
_atom_type_partial_charge
C1    C     C_R   0.879694 0.311431 0.509967 0.553288
C2    C     C_R   0.926377 0.520372 0.284735 -0.144666
C3    C     C_R   0.922631 0.518498 0.747181 -0.054638
C4    C     C_R   0.927030 0.520607 0.225580 -0.057677
C5    C     C_R   0.997535 0.499080 0.790554 0.245015
C6    C     C_R   0.002301 0.501117 0.209371 0.245575
C7    C     C_R   0.811953 0.201734 0.519507 -0.048932
C8    C     C_R   0.188344 0.796547 0.493169 -0.043691
C9    C     C_R   0.787184 0.022267 0.544794 0.242796
C10   C     C_R   0.215988 0.968164 0.504211 0.248292
C11   C     C_R   0.851347 0.126750 0.534206 -0.121289
C12   C     C_R   0.120280 0.688357 0.490875 0.549013
C13   C     C_R   0.150019 0.867985 0.494392 -0.119032
C14   C     C_R   0.707594 0.172376 0.516194 -0.095046
C15   C     C_R   0.293269 0.825231 0.501389 -0.145459
C16   C     C_R   0.999631 0.499832 0.608988 0.556665
C17   C     C_R   0.000368 0.500185 0.391005 0.551032
C18   C     C_R   0.641845 0.070036 0.532536 -0.010070
C19   C     C_R   0.361593 0.920304 0.517992 -0.044682
C20   C     C_R   0.680135 0.992070 0.543319 0.044729
C21   C     C_R   0.323851 0.996508 0.514693 0.070574
C22   C     C_R   0.537061 0.044398 0.533828 0.028133
C23   C     C_R   0.072941 0.479733 0.774392 -0.056105
C24   C     C_R   0.467562 0.942027 0.534053 -0.034110
C25   C     C_R   0.506213 0.864122 0.552511 0.219753
C26   C     C_R   0.500407 0.117362 0.537933 0.227062
C27   C     C_R   0.610264 0.887676 0.553350 0.055052
C28   C     C_R   0.395289 0.097130 0.523129 0.007643
C29   C     C_R   0.712266 0.662432 0.397539 -0.152445
C30   C     C_R   0.295118 0.349575 0.607441 -0.150391
C31   C     C_R   0.794254 0.633451 0.414008 0.043261
C32   C     C_R   0.207826 0.369306 0.587187 0.048758
C33   C     C_R   0.718246 0.515602 0.495007 0.042705
C34   C     C_R   0.077125 0.481489 0.252716 -0.057463
C35   C     C_R   0.284795 0.490420 0.507424 0.057314
C36   C     C_R   0.633146 0.543027 0.481195 0.003524
C37   C     C_R   0.375946 0.473393 0.525474 0.015288
C38   C     C_R   0.631136 0.616978 0.430632 0.037286
C39   C     C_R   0.379642 0.401858 0.577095 0.037322
C40   C     C_R   0.078314 0.578192 0.119636 0.397587
C41   C     C_R   0.921464 0.422067 0.880274 0.398069
C42   C     C_R   0.549877 0.498776 0.514736 0.016472
C43   C     C_R   0.462552 0.523872 0.494424 0.021070
C44   C     C_R   0.464967 0.598517 0.443894 -0.136293
C45   C     C_R   0.073659 0.479912 0.715255 -0.142004
C46   C     C_R   0.551413 0.431117 0.568117 -0.146928
C47   C     C_R   0.548133 0.644736 0.413192 -0.128474
C48   C     C_R   0.467763 0.383501 0.598419 -0.144499
C49   C     C_R   0.926824 0.424678 0.120678 0.395632
C50   C     C_R   0.072909 0.575622 0.879218 0.396384
C51   C     C_R   0.924412 0.423257 0.061092 0.014088
C52   C     C_R   0.075304 0.577062 0.938800 0.014058
C53   C     C_R   0.001211 0.501115 0.030079 -0.043881
C54   C     C_R   0.998513 0.499198 0.969815 -0.043787
C55   C     C_R   0.080381 0.580561 0.059294 0.041384
C56   C     C_R   0.076651 0.481175 0.311939 -0.146097
C57   C     C_R   0.919353 0.419742 0.940603 0.041319
C58   C     C_R   0.846404 0.345126 0.032430 -0.102515
C59   C     C_R   0.153291 0.655214 0.967455 -0.102007
C60   C     C_R   0.842262 0.341835 0.972932 -0.015704
C61   C     C_R   0.157441 0.658500 0.026955 -0.015228
C62   C     C_3   0.754343 0.254162 0.946436 -0.344765
C63   C     C_3   0.245322 0.746212 0.053441 -0.345842
C64   C     C_3   0.643366 0.799307 0.564777 -0.290607
C65   C     C_3   0.364021 0.186657 0.510755 -0.344338
C66   C     C_R   0.998805 0.499534 0.671470 0.005361
C67   C     C_R   0.001150 0.500534 0.328499 0.003150
C68   C     C_R   0.923159 0.518741 0.687979 -0.140255
Cu1   Cu    Cu3+1 0.081740 0.475680 0.515360 0.948434
Cu2   Cu    Cu3+1 0.918260 0.524320 0.484640 0.944811
H1    H     H_    0.787580 0.285616 0.056705 0.166360
H2    H     H_    0.296855 0.294393 0.646865 0.101881
H3    H     H_    0.403811 0.623801 0.426947 0.100842
H4    H     H_    0.616777 0.413545 0.587944 0.118650
H5    H     H_    0.130869 0.464371 0.807766 0.131173
H6    H     H_    0.135436 0.466216 0.240439 0.129035
H7    H     H_    0.132805 0.464749 0.703894 0.133706
H8    H     H_    0.135323 0.465816 0.344652 0.128478
H9    H     H_    0.864409 0.533923 0.655246 0.129630
H10   H     H_    0.867338 0.535663 0.296124 0.130817
H11   H     H_    0.864215 0.533660 0.759420 0.130665
H12   H     H_    0.212098 0.714741 0.943174 0.167149
H13   H     H_    0.869161 0.536126 0.192228 0.129942
H14   H     H_    0.321236 0.771550 0.495130 0.183809
H15   H     H_    0.677804 0.230683 0.499259 0.198204
H16   H     H_    0.068244 0.845189 0.489046 0.123617
H17   H     H_    0.932677 0.149404 0.536810 0.124859
H18   H     H_    0.903796 0.984801 0.556513 0.326744
H19   H     H_    0.099834 0.003516 0.499111 0.323154
H20   H     H_    0.396505 0.770069 0.596785 0.340056
H21   H     H_    0.529845 0.220573 0.585968 0.325852
H22   H     H_    0.702350 0.202413 0.978836 0.106336
H23   H     H_    0.546671 0.701806 0.374710 0.117483
H24   H     H_    0.707822 0.284079 0.909346 0.178831
H25   H     H_    0.783567 0.206907 0.931214 0.183553
H26   H     H_    0.297254 0.798024 0.021022 0.106747
H27   H     H_    0.216053 0.793390 0.068699 0.182538
H28   H     H_    0.291922 0.716344 0.090503 0.177592
H29   H     H_    0.579193 0.722973 0.568481 0.177490
H30   H     H_    0.679589 0.802768 0.527253 0.166047
H31   H     H_    0.696505 0.801590 0.606773 0.178290
H32   H     H_    0.430021 0.261418 0.505960 0.139344
H33   H     H_    0.313998 0.186439 0.467658 0.179974
H34   H     H_    0.471732 0.330671 0.638710 0.116433
H35   H     H_    0.325062 0.183674 0.546881 0.179598
H36   H     H_    0.275533 0.544348 0.469322 0.116756
H37   H     H_    0.724685 0.457933 0.531548 0.135969
H38   H     H_    0.143074 0.330355 0.611098 0.127003
H39   H     H_    0.857309 0.668912 0.388750 0.126782
H40   H     H_    0.712157 0.719833 0.359069 0.099305
N1    N     N_R   0.002629 0.501214 0.148437 -0.395443
N2    N     N_R   0.997148 0.499043 0.851472 -0.395811
N3    N     N_R   0.795430 0.560810 0.461550 -0.235455
N4    N     N_R   0.204570 0.439190 0.538450 -0.232713
O1    O     O_R   0.977900 0.338110 0.520250 -0.501208
O2    O     O_2   0.849775 0.348248 0.850258 -0.515504
O3    O     O_2   0.854159 0.349650 0.150978 -0.502370
O4    O     O_2   0.145551 0.650667 0.848911 -0.499173
O5    O     O_3   0.829283 0.950449 0.557780 -0.733739
O6    O     O_3   0.175339 0.035849 0.507394 -0.732291
O7    O     O_3   0.446415 0.765987 0.576282 -0.725552
O8    O     O_3   0.567238 0.203397 0.562748 -0.734730
O9    O     O_R   0.022100 0.661890 0.479750 -0.502262
O10   O     O_R   0.839850 0.379180 0.494310 -0.497286
O11   O     O_R   0.160150 0.620820 0.505690 -0.496074
O12   O     O_R   0.069020 0.479430 0.595090 -0.502466
O13   O     O_R   0.930980 0.520570 0.404910 -0.505499
O14   O     O_R   0.930970 0.520500 0.569150 -0.504714
O15   O     O_R   0.069030 0.479500 0.430850 -0.507960
O16   O     O_2   0.150056 0.651958 0.149668 -0.519424

loop_
_geom_bond_atom_site_label_1
_geom_bond_atom_site_label_2
_ccdc_geom_bond_type
Cu2   O13   S    
C66   C68   A    
C34   C56   A    
C8    C13   A    
C23   C45   A    
C6    N1    S    
C14   C18   A    
C36   C42   A    
C3    C68   A    
C33   H37   S    
C59   H12   S    
C53   C54   A    
C15   C19   A    
C64   H29   S    
C19   C21   A    
C63   H28   S    
C58   H1    S    
C58   C60   A    
C48   H34   S    
C33   C36   A    
C56   H8    S    
C35   N4    A    
C60   C62   S    
C42   C46   A    
C61   C63   S    
Cu2   O9    S    
C7    C14   A    
C49   O3    S    
C11   H17   S    
C49   C51   A    
C41   N2    A    
C62   H22   S    
C13   H16   S    
C3    H11   S    
C50   C52   A    
C44   C47   A    
C49   N1    A    
C68   H9    S    
Cu1   O11   S    
Cu2   N3    S    
C1    C7    S    
C62   H25   S    
Cu1   Cu2   S    
C65   H32   S    
C65   H35   S    
C52   C54   A    
C7    C11   A    
C40   N1    A    
C53   C55   A    
C10   C21   A    
C31   H39   S    
C64   H31   S    
C37   C39   A    
C46   C48   A    
Cu1   N4    S    
C59   C61   A    
C17   C67   S    
C17   O15   A    
C29   H40   S    
C2    H10   S    
C24   C25   A    
C4    C6    A    
C2    C67   A    
C17   O13   A    
C57   C60   A    
C4    H13   S    
C12   O11   A    
C63   H26   S    
H21   O8    S    
C6    C34   A    
C51   C53   A    
C29   C38   A    
C2    C4    A    
C43   C44   A    
C52   C59   A    
C16   O14   A    
C9    C20   A    
C5    C23   A    
H19   O6    S    
C8    C12   S    
C40   C55   A    
C50   N2    A    
C47   H23   S    
C51   C58   A    
H18   O5    S    
C9    C11   A    
C38   C47   A    
C5    N2    S    
C21   C28   A    
Cu1   O12   S    
C8    C15   A    
C62   H24   S    
C22   C26   A    
C9    O5    S    
H20   O7    S    
C22   C24   A    
C37   C43   A    
C16   C66   S    
C42   C43   A    
C65   H33   S    
C41   O2    S    
C46   H4    S    
Cu2   O14   S    
C40   O16   S    
Cu1   O1    S    
C35   C37   A    
C50   O4    S    
C33   N3    A    
C63   H27   S    
C14   H15   S    
C23   H5    S    
C3    C5    A    
C10   C13   A    
C30   H2    S    
C15   H14   S    
C20   C27   A    
C25   C27   A    
C56   C67   A    
C1    O1    A    
C26   C28   A    
C18   C22   A    
C19   C24   A    
C1    O10   A    
C41   C57   A    
C29   C31   A    
C35   H36   S    
C30   C32   A    
C12   O9    A    
C16   O12   A    
C55   C61   A    
C36   C38   A    
C30   C39   A    
C28   C65   S    
C18   C20   A    
C44   H3    S    
C10   O6    S    
C27   C64   S    
Cu2   O10   S    
C64   H30   S    
Cu1   O15   S    
C32   H38   S    
C45   C66   A    
C45   H7    S    
C26   O8    S    
C32   N4    A    
C25   O7    S    
C31   N3    A    
C34   H6    S    
C39   C48   A    
C54   C57   A    
