data_mof_unit_22365.cif
_audit_creation_date              2012-12-11T16:25:33-0500
_audit_creation_method            fapswitch 2.2
_symmetry_space_group_name_H-M    P1
_symmetry_Int_Tables_number       1
_space_group_crystal_system       triclinic
_cell_length_a                    20.330484
_cell_length_b                    7.267651
_cell_length_c                    13.331993
_cell_angle_alpha                 90.000045
_cell_angle_beta                  103.448399
_cell_angle_gamma                 90.000517
_cell_volume                      1915.85258763

loop_
_atom_site_label
_atom_site_type_symbol
_atom_type_description
_atom_site_fract_x
_atom_site_fract_y
_atom_site_fract_z
_atom_type_partial_charge
O1    O     O_R   0.449520 0.506760 0.599710 -0.531052
O2    O     O_R   0.550480 0.006760 0.400290 -0.531056
O3    O     O_R   0.587930 0.180200 0.595790 -0.518153
O4    O     O_R   0.412070 0.680200 0.404210 -0.518160
C1    C     C_R   0.614129 0.343944 0.618855 0.906591
C2    C     C_R   0.385869 0.843942 0.381149 0.906606
O5    O     O_R   0.452350 0.177380 0.611700 -0.527377
O6    O     O_R   0.547650 0.677380 0.388300 -0.527380
O7    O     O_R   0.413930 0.001760 0.416320 -0.542018
O8    O     O_R   0.586070 0.501760 0.583680 -0.542017
C3    C     C_R   0.435784 0.345804 0.637371 0.728703
C4    C     C_R   0.564215 0.845805 0.362629 0.728726
O9    O     O_3   0.487550 0.337460 0.435880 -0.382720
O10   O     O_3   0.512450 0.837460 0.564120 -0.382713
V1    V     V_3+5 0.502310 0.064670 0.511900 1.543136
V2    V     V_3+5 0.497690 0.564670 0.488100 1.543113
C5    C     C_R   0.610830 0.923128 0.109548 -0.106661
C6    C     C_R   0.389168 0.423159 0.890447 -0.106641
H1    H     H_    0.519727 0.945890 0.162576 0.126294
H2    H     H_    0.480270 0.445919 0.837418 0.126241
H3    H     H_    0.691528 0.921970 0.980629 0.153924
H4    H     H_    0.308471 0.422036 0.019366 0.153898
H5    H     H_    0.585343 0.956091 0.030807 0.104320
H6    H     H_    0.414655 0.456140 0.969186 0.104286
C7    C     C_R   0.603731 0.857237 0.283988 -0.056778
C8    C     C_R   0.396268 0.357234 0.716011 -0.056770
C9    C     C_R   0.930108 0.844485 0.318215 -0.252140
C10   C     C_R   0.069891 0.344438 0.681785 -0.252130
C11   C     C_R   0.895871 0.851272 0.396514 -0.186650
C12   C     C_R   0.104126 0.351187 0.603483 -0.186655
C13   C     C_R   0.825150 0.868047 0.374419 0.375668
C14   C     C_R   0.174847 0.367973 0.625574 0.375680
C15   C     C_R   0.787208 0.862617 0.269654 -0.035358
C16   C     C_R   0.212790 0.362595 0.730342 -0.035344
C17   C     C_R   0.823500 0.868225 0.189329 -0.124938
C18   C     C_R   0.176499 0.368234 0.810667 -0.124952
C19   C     C_R   0.714638 0.862476 0.241306 0.090403
C20   C     C_R   0.285361 0.362469 0.758692 0.090387
C21   C     C_R   0.681036 0.895977 0.137029 0.074858
C22   C     C_R   0.318962 0.396000 0.862967 0.074895
C23   C     C_R   0.717414 0.902890 0.060753 -0.248626
C24   C     C_R   0.282585 0.402935 0.939242 -0.248552
C25   C     C_R   0.787144 0.885443 0.085340 0.566876
C26   C     C_R   0.212855 0.385489 0.914656 0.566837
C27   C     C_R   0.673578 0.826579 0.311624 -0.133028
C28   C     C_R   0.326422 0.326560 0.688376 -0.133050
C29   C     C_R   0.573040 0.913102 0.183877 -0.174183
C30   C     C_R   0.426958 0.413120 0.816119 -0.174181
C31   C     C_R   0.895305 0.859447 0.215417 -0.062405
C32   C     C_R   0.104694 0.359443 0.784581 -0.062412
H7    H     H_    0.693877 0.771938 0.387634 0.163970
H8    H     H_    0.306127 0.271898 0.612371 0.163978
H9    H     H_    0.984664 0.834436 0.338475 0.110647
H10   H     H_    0.015335 0.334374 0.661527 0.110647
H11   H     H_    0.925172 0.850105 0.475558 0.114047
H12   H     H_    0.074824 0.349979 0.524440 0.114044
H13   H     H_    0.099254 0.909784 0.472250 0.126860
H14   H     H_    0.900747 0.409767 0.527756 0.126869
C33   C     C_R   0.234103 0.873645 0.028024 0.293214
C34   C     C_R   0.765900 0.373607 0.971979 0.293270
C35   C     C_R   0.290974 0.850848 0.985086 0.284093
C36   C     C_R   0.709028 0.350835 0.014915 0.284035
C37   C     C_R   0.353686 0.816656 0.048978 -0.257735
C38   C     C_R   0.646312 0.316697 0.951025 -0.257748
C39   C     C_R   0.362597 0.801538 0.155928 0.248961
C40   C     C_R   0.637401 0.301555 0.844076 0.248981
C41   C     C_R   0.307366 0.835105 0.202932 -0.035631
C42   C     C_R   0.692633 0.335105 0.797071 -0.035630
C43   C     C_R   0.241207 0.856227 0.137316 -0.017317
C44   C     C_R   0.758793 0.356216 0.862686 -0.017328
C45   C     C_R   0.316582 0.847544 0.312888 -0.151851
C46   C     C_R   0.683417 0.347547 0.687114 -0.151846
C47   C     C_R   0.259344 0.863956 0.357593 0.018718
C48   C     C_R   0.740655 0.363953 0.642411 0.018725
C49   C     C_R   0.193288 0.869966 0.291206 -0.002543
C50   C     C_R   0.806711 0.369954 0.708797 -0.002548
C51   C     C_R   0.184142 0.862533 0.182454 -0.084489
C52   C     C_R   0.815857 0.362524 0.817547 -0.084488
C53   C     C_R   0.265393 0.871409 0.467223 0.344636
C54   C     C_R   0.734608 0.371412 0.532782 0.344647
C55   C     C_R   0.207096 0.888932 0.506284 -0.129019
C56   C     C_R   0.792904 0.388936 0.493721 -0.129032
C57   C     C_R   0.143542 0.896367 0.440746 -0.163902
C58   C     C_R   0.856458 0.396354 0.559258 -0.163917
C59   C     C_R   0.136471 0.886108 0.334979 -0.155978
C60   C     C_R   0.863529 0.386084 0.665024 -0.155980
H15   H     H_    0.396198 0.795559 0.014057 0.148970
H16   H     H_    0.603801 0.295630 0.985951 0.148967
H17   H     H_    0.210904 0.895940 0.588616 0.118053
H18   H     H_    0.789096 0.395960 0.411391 0.118078
H19   H     H_    0.085593 0.892824 0.287700 0.070472
H20   H     H_    0.914408 0.392787 0.712301 0.070469
O11   O     O_R   0.913760 0.203480 0.916370 -0.519731
O12   O     O_R   0.086240 0.703480 0.083630 -0.519724
O13   O     O_R   0.047590 0.535230 0.888250 -0.534215
O14   O     O_R   0.952410 0.035230 0.111750 -0.534228
C61   C     C_R   0.064115 0.368194 0.862299 0.797469
C62   C     C_R   0.935885 0.868194 0.137700 0.797475
O15   O     O_R   0.912020 0.532880 0.904260 -0.525487
O16   O     O_R   0.087980 0.032880 0.095740 -0.525498
O17   O     O_R   0.949590 0.708460 0.099750 -0.529558
O18   O     O_R   0.050410 0.208460 0.900250 -0.529569
C63   C     C_R   0.885765 0.365500 0.883497 0.784526
C64   C     C_R   0.114235 0.865502 0.116503 0.784522
O19   O     O_3   0.012370 0.375360 0.064120 -0.377789
O20   O     O_3   0.987630 0.875360 0.935880 -0.377787
V3    V     V_3+5 0.997700 0.648160 0.988110 1.579175
V4    V     V_3+5 0.002300 0.148160 0.011890 1.579132
O21   O     O_3   0.172325 0.920014 0.964833 -0.636514
H21   H     H_    0.179621 0.993272 0.905760 0.291959
O22   O     O_3   0.827681 0.419936 0.035174 -0.636508
H22   H     H_    0.820394 0.493064 0.094299 0.292004
O23   O     O_3   0.286828 0.852776 0.880237 -0.646262
H23   H     H_    0.241535 0.808083 0.843854 0.289484
O24   O     O_3   0.713183 0.352728 0.119764 -0.646263
H24   H     H_    0.758445 0.307756 0.156110 0.289464
O25   O     O_3   0.424492 0.744482 0.213999 -0.660671
H25   H     H_    0.451602 0.691076 0.168199 0.273424
O26   O     O_3   0.575509 0.244463 0.786009 -0.660657
H26   H     H_    0.548378 0.191207 0.831820 0.273418
O27   O     O_3   0.327748 0.859282 0.535840 -0.655294
H27   H     H_    0.322240 0.866501 0.607744 0.292826
O28   O     O_3   0.672252 0.359296 0.464167 -0.655294
H28   H     H_    0.677760 0.366488 0.392262 0.292830
O29   O     O_3   0.793991 0.906027 0.453779 -0.660777
H29   H     H_    0.827945 0.907250 0.520592 0.290040
O30   O     O_3   0.206003 0.405902 0.546204 -0.660775
H30   H     H_    0.172049 0.407068 0.479389 0.290038
F1    F     F_    0.818265 0.890564 0.005669 -0.685440
F2    F     F_    0.181735 0.390639 0.994328 -0.685452

loop_
_geom_bond_atom_site_label_1
_geom_bond_atom_site_label_2
_ccdc_geom_bond_type
O17   V3    S    
O15   C63   A    
C37   C39   A    
C50   C60   A    
C9    C11   A    
C23   C25   A    
C43   C51   A    
C40   C42   A    
O22   H22   S    
O1    C3    A    
O2    C4    A    
O11   C63   A    
C2    O7    A    
C59   H19   S    
O3    V1    S    
O28   H28   S    
C21   C23   A    
O5    C3    A    
C53   O27   S    
C5    H5    S    
C48   C50   A    
C6    H6    S    
C14   O30   S    
C58   C60   A    
C1    C46   S    
O11   V4    S    
H1    C29   S    
C44   C52   A    
O20   V3    S    
C27   H7    S    
C26   F2    S    
O24   H24   S    
C28   H8    S    
O16   C64   A    
C34   C36   A    
C5    C21   A    
C35   C37   A    
C6    C22   A    
C36   C38   A    
C33   O21   S    
C31   C62   S    
C10   C32   A    
C49   C59   A    
C39   C41   A    
O14   C62   A    
C17   C31   A    
H13   C57   S    
O18   V4    S    
C12   C14   A    
C17   C25   A    
C7    C29   A    
C16   C18   A    
C61   O18   A    
C8    C30   A    
C55   H17   S    
O5    V1    S    
O14   V4    S    
O12   C64   A    
O6    V2    S    
C48   C54   A    
C9    H9    S    
C47   C49   A    
C24   C26   A    
C55   C57   A    
C2    C45   S    
O19   V4    S    
O12   V3    S    
C33   C35   A    
O16   V4    S    
C25   F1    S    
C46   C48   A    
C53   C55   A    
C10   H10   S    
C11   H11   S    
C3    C8    S    
C12   H12   S    
C15   C19   A    
C42   C46   A    
C41   C43   A    
C38   C40   A    
O4    V2    S    
H14   C58   S    
C34   C44   A    
O6    C4    A    
C13   C15   A    
C47   C53   A    
O1    V2    S    
O2    V1    S    
C49   C51   A    
O27   H27   S    
H2    C30   S    
O13   V3    S    
C33   C43   A    
H3    C23   S    
C54   C56   A    
C57   C59   A    
C56   C58   A    
C40   O26   S    
C35   O23   S    
O29   H29   S    
C18   C26   A    
O4    C2    A    
C13   O29   S    
C19   C27   A    
O30   H30   S    
C7    C27   A    
C18   C32   A    
C45   C47   A    
O23   H23   S    
C32   C61   S    
C37   H15   S    
C52   C63   S    
C16   C20   A    
C5    C29   A    
C50   C52   A    
O3    C1    A    
C6    C30   A    
O26   H26   S    
O13   C61   A    
C62   O17   A    
O15   V3    S    
C56   H18   S    
C4    C7    S    
C10   C12   A    
O7    V1    S    
C1    O8    A    
C19   C21   A    
C34   O22   S    
O8    V2    S    
O25   H25   S    
C20   C22   A    
H4    C24   S    
C22   C24   A    
C15   C17   A    
C41   C45   A    
C20   C28   A    
C8    C28   A    
C36   O24   S    
C11   C13   A    
O9    V2    S    
C42   C44   A    
C39   O25   S    
O10   V1    S    
C51   C64   S    
C60   H20   S    
O21   H21   S    
C38   H16   S    
C9    C31   A    
C14   C16   A    
C54   O28   S    
