data_mof_unit_61459.cif
_audit_creation_date              2013-03-05T15:43:41-0500
_audit_creation_method            fapswitch 2.2
_symmetry_space_group_name_H-M    P1
_symmetry_Int_Tables_number       1
_space_group_crystal_system       triclinic
_cell_length_a                    20.842453
_cell_length_b                    15.926456
_cell_length_c                    13.1731
_cell_angle_alpha                 90.134618
_cell_angle_beta                  90.46566
_cell_angle_gamma                 89.985572
_cell_volume                      4372.60665822

loop_
_atom_site_label
_atom_site_type_symbol
_atom_site_description
_atom_site_fract_x
_atom_site_fract_y
_atom_site_fract_z
_atom_type_partial_charge
Zn1   Zn    Zn3+2 0.434690 0.000000 0.602700 1.055847
Zn2   Zn    Zn3+2 0.934690 0.500000 0.602700 1.033966
Zn3   Zn    Zn3+2 0.584000 0.000000 0.565300 0.960667
Zn4   Zn    Zn3+2 0.084000 0.500000 0.565300 0.956183
Zn5   Zn    Zn3+2 0.490640 0.098690 0.416020 0.993204
Zn6   Zn    Zn3+2 0.490640 0.901310 0.416020 0.974040
Zn7   Zn    Zn3+2 0.990640 0.598690 0.416020 0.985967
Zn8   Zn    Zn3+2 0.990640 0.401310 0.416020 0.980669
O1    O     O_3   0.500000 1.000000 0.500000 -0.493464
O2    O     O_3   0.000000 0.500000 0.500000 -0.492920
O3    O     O_R   0.566980 0.833700 0.422750 -0.635332
O4    O     O_R   0.566980 0.166300 0.422750 -0.618129
O5    O     O_R   0.066980 0.333700 0.422750 -0.632748
O6    O     O_R   0.066980 0.666300 0.422750 -0.613464
O7    O     O_R   0.380760 0.097200 0.590320 -0.617207
O8    O     O_R   0.380760 0.902800 0.590320 -0.599895
O9    O     O_R   0.880760 0.597200 0.590320 -0.626281
O10   O     O_R   0.880760 0.402800 0.590320 -0.636119
O11   O     O_R   0.577210 0.000000 0.711160 -0.638594
O12   O     O_R   0.077210 0.500000 0.711160 -0.639836
O13   O     O_R   0.475030 0.069050 0.275760 -0.635200
O14   O     O_R   0.475030 0.930950 0.275760 -0.640974
O15   O     O_R   0.975030 0.569050 0.275760 -0.641375
O16   O     O_R   0.975030 0.430950 0.275760 -0.638553
O17   O     O_R   0.632300 0.097230 0.527310 -0.663004
O18   O     O_R   0.632300 0.902770 0.527310 -0.655035
O19   O     O_R   0.132300 0.597230 0.527310 -0.665053
O20   O     O_R   0.132300 0.402770 0.527310 -0.656696
O21   O     O_R   0.419940 0.833680 0.459580 -0.649600
O22   O     O_R   0.419940 0.166320 0.459580 -0.629219
O23   O     O_R   0.919940 0.333680 0.459580 -0.610329
O24   O     O_R   0.919940 0.666320 0.459580 -0.619858
O25   O     O_R   0.472710 0.000000 0.737340 -0.591518
O26   O     O_R   0.972710 0.500000 0.737340 -0.585532
C1    C     C_R   0.621699 0.840918 0.466932 0.717607
C2    C     C_R   0.620791 0.160061 0.468961 0.718384
C3    C     C_R   0.121717 0.340952 0.466898 0.714703
C4    C     C_R   0.120671 0.660801 0.470750 0.723527
C5    C     C_R   0.378989 0.159664 0.530664 0.920809
C6    C     C_R   0.378832 0.840265 0.529746 0.918075
C7    C     C_R   0.878994 0.659663 0.530658 0.912356
C8    C     C_R   0.879987 0.339510 0.531798 0.883668
C9    C     C_R   0.529556 0.002000 0.772340 0.879592
C10   C     C_R   0.029575 0.502124 0.772360 0.885275
C11   C     C_R   0.469820 0.999832 0.228505 0.707573
C12   C     C_R   0.969781 0.499820 0.228415 0.690692
H1    H     H_    0.740757 0.158588 0.532989 0.130553
H2    H     H_    0.739631 0.845022 0.540283 0.137294
H3    H     H_    0.227472 0.675787 0.578936 0.145510
H4    H     H_    0.239452 0.344763 0.541017 0.135241
C13   C     C_2   0.328061 0.777417 0.536775 -0.433971
C14   C     C_2   0.327555 0.220935 0.542085 -0.436014
C15   C     C_2   0.827800 0.279863 0.540530 -0.440287
C16   C     C_2   0.827580 0.720959 0.541999 -0.425833
C17   C     C_2   0.265876 0.798959 0.536353 0.589301
C18   C     C_2   0.288986 0.241386 0.464229 0.608414
C19   C     C_2   0.781720 0.273839 0.469035 0.599968
C20   C     C_2   0.788833 0.740989 0.464206 0.595467
C21   C     C_2   0.669894 0.224601 0.451072 0.417775
C22   C     C_2   0.674714 0.782269 0.442089 0.402925
C23   C     C_2   0.167437 0.730460 0.467219 0.387625
C24   C     C_2   0.174831 0.282511 0.441863 0.404958
C25   C     C_2   0.729920 0.212779 0.485736 -0.366794
C26   C     C_2   0.732697 0.794735 0.485320 -0.390734
C27   C     C_2   0.218053 0.730334 0.531638 -0.428183
C28   C     C_2   0.232712 0.294835 0.485520 -0.400141
H5    H     H_    0.341760 0.711635 0.532200 0.110487
H6    H     H_    0.316581 0.242686 0.618308 0.126879
H7    H     H_    0.823112 0.246393 0.611926 0.118851
H8    H     H_    0.816848 0.743195 0.618108 0.129903
H9    H     H_    0.547882 0.045941 0.086904 0.107736
H10   H     H_    0.047908 0.547644 0.087456 0.096198
C29   C     C_2   0.455526 0.999232 0.119682 0.438181
C30   C     C_2   0.955874 0.499215 0.119228 0.447437
C31   C     C_2   0.501492 0.026156 0.056841 -0.347526
C32   C     C_2   0.001752 0.527391 0.056962 -0.347923
H11   H     H_    0.585591 0.989773 0.913966 0.148377
H12   H     H_    0.085436 0.488924 0.914084 0.145020
C33   C     C_2   0.538768 0.006318 0.883064 -0.484156
C34   C     C_2   0.038882 0.506630 0.883117 -0.489222
C35   C     C_2   0.490763 0.028192 0.946495 0.426180
C36   C     C_2   0.991240 0.529907 0.946508 0.426702
O27   O     O_3   0.248451 0.882820 0.526787 -0.561961
C37   C     C_3   0.205822 0.904501 0.605196 -0.154134
H13   H     H_    0.158180 0.874426 0.593972 0.169155
H14   H     H_    0.198334 0.973453 0.603629 0.188807
H15   H     H_    0.225988 0.888370 0.681275 0.138229
O28   O     O_3   0.297343 0.204273 0.369870 -0.554661
C38   C     C_3   0.316135 0.266695 0.300535 -0.243151
H16   H     H_    0.278481 0.315544 0.290703 0.138058
H17   H     H_    0.323738 0.236732 0.225483 0.193627
H18   H     H_    0.362298 0.296213 0.324352 0.156921
O29   O     O_3   0.784250 0.317914 0.377957 -0.563299
C39   C     C_3   0.773580 0.404729 0.394262 -0.171518
H19   H     H_    0.747933 0.419594 0.466075 0.141016
H20   H     H_    0.743853 0.429181 0.330651 0.189966
H21   H     H_    0.819893 0.439056 0.393031 0.122896
O30   O     O_3   0.796886 0.703196 0.370165 -0.569521
C40   C     C_3   0.815588 0.765076 0.300065 -0.233414
H22   H     H_    0.777995 0.813972 0.290003 0.142334
H23   H     H_    0.822928 0.734570 0.225263 0.192951
H24   H     H_    0.861866 0.794614 0.323259 0.164110
O31   O     O_3   0.654953 0.294186 0.392366 -0.553693
C41   C     C_3   0.616778 0.349478 0.450014 -0.307521
H25   H     H_    0.639610 0.364828 0.524548 0.139438
H26   H     H_    0.567865 0.323678 0.461560 0.175766
H27   H     H_    0.611490 0.409151 0.407496 0.198504
O32   O     O_3   0.665036 0.712358 0.380312 -0.570277
C42   C     C_3   0.642968 0.736526 0.282995 -0.207342
H28   H     H_    0.660398 0.799557 0.258910 0.109499
H29   H     H_    0.589775 0.734259 0.279703 0.186594
H30   H     H_    0.660986 0.690366 0.226837 0.186032
O33   O     O_3   0.155999 0.798693 0.404629 -0.557988
C43   C     C_3   0.175970 0.777707 0.305824 -0.238405
H31   H     H_    0.147142 0.725033 0.273689 0.143844
H32   H     H_    0.228043 0.762029 0.304453 0.146738
H33   H     H_    0.168514 0.833009 0.256067 0.194692
O34   O     O_3   0.165385 0.213032 0.379293 -0.557707
C44   C     C_3   0.143453 0.237871 0.282147 -0.186943
H34   H     H_    0.160907 0.301080 0.258783 0.098238
H35   H     H_    0.090265 0.235598 0.278620 0.187877
H36   H     H_    0.161572 0.192122 0.225583 0.186766
N1    N     N_R   0.429783 0.058389 0.909616 0.255466
O35   O     O_R   0.413039 0.135369 0.929223 -0.405421
O36   O     O_R   0.386075 0.005305 0.879504 -0.319051
N2    N     N_R   0.930843 0.561909 0.909513 0.254040
O37   O     O_R   0.915499 0.639415 0.928963 -0.404830
O38   O     O_R   0.886183 0.510164 0.879508 -0.308771
O39   O     O_3   0.400624 0.960814 0.079934 -0.571253
C45   C     C_3   0.347664 0.970254 0.145117 -0.196917
H37   H     H_    0.341397 0.036731 0.169604 0.159995
H38   H     H_    0.352176 0.928109 0.211918 0.151726
H39   H     H_    0.303571 0.951647 0.103062 0.192601
O40   O     O_3   0.901329 0.460717 0.078098 -0.566576
C46   C     C_3   0.849272 0.461948 0.145923 -0.200036
H40   H     H_    0.841371 0.525687 0.178497 0.141110
H41   H     H_    0.856297 0.414732 0.206912 0.179411
H42   H     H_    0.805082 0.444366 0.103488 0.204916

loop_
_geom_bond_atom_site_label_1
_geom_bond_atom_site_label_2
_geom_bond_distance
_ccdc_geom_bond_type
Zn7   O2    1.933111 S    
N2    O37   1.300513 A    
O23   C8    1.272589 A    
Zn2   O10   1.919172 S    
C20   O30   1.387427 S    
C37   H15   1.114163 S    
H10   C32   1.088190 S    
C2    C21   1.471430 S    
C15   H7    1.087244 S    
Zn6   O1    1.928961 S    
C41   H26   1.110996 S    
C43   H31   1.112851 S    
Zn1   O25   1.936711 S    
N1    O35   1.300537 A    
Zn8   O5    1.922566 S    
H3    C27   1.087172 S    
C35   N1    1.439934 S    
C37   H14   1.109368 S    
O33   C43   1.409168 S    
O10   C8    1.267583 A    
C8    C15   1.449777 S    
H1    C25   1.087891 S    
Zn7   O15   1.930995 S    
N1    O36   1.301900 A    
O19   C4    1.280408 A    
C9    C33   1.471061 S    
Zn6   O14   1.933076 S    
O32   C42   1.412731 S    
C11   C29   1.461801 S    
O34   C44   1.412763 S    
C36   N2    1.439701 S    
O12   C10   1.284390 A    
Zn7   O6    1.922782 S    
C40   H22   1.111949 S    
C18   O28   1.387367 S    
O24   C7    1.276613 A    
Zn3   O11   1.927780 S    
Zn1   O7    1.919332 S    
C38   H17   1.109331 S    
C46   H40   1.113897 S    
O5    C3    1.281428 A    
C22   O32   1.391356 S    
C4    C23   1.478041 S    
Zn2   O26   1.936711 S    
C44   H35   1.109758 S    
C5    C14   1.457901 S    
O15   C12   1.269790 A    
C19   O29   1.392834 S    
Zn2   O9    1.919332 S    
C29   C31   1.342280 D    
C41   H25   1.114262 S    
Zn4   O20   1.914570 S    
O11   C9    1.284485 A    
C19   C25   1.471421 S    
O13   C11   1.268979 A    
H11   C33   1.086935 S    
C20   C26   1.477382 S    
C29   O39   1.395369 S    
C24   C28   1.346457 D    
O25   C9    1.268250 A    
Zn3   O17   1.916879 S    
Zn1   O1    1.926950 S    
C37   H13   1.111214 S    
Zn5   O4    1.922782 S    
C34   C36   1.353744 D    
C42   H30   1.109320 S    
C32   C36   1.470297 S    
Zn6   O3    1.922566 S    
C33   C35   1.353773 D    
C15   C19   1.342969 D    
C31   C35   1.469343 S    
C39   H21   1.109703 S    
C1    C22   1.484732 S    
C45   H38   1.111368 S    
Zn5   O1    1.933111 S    
Zn3   O1    1.944389 S    
O6    C4    1.283926 A    
O27   C37   1.410185 S    
C16   H8    1.087455 S    
C10   C34   1.471864 S    
O14   C11   1.266832 A    
H12   C34   1.086910 S    
O26   C10   1.268765 A    
Zn1   O8    1.919172 S    
C13   H5    1.087474 S    
C38   H18   1.113473 S    
C39   H20   1.109362 S    
H4    C28   1.087284 S    
O7    C5    1.269563 A    
C46   H42   1.109146 S    
C30   C32   1.342828 D    
O8    C6    1.275156 A    
C40   H23   1.109324 S    
C23   O33   1.385081 S    
C45   H39   1.109229 S    
O4    C2    1.275715 A    
Zn4   O2    1.944389 S    
Zn2   O2    1.926950 S    
C12   C30   1.464941 S    
Zn4   O19   1.916879 S    
Zn5   O22   1.915944 S    
C16   C20   1.338681 D    
C44   H36   1.109312 S    
C46   H41   1.110527 S    
N2    O38   1.301813 A    
Zn7   O24   1.915944 S    
C17   C27   1.480246 S    
Zn8   O23   1.917877 S    
Zn3   O18   1.914570 S    
C14   H6    1.087478 S    
Zn6   O21   1.917877 S    
C43   H32   1.113899 S    
C44   H34   1.115326 S    
O40   C46   1.411237 S    
C6    C13   1.460423 S    
O29   C39   1.416530 S    
C21   C25   1.341721 D    
C22   C26   1.346334 D    
C21   O31   1.386786 S    
C42   H29   1.109755 S    
C45   H37   1.114034 S    
O39   C45   1.411755 S    
O16   C12   1.267319 A    
C42   H28   1.115322 S    
H9    C31   1.088273 S    
O20   C3    1.282526 A    
C18   C28   1.477389 S    
C30   O40   1.396680 S    
O21   C6    1.269569 A    
O3    C1    1.281259 A    
Zn8   O16   1.933076 S    
O22   C5    1.276749 A    
C13   C17   1.340602 D    
C39   H19   1.115266 S    
O9    C7    1.269596 A    
C7    C16   1.457768 S    
C24   O34   1.391319 S    
C43   H33   1.109281 S    
H2    C26   1.087282 S    
O17   C2    1.284595 A    
Zn4   O12   1.927780 S    
C23   C27   1.348519 D    
O18   C1    1.282723 A    
C40   H24   1.113445 S    
Zn5   O13   1.930995 S    
O28   C38   1.409357 S    
Zn8   O2    1.928961 S    
O30   C40   1.409341 S    
O31   C41   1.411213 S    
C3    C24   1.484771 S    
C38   H16   1.111961 S    
C17   O27   1.389767 S    
C41   H27   1.109289 S    
C14   C18   1.338726 D    
