data_mof_unit_29896.cif
_audit_creation_date              2013-03-05T15:55:42-0500
_audit_creation_method            fapswitch 2.2
_symmetry_space_group_name_H-M    P1
_symmetry_Int_Tables_number       1
_space_group_crystal_system       triclinic
_cell_length_a                    6.932031
_cell_length_b                    17.593605
_cell_length_c                    19.44088
_cell_angle_alpha                 108.518032
_cell_angle_beta                  89.567315
_cell_angle_gamma                 90.537748
_cell_volume                      2248.11180367

loop_
_atom_site_label
_atom_site_type_symbol
_atom_site_description
_atom_site_fract_x
_atom_site_fract_y
_atom_site_fract_z
_atom_type_partial_charge
O1    O     O_R   0.494330 0.415710 0.413720 -0.603247
O2    O     O_R   0.819360 0.430070 0.560210 -0.579802
O3    O     O_R   0.994320 0.584290 0.586280 -0.567125
C1    C     C_R   0.650095 0.414553 0.581519 1.028481
O4    O     O_R   0.823740 0.406290 0.412670 -0.606726
O5    O     O_R   0.998730 0.560340 0.437690 -0.601215
C2    C     C_R   0.654782 0.383112 0.384684 0.898410
O6    O     O_R   0.489920 0.439660 0.562310 -0.601490
O7    O     O_3   0.662330 0.550570 0.508380 -0.269450
V1    V     V_3+5 0.935370 0.490620 0.498440 1.185106
O8    O     O_R   0.328720 0.569930 0.439790 -0.604370
C3    C     C_R   0.160681 0.585185 0.418242 0.935864
O9    O     O_R   0.324340 0.593710 0.587330 -0.582386
C4    C     C_R   0.155266 0.615153 0.616523 0.996285
V2    V     V_3+5 0.435940 0.509380 0.501560 1.179064
O10   O     O_3   0.159110 0.449430 0.491620 -0.285480
C5    C     C_R   0.291710 0.739736 0.705860 -0.093480
H1    H     H_    0.415348 0.735528 0.670474 0.145505
C6    C     C_R   0.281546 0.804576 0.770080 -0.108936
H2    H     H_    0.398366 0.848055 0.782815 0.123060
C7    C     C_R   0.120878 0.814269 0.816465 -0.183015
C8    C     C_R   0.972627 0.756612 0.798066 -0.250475
H3    H     H_    0.850861 0.761871 0.834517 0.171366
C9    C     C_R   0.984701 0.689298 0.735281 0.387035
C10   C     C_R   0.143782 0.681619 0.686937 -0.300604
C11   C     C_R   0.308244 0.634555 0.321736 -0.254014
C12   C     C_R   0.153211 0.634702 0.369024 -0.138296
C13   C     C_R   0.989969 0.681517 0.368332 -0.257502
C14   C     C_R   0.981792 0.728347 0.321780 0.151184
C15   C     C_R   0.136665 0.726917 0.273840 0.028838
C16   C     C_R   0.299896 0.679448 0.273539 0.147302
C17   C     C_R   0.821485 0.776693 0.322314 -0.219265
C18   C     C_R   0.813294 0.822391 0.275134 -0.210229
C19   C     C_R   0.964968 0.820439 0.226365 0.151204
C20   C     C_R   0.128198 0.772970 0.226062 0.028629
C21   C     C_R   0.283073 0.771542 0.178123 0.145582
C22   C     C_R   0.443375 0.723191 0.177586 -0.209043
C23   C     C_R   0.451565 0.677493 0.224766 -0.205344
C24   C     C_R   0.956628 0.865341 0.178176 -0.254110
C25   C     C_R   0.111669 0.865203 0.130894 -0.144315
C26   C     C_R   0.274904 0.818381 0.131579 -0.244567
H4    H     H_    0.433964 0.598252 0.321466 0.136591
H5    H     H_    0.870204 0.682322 0.404747 0.139430
H6    H     H_    0.701561 0.778776 0.358931 0.141510
H7    H     H_    0.687377 0.858869 0.276449 0.141851
H8    H     H_    0.830910 0.901646 0.178449 0.135606
H9    H     H_    0.394667 0.817580 0.095164 0.143986
H10   H     H_    0.563297 0.721107 0.140968 0.146316
H11   H     H_    0.577481 0.641015 0.223451 0.144275
C27   C     C_R   0.467600 0.185943 0.867790 -0.251570
C28   C     C_R   0.623542 0.136012 0.870182 -0.147091
C29   C     C_R   0.784307 0.132999 0.824754 -0.255751
C30   C     C_R   0.788212 0.177872 0.776460 0.152127
C31   C     C_R   0.631284 0.227819 0.774596 0.032291
C32   C     C_R   0.471153 0.232283 0.820859 0.145059
C33   C     C_R   0.945617 0.173237 0.729519 -0.216027
C34   C     C_R   0.948668 0.218255 0.681712 -0.214587
C35   C     C_R   0.794363 0.268724 0.679972 0.150311
C36   C     C_R   0.634294 0.273251 0.726275 0.029862
C37   C     C_R   0.477341 0.323178 0.724381 0.133087
C38   C     C_R   0.320032 0.327880 0.771382 -0.189011
C39   C     C_R   0.316954 0.282834 0.819177 -0.209321
C40   C     C_R   0.797670 0.314835 0.632868 -0.234964
C41   C     C_R   0.641547 0.364600 0.630318 -0.143234
C42   C     C_R   0.481040 0.367870 0.675926 -0.206346
H12   H     H_    0.343384 0.189114 0.902802 0.143075
H13   H     H_    0.904547 0.094415 0.825826 0.136653
H14   H     H_    0.067040 0.135060 0.730013 0.139724
H15   H     H_    0.072542 0.213956 0.646367 0.138717
H16   H     H_    0.921794 0.311556 0.597789 0.135316
H17   H     H_    0.360788 0.406431 0.674802 0.153089
H18   H     H_    0.198620 0.366066 0.770889 0.157512
H19   H     H_    0.193064 0.287121 0.854512 0.145398
C43   C     C_R   0.811575 0.276209 0.281609 -0.145499
H20   H     H_    0.952249 0.295322 0.304864 0.120366
C44   C     C_R   0.800453 0.212414 0.216634 -0.138496
H21   H     H_    0.933103 0.184229 0.191958 0.123791
C45   C     C_R   0.620956 0.185360 0.184121 -0.122448
C46   C     C_R   0.452882 0.223869 0.218449 -0.144170
H22   H     H_    0.312218 0.204750 0.195189 0.121162
C47   C     C_R   0.464006 0.287669 0.283430 -0.139759
H23   H     H_    0.331367 0.315860 0.308112 0.123293
C48   C     C_R   0.643510 0.314719 0.315940 -0.116308
O11   O     O_R   0.774940 0.060470 0.937800 -0.595581
O12   O     O_R   0.440880 0.093730 0.087350 -0.600258
O13   O     O_R   0.266130 0.939630 0.062280 -0.595842
C49   C     C_R   0.609777 0.116962 0.115378 0.915814
O14   O     O_R   0.445480 0.069960 0.939820 -0.602480
O15   O     O_R   0.270770 0.915690 0.913690 -0.593074
C50   C     C_R   0.614774 0.085659 0.918653 0.952152
O16   O     O_R   0.770300 0.084410 0.086380 -0.598833
O17   O     O_3   0.602600 0.949510 0.991670 -0.269312
V3    V     V_3+5 0.329470 0.009370 0.001550 1.149493
O18   O     O_R   0.940760 0.906160 0.912560 -0.598624
C51   C     C_R   0.109946 0.883216 0.884608 0.948987
O19   O     O_R   0.936150 0.929930 0.060100 -0.597828
C52   C     C_R   0.104190 0.914733 0.081690 0.953681
V4    V     V_3+5 0.828930 0.990450 0.998310 1.153176
O20   O     O_3   0.105670 0.050490 0.008320 -0.278523
N1    N     N_R   0.841183 0.627196 0.724311 0.231157
O21   O     O_R   0.894206 0.553125 0.710961 -0.417064
O22   O     O_R   0.661961 0.645763 0.741381 -0.421292

loop_
_geom_bond_atom_site_label_1
_geom_bond_atom_site_label_2
_geom_bond_distance
_ccdc_geom_bond_type
C45   C49   1.489430 S    
C2    C48   1.489417 S    
C49   O16   1.296698 A    
C18   H7    1.083599 S    
O12   V3    2.001740 S    
C20   C21   1.411500 A    
C43   C48   1.406282 A    
C1    O6    1.299109 A    
C47   H23   1.082761 S    
O17   V4    1.708738 S    
C23   H11   1.083598 S    
C30   C31   1.412671 A    
C11   C12   1.408465 A    
C14   C15   1.411497 A    
C43   C44   1.400206 A    
C15   C20   1.415073 A    
C21   C22   1.403732 A    
C6    C7    1.404783 A    
C44   C45   1.408528 A    
C14   C17   1.403727 A    
C28   C50   1.484865 S    
O5    C3    1.297580 A    
C15   C16   1.411516 A    
O18   V4    2.002728 S    
V2    O10   2.161133 S    
C32   C39   1.404099 A    
C33   C34   1.399480 A    
C19   C20   1.411516 A    
O13   C52   1.297610 A    
O17   V3    2.152724 S    
O14   V3    2.001301 S    
O8    V2    1.992558 S    
C6    H2    1.083208 S    
O19   V4    1.992475 S    
C39   H19   1.083751 S    
O1    V2    2.002587 S    
O7    V1    2.152832 S    
V3    O20   1.704409 S    
C36   C37   1.412714 A    
C4    C10   1.493640 S    
C9    N1    1.436600 S    
O9    C4    1.303967 A    
C21   C26   1.405848 A    
C38   C39   1.399676 A    
O11   C50   1.299207 A    
C47   C48   1.408546 A    
C5    H1    1.083158 S    
C31   C36   1.413579 A    
O12   C49   1.301513 A    
C17   H6    1.083625 S    
C43   H20   1.082740 S    
C3    C12   1.486025 S    
C28   C29   1.407563 A    
C9    C10   1.422721 A    
C25   C52   1.485998 S    
O4    C2    1.301460 A    
C45   C46   1.406308 A    
C7    C51   1.487152 S    
C27   C28   1.409604 A    
C35   C36   1.410284 A    
C33   H14   1.083763 S    
C19   C24   1.405998 A    
C37   C38   1.403392 A    
O15   C51   1.296653 A    
O2    C1    1.296681 A    
C22   C23   1.400357 A    
O13   V3    1.998604 S    
C40   H16   1.084349 S    
O19   C52   1.299642 A    
N1    O22   1.301095 A    
C18   C19   1.403748 A    
C26   H9    1.084260 S    
C44   H21   1.082759 S    
C22   H10   1.083627 S    
C27   H12   1.084337 S    
O3    C4    1.296544 A    
C24   H8    1.084303 S    
C38   H18   1.083789 S    
C25   C26   1.408494 A    
O14   C50   1.296794 A    
C37   C42   1.405709 A    
O6    V2    1.993734 S    
O9    V2    2.002679 S    
C8    C9    1.407660 A    
C46   H22   1.082739 S    
O2    V1    2.001393 S    
C24   C25   1.408447 A    
C29   C30   1.405542 A    
C11   H4    1.084302 S    
C46   C47   1.400318 A    
C30   C33   1.403346 A    
C35   C40   1.403027 A    
C31   C32   1.410305 A    
C13   C14   1.405831 A    
O1    C2    1.296746 A    
C29   H13   1.084355 S    
O5    V1    1.998655 S    
O8    C3    1.299632 A    
C1    C41   1.484492 S    
C13   H5    1.084259 S    
C27   C32   1.403375 A    
C16   C23   1.403757 A    
C5    C10   1.406922 A    
C41   C42   1.407598 A    
O7    V2    1.710654 S    
O11   V4    1.994325 S    
O4    V1    2.001730 S    
O3    V1    2.002332 S    
C42   H17   1.084407 S    
C17   C18   1.400343 A    
C34   C35   1.403978 A    
N1    O21   1.301314 A    
C5    C6    1.400188 A    
O16   V4    2.008391 S    
O15   V3    2.002308 S    
O18   C51   1.301394 A    
C40   C41   1.409416 A    
C11   C16   1.406021 A    
V4    O20   2.161216 S    
C12   C13   1.408495 A    
C8    H3    1.083508 S    
V1    O10   1.704470 S    
C34   H15   1.083763 S    
C7    C8    1.403065 A    
