data_mof_unit_61418.cif
_audit_creation_date              2012-12-10T17:05:02-0500
_audit_creation_method            fapswitch 2.2
_symmetry_space_group_name_H-M    P1
_symmetry_Int_Tables_number       1
_space_group_crystal_system       triclinic
_cell_length_a                    15.077491
_cell_length_b                    15.083022
_cell_length_c                    19.443259
_cell_angle_alpha                 89.272997
_cell_angle_beta                  90.990275
_cell_angle_gamma                 90.498157
_cell_volume                      4420.49666744

loop_
_atom_site_label
_atom_site_type_symbol
_atom_type_description
_atom_site_fract_x
_atom_site_fract_y
_atom_site_fract_z
_atom_type_partial_charge
Br1   Br    Br    0.669928 0.164242 0.530778 -0.510744
Br2   Br    Br    0.983430 0.542855 0.316895 -0.508080
C1    C     C_R   0.486136 0.260113 0.510327 0.856026
C2    C     C_2   0.529997 0.496736 0.019338 -0.337410
C3    C     C_2   0.457863 0.518931 0.980941 -0.070332
C4    C     C_R   0.515266 0.739719 0.489742 0.797488
C5    C     C_R   0.482086 0.515735 0.762470 -0.008904
C6    C     C_R   0.478188 0.163852 0.510859 -0.072744
C7    C     C_R   0.524870 0.835543 0.486998 -0.005766
C8    C     C_R   0.620097 0.963648 0.502716 -0.153053
C9    C     C_R   0.609530 0.872798 0.495665 -0.199424
C10   C     C_R   0.450191 0.889518 0.484140 -0.247030
C11   C     C_R   0.459790 0.980968 0.493071 0.136131
C12   C     C_R   0.531883 0.497636 0.094707 0.231354
C13   C     C_R   0.545631 0.018934 0.502640 0.109389
C14   C     C_R   0.554645 0.110859 0.512200 0.182902
C15   C     C_R   0.393798 0.125342 0.503415 -0.240099
C16   C     C_R   0.259977 0.512378 0.488417 0.821446
C17   C     C_R   0.384601 0.034480 0.494384 -0.198088
C18   C     C_R   0.163612 0.512162 0.480816 -0.072121
C19   C     C_R   0.835347 0.482307 0.517548 -0.010184
C20   C     C_R   0.967760 0.472017 0.588560 -0.178163
C21   C     C_R   0.875875 0.470506 0.582177 -0.169177
C22   C     C_R   0.886177 0.496709 0.459059 -0.215154
C23   C     C_R   0.561619 0.423075 0.131649 -0.128931
C24   C     C_R   0.978754 0.502045 0.464990 0.100249
C25   C     C_R   0.019523 0.488375 0.530594 0.132775
C26   C     C_R   0.111509 0.492227 0.537678 -0.262679
C27   C     C_R   0.123681 0.528081 0.416287 -0.216804
C28   C     C_R   0.739577 0.486464 0.511974 0.806742
C29   C     C_R   0.031805 0.522214 0.407733 0.257247
C30   C     C_R   0.489838 0.510902 0.687582 0.800021
C31   C     C_R   0.510583 0.490370 0.312603 0.792064
C32   C     C_R   0.520139 0.492700 0.237866 -0.002892
C33   C     C_R   0.494837 0.569009 0.200723 -0.178475
C34   C     C_R   0.555746 0.420503 0.203166 -0.180965
C35   C     C_R   0.501937 0.571942 0.129680 -0.099514
C36   C     C_2   0.368916 0.534028 0.010919 0.915197
C37   C     C_R   0.402716 0.474621 0.865549 -0.118536
C38   C     C_R   0.411003 0.472075 0.794665 -0.185948
C39   C     C_R   0.544350 0.562937 0.802354 -0.186003
C40   C     C_R   0.536225 0.565056 0.873659 -0.157894
C41   C     C_R   0.465481 0.520480 0.905558 0.132244
H1    H     H_    0.469469 0.626481 0.226550 0.165416
H2    H     H_    0.998278 0.462093 0.638918 0.146064
H3    H     H_    0.361690 0.435475 0.765148 0.167302
H4    H     H_    0.836236 0.460030 0.627571 0.148770
H5    H     H_    0.852570 0.507046 0.410007 0.185411
H6    H     H_    0.599497 0.597310 0.778617 0.164476
H7    H     H_    0.586404 0.365965 0.105009 0.141685
H8    H     H_    0.348175 0.439245 0.889319 0.144860
H9    H     H_    0.576882 0.361553 0.231061 0.167536
H10   H     H_    0.589980 0.475587 0.994210 0.165904
H11   H     H_    0.481574 0.631146 0.101728 0.135085
H12   H     H_    0.584989 0.601315 0.903976 0.145013
H13   H     H_    0.280684 0.503452 0.084618 0.353810
H14   H     H_    0.335022 0.166211 0.502167 0.170789
H15   H     H_    0.686837 0.989184 0.509302 0.196034
H16   H     H_    0.318746 0.006161 0.487741 0.157641
H17   H     H_    0.667698 0.831073 0.498071 0.160797
H18   H     H_    0.384697 0.859861 0.478571 0.149381
H19   H     H_    0.142659 0.480726 0.587680 0.163842
H20   H     H_    0.164146 0.542909 0.372022 0.194367
O1    O     O_3   0.500000 0.500000 0.500000 -0.494820
O2    O     O_R   0.437070 0.459640 0.654640 -0.646658
O3    O     O_R   0.556790 0.436390 0.349710 -0.641219
O4    O     O_R   0.547170 0.557950 0.655150 -0.642910
O5    O     O_R   0.458970 0.546010 0.340500 -0.643945
O6    O     O_2   0.317451 0.585310 0.982248 -0.616246
O7    O     O_R   0.342690 0.487523 0.069965 -0.785282
O8    O     O_R   0.306870 0.560460 0.447950 -0.640713
O9    O     O_R   0.697260 0.434930 0.470830 -0.610492
O10   O     O_R   0.434240 0.306870 0.546470 -0.647016
O11   O     O_R   0.561630 0.697750 0.534750 -0.639941
O12   O     O_R   0.542340 0.296600 0.470110 -0.599911
O13   O     O_R   0.461800 0.698790 0.448670 -0.639236
O14   O     O_R   0.296600 0.461110 0.533510 -0.645863
O15   O     O_R   0.699270 0.543500 0.547710 -0.645996
Zn1   Zn    Zn3+2 0.433070 0.575010 0.435400 0.977855
Zn2   Zn    Zn3+2 0.418400 0.433070 0.557650 0.979184
Zn3   Zn    Zn3+2 0.575700 0.573520 0.558390 0.981149
Zn4   Zn    Zn3+2 0.572830 0.418400 0.448560 1.021718

loop_
_geom_bond_atom_site_label_1
_geom_bond_atom_site_label_2
_ccdc_geom_bond_type
C37   H8    S    
C27   H20   S    
C2    H10   S    
C39   C40   A    
O13   Zn1   S    
C4    C7    S    
O8    Zn1   S    
C38   H3    S    
C24   C25   A    
C33   C35   A    
C22   C24   A    
C8    C13   A    
C13   C14   A    
C32   C33   A    
C23   H7    S    
C5    C38   A    
C1    O12   A    
C32   C34   A    
C34   H9    S    
O5    Zn1   S    
C3    C41   S    
C36   O6    D    
C24   C29   A    
C6    C14   A    
O2    Zn2   S    
C3    C36   S    
O1    Zn2   S    
C39   H6    S    
C31   O3    A    
C4    O11   A    
C18   C27   A    
C21   H4    S    
C11   C17   A    
C22   H5    S    
C1    C6    S    
C37   C38   A    
C37   C41   A    
C18   C26   A    
C17   H16   S    
Br2   C29   S    
C40   H12   S    
O3    Zn4   S    
C31   C32   S    
Br1   C14   S    
C33   H1    S    
C7    C9    A    
O1    Zn4   S    
C30   O4    A    
C35   H11   S    
C36   O7    S    
O4    Zn3   S    
H13   O7    S    
C20   C25   A    
C11   C13   A    
O1    Zn1   S    
C40   C41   A    
O11   Zn3   S    
C9    H17   S    
O14   Zn2   S    
C16   O8    A    
C5    C30   S    
C8    H15   S    
C2    C3    D    
C28   O9    A    
O12   Zn4   S    
C4    O13   A    
C19   C28   S    
C6    C15   A    
C19   C21   A    
C27   C29   A    
C12   C35   A    
C10   H18   S    
O15   Zn3   S    
C16   O14   A    
C15   C17   A    
O10   Zn2   S    
C16   C18   S    
C5    C39   A    
C12   C23   A    
C2    C12   S    
C1    O10   A    
C7    C10   A    
O1    Zn3   S    
C8    C9    A    
C23   C34   A    
C28   O15   A    
C20   H2    S    
C10   C11   A    
C19   C22   A    
C25   C26   A    
C20   C21   A    
O9    Zn4   S    
C31   O5    A    
C15   H14   S    
C30   O2    A    
C26   H19   S    
