data_mof_unit_15226.cif
_audit_creation_date              2012-12-10T17:12:45-0500
_audit_creation_method            fapswitch 2.2
_symmetry_space_group_name_H-M    P1
_symmetry_Int_Tables_number       1
_space_group_crystal_system       triclinic
_cell_length_a                    23.436296
_cell_length_b                    10.741537
_cell_length_c                    10.041989
_cell_angle_alpha                 90.017466
_cell_angle_beta                  89.639617
_cell_angle_gamma                 90.020261
_cell_volume                      2527.93851404

loop_
_atom_site_label
_atom_site_type_symbol
_atom_type_description
_atom_site_fract_x
_atom_site_fract_y
_atom_site_fract_z
_atom_type_partial_charge
C1    C     C_R   0.501228 0.262743 0.499813 0.939895
C2    C     C_R   0.119727 0.609132 0.472366 0.519050
C3    C     C_R   0.238028 0.504389 0.381562 -0.102101
C4    C     C_R   0.389378 0.500067 0.500432 0.871779
C5    C     C_R   0.297223 0.503854 0.380671 -0.208199
C6    C     C_R   0.327135 0.500596 0.501339 -0.039420
C7    C     C_R   0.297075 0.497982 0.622761 -0.219532
C8    C     C_R   0.237838 0.498314 0.623228 -0.095355
C9    C     C_R   0.208453 0.501540 0.502696 0.315162
C10   C     C_R   0.761614 0.449173 0.389228 0.232256
C11   C     C_R   0.702181 0.448944 0.390955 -0.289320
C12   C     C_R   0.970669 0.279282 0.557646 0.414281
C13   C     C_R   0.672441 0.500802 0.498680 -0.084408
C14   C     C_R   0.702006 0.553422 0.605416 -0.289247
C15   C     C_R   0.761444 0.554175 0.605437 0.236186
C16   C     C_R   0.498667 0.737242 0.499966 0.932613
C17   C     C_R   0.791219 0.501742 0.496994 0.253787
C18   C     C_2   0.501256 0.932991 0.387613 -0.149073
C19   C     C_2   0.493195 0.868771 0.499939 -0.325942
C20   C     C_2   0.497911 0.066906 0.387688 -0.153610
C21   C     C_2   0.506506 0.131174 0.499543 -0.323663
C22   C     C_2   0.542320 0.538850 0.926800 -0.019277
C23   C     C_R   0.029989 0.281955 0.559293 -0.203533
C24   C     C_2   0.538039 0.557620 0.074820 -0.135631
C25   C     C_R   0.610472 0.500205 0.499595 0.902157
C26   C     C_R   0.880254 0.609579 0.470257 0.538577
C27   C     C_R   0.879755 0.392279 0.522612 0.565527
C28   C     C_R   0.939646 0.388852 0.525854 -0.110490
C29   C     C_R   0.969752 0.500379 0.496421 -0.109721
C30   C     C_R   0.940078 0.611604 0.465235 -0.037523
C31   C     C_3   0.808934 0.524629 0.815238 -0.771263
C32   C     C_3   0.421951 0.633182 0.901951 -0.681583
C33   C     C_3   0.932510 0.837772 0.249199 -0.650382
C34   C     C_R   0.059822 0.391356 0.530268 -0.075527
C35   C     C_3   0.809521 0.480189 0.178797 -0.788107
C36   C     C_R   0.029853 0.500838 0.498572 -0.018780
C37   C     C_R   0.060131 0.610834 0.469330 -0.029492
C38   C     C_R   0.030650 0.719449 0.436351 -0.218807
C39   C     C_R   0.971180 0.720816 0.431781 0.217053
C40   C     C_R   0.119439 0.393923 0.531869 0.529943
Cl1   Cl    Cl    0.939140 0.134923 0.599027 -0.551770
H1    H     H_    0.679304 0.407619 0.308522 0.165079
H2    H     H_    0.478781 0.428476 0.105695 0.199718
H3    H     H_    0.053707 0.803839 0.411338 0.196843
H4    H     H_    0.215020 0.506694 0.288402 0.139841
H5    H     H_    0.319428 0.506032 0.285787 0.165064
H6    H     H_    0.319193 0.495581 0.717101 0.159233
H7    H     H_    0.214688 0.496302 0.716876 0.140395
H8    H     H_    0.770691 0.687104 0.752040 0.241154
H9    H     H_    0.833987 0.575489 0.891351 0.243653
H10   H     H_    0.836346 0.450133 0.773010 0.270141
H11   H     H_    0.770969 0.482079 0.864104 0.235695
H12   H     H_    0.678986 0.594469 0.688451 0.157134
H13   H     H_    0.419274 0.444159 0.863769 0.237643
H14   H     H_    0.379030 0.631685 0.949361 0.206297
H15   H     H_    0.417623 0.666237 0.797902 0.256018
H16   H     H_    0.449106 0.699447 0.957988 0.232444
H17   H     H_    0.963125 0.912085 0.424411 0.266509
H18   H     H_    0.907710 0.923132 0.226466 0.255990
H19   H     H_    0.907276 0.755687 0.216806 0.240098
H20   H     H_    0.973385 0.840690 0.192512 0.214137
H21   H     H_    0.771146 0.317191 0.241410 0.242135
H22   H     H_    0.834762 0.429923 0.101867 0.250101
H23   H     H_    0.509929 0.887248 0.293081 0.172516
H24   H     H_    0.836815 0.554471 0.221126 0.256462
H25   H     H_    0.771660 0.522991 0.130918 0.236938
H26   H     H_    0.481006 0.911507 0.593685 0.150041
H27   H     H_    0.488892 0.112627 0.293618 0.172863
H28   H     H_    0.518981 0.088437 0.592686 0.151814
H29   H     H_    0.582827 0.560687 0.879528 0.117780
H30   H     H_    0.569044 0.617591 0.122525 0.151125
H31   H     H_    0.052776 0.197348 0.583966 0.220100
N1    N     N_R   0.852094 0.501208 0.496565 -0.347253
N2    N     N_R   0.147792 0.501693 0.503031 -0.360275
N3    N     N_2   0.500610 0.501330 0.852150 -0.036585
N4    N     N_2   0.500630 0.501360 0.147810 -0.183974
N5    N     N_2   0.791316 0.610521 0.712626 -0.281373
N6    N     N_2   0.446217 0.509177 0.905058 -0.253643
N7    N     N_2   0.943505 0.832189 0.390699 -0.230873
N8    N     N_2   0.791678 0.393554 0.281040 -0.281624
O1    O     O_R   0.499990 0.319060 0.613040 -0.615427
O2    O     O_R   0.583840 0.500020 0.613040 -0.625731
O3    O     O_R   0.583850 0.500060 0.386900 -0.620022
O4    O     O_2   0.849865 0.714401 0.449517 -0.514209
O5    O     O_2   0.848674 0.288981 0.546547 -0.480762
O6    O     O_2   0.148999 0.289651 0.560928 -0.546074
O7    O     O_2   0.149555 0.713768 0.445313 -0.547179
O8    O     O_R   0.500010 0.319100 0.386900 -0.619991
O9    O     O_R   0.416150 0.499940 0.613100 -0.633124
O10   O     O_R   0.416160 0.499980 0.386960 -0.614412
O11   O     O_R   0.499990 0.680900 0.613100 -0.622692
O12   O     O_R   0.500010 0.680940 0.386960 -0.608869
Zn1   Zn    Zn3+2 0.499990 0.499970 0.650990 0.945531
Zn2   Zn    Zn3+2 0.500010 0.500030 0.349010 0.947088

loop_
_geom_bond_atom_site_label_1
_geom_bond_atom_site_label_2
_ccdc_geom_bond_type
C1    C21   S    
C31   H11   S    
C7    C8    A    
C29   C36   A    
C12   Cl1   S    
C12   C28   A    
C34   C40   A    
C5    C6    A    
C32   H16   S    
H21   N8    S    
C36   C37   A    
C37   C38   A    
C38   C39   A    
C35   H24   S    
C10   C17   A    
C1    O1    A    
C35   N8    S    
C26   N1    A    
C11   H1    S    
C18   C19   D    
C40   O6    S    
C27   O5    S    
N4    Zn2   S    
C40   N2    A    
C8    C9    A    
C19   H26   S    
C32   H14   S    
C18   C20   S    
C2    N2    A    
C1    O8    A    
C33   H18   S    
O2    Zn1   S    
C13   C14   A    
C17   N1    S    
C13   C25   S    
C22   N3    D    
O10   Zn2   S    
C4    O10   A    
O8    Zn2   S    
C4    C6    S    
C10   N8    S    
C33   N7    S    
C35   H25   S    
O3    Zn2   S    
C3    H4    S    
C21   H28   S    
C39   N7    S    
C8    H7    S    
C38   H3    S    
C29   C30   A    
C3    C9    A    
O11   Zn1   S    
O1    Zn1   S    
C12   C23   A    
C23   C34   A    
O12   Zn2   S    
C2    O7    S    
H17   N7    S    
C16   O12   A    
C33   H19   S    
C25   O2    A    
C22   C24   S    
C9    N2    S    
C31   H9    S    
N3    Zn1   S    
C4    O9    A    
H2    N4    S    
C15   C17   A    
C28   C29   A    
C31   N5    S    
C26   O4    S    
C23   H31   S    
C20   H27   S    
C24   N4    D    
C31   H10   S    
C3    C5    A    
C26   C30   A    
C6    C7    A    
C5    H5    S    
C11   C13   A    
C2    C37   A    
C18   H23   S    
C15   N5    S    
C16   C19   S    
H8    N5    S    
C30   C39   A    
C34   C36   A    
O9    Zn1   S    
N3    N6    S    
C10   C11   A    
C32   N6    S    
C14   H12   S    
C20   C21   D    
C16   O11   A    
C33   H20   S    
C27   C28   A    
C25   O3    A    
C32   H15   S    
C14   C15   A    
C35   H22   S    
C27   N1    A    
C22   H29   S    
C24   H30   S    
C7    H6    S    
H13   N6    S    
