data_mof_unit_29400.cif
_audit_creation_date              2012-12-11T14:41:14-0500
_audit_creation_method            fapswitch 2.2
_symmetry_space_group_name_H-M    P1
_symmetry_Int_Tables_number       1
_space_group_crystal_system       triclinic
_cell_length_a                    24.708166
_cell_length_b                    17.495343
_cell_length_c                    15.522693
_cell_angle_alpha                 89.999289
_cell_angle_beta                  129.316424
_cell_angle_gamma                 90.000714
_cell_volume                      5191.33921161

loop_
_atom_site_label
_atom_site_type_symbol
_atom_type_description
_atom_site_fract_x
_atom_site_fract_y
_atom_site_fract_z
_atom_type_partial_charge
C1    C     C_R   0.347263 0.363694 0.231202 -0.119856
C2    C     C_R   0.347265 0.636308 0.231207 -0.119856
C3    C     C_R   0.847264 0.863694 0.231204 -0.119857
C4    C     C_R   0.847264 0.136306 0.231204 -0.119855
C5    C     C_R   0.646793 0.371476 0.861276 0.150060
C6    C     C_R   0.646793 0.628526 0.861276 0.150056
C7    C     C_R   0.146794 0.871476 0.861278 0.150056
C8    C     C_R   0.146793 0.128524 0.861276 0.150058
C9    C     C_R   0.684098 0.381494 0.502256 -0.067792
C10   C     C_R   0.684099 0.618502 0.502256 -0.067782
C11   C     C_R   0.184096 0.881491 0.502257 -0.067781
C12   C     C_R   0.184102 0.118488 0.502251 -0.067791
C13   C     C_R   0.352094 0.326584 0.505519 -0.002779
C14   C     C_R   0.352077 0.673394 0.505519 -0.002781
C15   C     C_R   0.852084 0.826597 0.505519 -0.002780
C16   C     C_R   0.852083 0.173401 0.505519 -0.002775
C17   C     C_3   0.348165 0.238990 0.628066 -0.413531
C18   C     C_3   0.348121 0.760932 0.628077 -0.413560
C19   C     C_3   0.848135 0.739043 0.628074 -0.413553
C20   C     C_3   0.848133 0.260950 0.628076 -0.413553
C21   C     C_3   0.801126 0.681682 0.626739 -0.402841
C22   C     C_3   0.801129 0.318319 0.626745 -0.402832
C23   C     C_3   0.301160 0.181618 0.626730 -0.402815
C24   C     C_3   0.301122 0.818311 0.626738 -0.402846
C25   C     C_3   0.240790 0.305957 0.462988 -0.406848
C26   C     C_3   0.240749 0.694035 0.462906 -0.406883
C27   C     C_3   0.740765 0.805962 0.462936 -0.406860
C28   C     C_3   0.740761 0.194038 0.462924 -0.406883
C29   C     C_3   0.297980 0.199383 0.434462 -0.399012
C30   C     C_3   0.298009 0.800616 0.434537 -0.399003
C31   C     C_3   0.797999 0.699383 0.434513 -0.398991
C32   C     C_3   0.798003 0.300619 0.434520 -0.399002
C33   C     C_3   0.311104 0.268462 0.508161 0.404463
C34   C     C_3   0.311085 0.731510 0.508161 0.404506
C35   C     C_3   0.811092 0.768480 0.508162 0.404488
C36   C     C_3   0.811091 0.231518 0.508162 0.404461
C37   C     C_3   0.732304 0.669616 0.505413 0.409389
C38   C     C_3   0.732303 0.330381 0.505415 0.409403
C39   C     C_3   0.232311 0.169598 0.505408 0.409373
C40   C     C_3   0.232299 0.830375 0.505415 0.409389
C41   C     C_3   0.693965 0.747444 0.459052 -0.395227
C42   C     C_3   0.693965 0.252548 0.459062 -0.395189
C43   C     C_3   0.193994 0.247447 0.459128 -0.395184
C44   C     C_3   0.193962 0.752546 0.459064 -0.395251
C45   C     C_R   0.666749 0.391307 0.798562 -0.119587
C46   C     C_R   0.666750 0.608695 0.798563 -0.119588
C47   C     C_R   0.166750 0.891307 0.798564 -0.119587
C48   C     C_R   0.166750 0.108692 0.798563 -0.119587
C49   C     C_3   0.752561 0.639564 0.435078 -0.402073
C50   C     C_3   0.752557 0.360434 0.435069 -0.402013
C51   C     C_3   0.252526 0.139572 0.434998 -0.402001
C52   C     C_3   0.252551 0.860420 0.435069 -0.402095
C53   C     C_2   0.692820 0.342674 0.975417 -0.218712
C54   C     C_2   0.692821 0.657326 0.975419 -0.218708
C55   C     C_2   0.192822 0.842676 0.975421 -0.218709
C56   C     C_2   0.192820 0.157326 0.975417 -0.218709
C57   C     C_2   0.762188 0.342658 0.034766 -0.109034
C58   C     C_2   0.762189 0.657342 0.034767 -0.109030
C59   C     C_2   0.262190 0.842661 0.034770 -0.109034
C60   C     C_2   0.262188 0.157342 0.034766 -0.109032
C61   C     C_2   0.353769 0.749292 0.136355 -0.221477
C62   C     C_2   0.353765 0.250713 0.136347 -0.221478
C63   C     C_2   0.853766 0.249289 0.136350 -0.221477
C64   C     C_2   0.853767 0.750711 0.136351 -0.221477
C65   C     C_2   0.304072 0.789319 0.126624 -0.113021
C66   C     C_2   0.304068 0.210685 0.126618 -0.113020
C67   C     C_2   0.804069 0.289315 0.126619 -0.113021
C68   C     C_2   0.804071 0.710683 0.126622 -0.113022
C69   C     C_R   0.616211 0.398006 0.409097 0.075258
C70   C     C_R   0.616212 0.601991 0.409097 0.075250
C71   C     C_R   0.116211 0.898005 0.409097 0.075249
C72   C     C_R   0.116211 0.101988 0.409094 0.075260
C73   C     C_R   0.408422 0.364714 0.596613 -0.141838
C74   C     C_R   0.408411 0.635271 0.596614 -0.141850
C75   C     C_R   0.908417 0.864722 0.596614 -0.141844
C76   C     C_R   0.908415 0.135276 0.596614 -0.141844
C77   C     C_R   0.689167 0.398470 0.593502 -0.166852
C78   C     C_R   0.689167 0.601528 0.593502 -0.166856
C79   C     C_R   0.189166 0.898469 0.593503 -0.166850
C80   C     C_R   0.189169 0.101520 0.593498 -0.166847
C81   C     C_R   0.330078 0.364918 0.410269 -0.143317
C82   C     C_R   0.330069 0.635071 0.410268 -0.143325
C83   C     C_R   0.830073 0.864924 0.410269 -0.143323
C84   C     C_R   0.830073 0.135075 0.410269 -0.143320
C85   C     C_R   0.577277 0.391980 0.801553 -0.156223
C86   C     C_R   0.577277 0.608022 0.801552 -0.156216
C87   C     C_R   0.077278 0.891980 0.801554 -0.156218
C88   C     C_R   0.077277 0.108020 0.801552 -0.156219
C89   C     C_R   0.440337 0.359830 0.237190 -0.150036
C90   C     C_R   0.440339 0.640172 0.237193 -0.150037
C91   C     C_R   0.940338 0.859830 0.237191 -0.150039
C92   C     C_R   0.940338 0.140171 0.237191 -0.150041
C93   C     C_R   0.379872 0.321670 0.199986 0.142156
C94   C     C_R   0.379875 0.678334 0.199992 0.142156
C95   C     C_R   0.879873 0.821669 0.199988 0.142158
C96   C     C_R   0.879873 0.178332 0.199988 0.142155
H1    H     H_    0.295574 0.354516 0.204406 0.084314
H2    H     H_    0.295578 0.645489 0.204414 0.084315
H3    H     H_    0.795575 0.854513 0.204409 0.084315
H4    H     H_    0.795575 0.145485 0.204410 0.084314
H5    H     H_    0.398951 0.211595 0.662550 0.156309
H6    H     H_    0.398925 0.788307 0.662627 0.156302
H7    H     H_    0.898927 0.711649 0.662595 0.156314
H8    H     H_    0.898929 0.288337 0.662607 0.156311
H9    H     H_    0.829289 0.626428 0.663099 0.149065
H10   H     H_    0.829296 0.373576 0.663097 0.149063
H11   H     H_    0.329312 0.126348 0.663027 0.149069
H12   H     H_    0.329291 0.873563 0.663082 0.149081
H13   H     H_    0.289660 0.204788 0.680416 0.154407
H14   H     H_    0.289591 0.795133 0.680376 0.154431
H15   H     H_    0.789590 0.704877 0.680366 0.154440
H16   H     H_    0.789598 0.295128 0.680384 0.154426
H17   H     H_    0.250251 0.354686 0.517244 0.158972
H18   H     H_    0.250173 0.645281 0.517098 0.158981
H19   H     H_    0.750203 0.854694 0.517170 0.158983
H20   H     H_    0.750193 0.145294 0.517136 0.158984
H21   H     H_    0.678669 0.768768 0.508593 0.159699
H22   H     H_    0.678685 0.231216 0.508628 0.159693
H23   H     H_    0.178745 0.268762 0.508743 0.159698
H24   H     H_    0.178690 0.731215 0.508634 0.159718
H25   H     H_    0.770989 0.718150 0.347371 0.147807
H26   H     H_    0.771003 0.281854 0.347381 0.147804
H27   H     H_    0.270971 0.218175 0.347329 0.147787
H28   H     H_    0.271026 0.781861 0.347400 0.147800
H29   H     H_    0.348628 0.173139 0.466141 0.159143
H30   H     H_    0.348673 0.826852 0.466285 0.159148
H31   H     H_    0.848657 0.673155 0.466216 0.159134
H32   H     H_    0.848663 0.326850 0.466240 0.159140
H33   H     H_    0.781697 0.584749 0.470449 0.151934
H34   H     H_    0.781687 0.415259 0.470428 0.151914
H35   H     H_    0.281634 0.084730 0.470293 0.151917
H36   H     H_    0.281663 0.915248 0.470403 0.151932
H37   H     H_    0.706240 0.628467 0.347670 0.170323
H38   H     H_    0.706231 0.371520 0.347650 0.170314
H39   H     H_    0.206184 0.128529 0.347578 0.170321
H40   H     H_    0.206228 0.871485 0.347659 0.170342
H41   H     H_    0.212814 0.329054 0.377565 0.150458
H42   H     H_    0.212784 0.670981 0.377468 0.150461
H43   H     H_    0.712803 0.829052 0.377514 0.150447
H44   H     H_    0.712798 0.170968 0.377494 0.150457
H45   H     H_    0.718777 0.390977 0.823923 0.079203
H46   H     H_    0.718778 0.609024 0.823925 0.079203
H47   H     H_    0.218778 0.890978 0.823925 0.079203
H48   H     H_    0.218778 0.109023 0.823925 0.079204
H49   H     H_    0.645154 0.741507 0.371317 0.156813
H50   H     H_    0.645140 0.258481 0.371330 0.156796
H51   H     H_    0.145152 0.241542 0.371405 0.156785
H52   H     H_    0.145139 0.758481 0.371347 0.156810
H53   H     H_    0.286273 0.773526 0.172726 0.124119
H54   H     H_    0.286269 0.226478 0.172720 0.124119
H55   H     H_    0.786269 0.273522 0.172720 0.124119
H56   H     H_    0.786272 0.726475 0.172725 0.124120
H57   H     H_    0.786521 0.370624 0.004604 0.123216
H58   H     H_    0.786521 0.629379 0.004604 0.123214
H59   H     H_    0.286522 0.870626 0.004607 0.123216
H60   H     H_    0.286521 0.129377 0.004605 0.123214
H61   H     H_    0.371182 0.765311 0.089714 0.129045
H62   H     H_    0.371177 0.234695 0.089705 0.129044
H63   H     H_    0.871179 0.265308 0.089709 0.129044
H64   H     H_    0.871178 0.734694 0.089708 0.129044
H65   H     H_    0.669209 0.314087 0.006599 0.128699
H66   H     H_    0.669209 0.685910 0.006601 0.128698
H67   H     H_    0.169211 0.814088 0.006603 0.128699
H68   H     H_    0.169208 0.185913 0.006597 0.128697
H69   H     H_    0.436306 0.354106 0.683923 0.092903
H70   H     H_    0.436291 0.645874 0.683925 0.092903
H71   H     H_    0.936300 0.854116 0.683925 0.092903
H72   H     H_    0.936298 0.145881 0.683925 0.092903
H73   H     H_    0.735361 0.399411 0.680207 0.097631
H74   H     H_    0.735360 0.600588 0.680207 0.097631
H75   H     H_    0.235359 0.899408 0.680208 0.097628
H76   H     H_    0.235365 0.100574 0.680202 0.097629
H77   H     H_    0.282475 0.355428 0.326746 0.080772
H78   H     H_    0.282468 0.644562 0.326743 0.080775
H79   H     H_    0.782472 0.855433 0.326744 0.080774
H80   H     H_    0.782472 0.144567 0.326744 0.080773
H81   H     H_    0.549184 0.393782 0.833642 0.094353
H82   H     H_    0.549183 0.606220 0.833641 0.094353
H83   H     H_    0.049185 0.893783 0.833644 0.094353
H84   H     H_    0.049183 0.106218 0.833641 0.094353
H85   H     H_    0.476041 0.342365 0.223477 0.114638
H86   H     H_    0.476044 0.657637 0.223482 0.114635
H87   H     H_    0.976042 0.842367 0.223478 0.114637
H88   H     H_    0.976040 0.157636 0.223476 0.114642
H89   H     H_    0.358853 0.286970 0.684059 0.150324
H90   H     H_    0.358768 0.712930 0.684010 0.150348
H91   H     H_    0.858807 0.787040 0.684031 0.150330
H92   H     H_    0.858795 0.212952 0.684025 0.150340
N1    N     N_R   0.389430 0.421450 0.294590 -0.046303
N2    N     N_R   0.389430 0.578550 0.294590 -0.046305
N3    N     N_R   0.889430 0.921450 0.294590 -0.046304
N4    N     N_R   0.889430 0.078550 0.294590 -0.046304
N5    N     N_R   0.612200 0.424040 0.705410 -0.043179
N6    N     N_R   0.612200 0.575960 0.705410 -0.043179
N7    N     N_R   0.112200 0.924040 0.705410 -0.043179
N8    N     N_R   0.112200 0.075960 0.705410 -0.043179
N9    N     N_R   0.581780 0.422390 0.443390 -0.055408
N10   N     N_R   0.581780 0.577610 0.443390 -0.055408
N11   N     N_R   0.081780 0.922390 0.443390 -0.055407
N12   N     N_R   0.081780 0.077610 0.443390 -0.055409
N13   N     N_R   0.419850 0.423100 0.556610 -0.035147
N14   N     N_R   0.419850 0.576900 0.556610 -0.035144
N15   N     N_R   0.919850 0.923100 0.556610 -0.035146
N16   N     N_R   0.919850 0.076900 0.556610 -0.035145
N17   N     N_R   0.627410 0.423100 0.556610 -0.041755
N18   N     N_R   0.627410 0.576900 0.556610 -0.041756
N19   N     N_R   0.127410 0.923100 0.556610 -0.041755
N20   N     N_R   0.127410 0.076900 0.556610 -0.041758
N21   N     N_R   0.374220 0.422390 0.443390 -0.034746
N22   N     N_R   0.374220 0.577610 0.443390 -0.034743
N23   N     N_R   0.874220 0.922390 0.443390 -0.034744
N24   N     N_R   0.874220 0.077610 0.443390 -0.034744
N25   N     N_R   0.555000 0.424040 0.705410 -0.039932
N26   N     N_R   0.555000 0.575960 0.705410 -0.039932
N27   N     N_R   0.055000 0.924040 0.705410 -0.039933
N28   N     N_R   0.055000 0.075960 0.705410 -0.039933
N29   N     N_R   0.446630 0.421450 0.294590 -0.043573
N30   N     N_R   0.446630 0.578550 0.294590 -0.043573
N31   N     N_R   0.946630 0.921450 0.294590 -0.043573
N32   N     N_R   0.946630 0.078550 0.294590 -0.043573
Ni1   Ni    Ni4+2 0.382890 0.500000 0.370170 0.207765
Ni2   Ni    Ni4+2 0.882890 0.000000 0.370170 0.207765
Ni3   Ni    Ni4+2 0.618740 0.500000 0.629830 0.198693
Ni4   Ni    Ni4+2 0.118740 0.000000 0.629830 0.198692
Ni5   Ni    Ni4+2 0.514090 0.500000 0.370170 0.235985
Ni6   Ni    Ni4+2 0.014090 0.000000 0.370170 0.235985
Ni7   Ni    Ni4+2 0.487550 0.500000 0.629830 0.207499
Ni8   Ni    Ni4+2 0.987550 0.000000 0.629830 0.207499
C97   C     C_1   0.590152 0.405370 0.296239 -0.035087
N33   N     N_1   0.569077 0.410998 0.205365 -0.095310
C98   C     C_1   0.590153 0.594620 0.296240 -0.035083
N34   N     N_1   0.569080 0.588986 0.205367 -0.095306
C99   C     C_1   0.090154 0.905376 0.296241 -0.035081
N35   N     N_1   0.069082 0.911010 0.205369 -0.095305
C100  C     C_1   0.090143 0.094624 0.296231 -0.035082
N36   N     N_1   0.069062 0.088995 0.205353 -0.095312

loop_
_geom_bond_atom_site_label_1
_geom_bond_atom_site_label_2
_ccdc_geom_bond_type
C87   N27   A    
C15   C75   A    
C30   H30   S    
C55   C59   D    
N10   N18   A    
N21   Ni1   S    
C4    N4    A    
C81   N21   A    
N4    Ni2   S    
C28   H44   S    
C63   H63   S    
C25   C43   S    
C8    C48   A    
C10   C78   A    
C26   C44   S    
C46   H46   S    
N24   Ni2   S    
C2    H2    S    
C75   H71   S    
C84   N24   A    
C17   C23   S    
C10   C37   S    
C18   C24   S    
C32   C36   S    
C47   N7    A    
C19   C21   S    
C57   C67   S    
C66   H54   S    
C77   N17   A    
C69   N9    A    
C54   C58   D    
C31   H31   S    
N8    N28   A    
C81   H77   S    
C11   C71   A    
C20   H92   S    
C44   H24   S    
C22   C38   S    
C3    H3    S    
C47   H47   S    
C92   C96   A    
C48   H48   S    
C41   H49   S    
N13   Ni7   S    
N27   Ni8   S    
C18   H6    S    
C79   H75   S    
C43   H23   S    
C92   N32   A    
C17   H5    S    
C70   C98   S    
C90   N30   A    
C49   H37   S    
C50   H34   S    
C19   H91   S    
C39   C51   S    
C4    C96   A    
C19   H7    S    
C26   C34   S    
C7    C87   A    
C82   H78   S    
C29   C33   S    
C17   H89   S    
C68   H56   S    
N14   N22   A    
C51   H39   S    
C100  N36   T    
C62   H62   S    
C90   C94   A    
C25   H17   S    
C24   H12   S    
C7    C55   S    
N16   Ni8   S    
C58   H58   S    
C99   N35   T    
N30   Ni5   S    
N7    N27   A    
N9    Ni5   S    
N10   Ni5   S    
C6    C46   A    
C5    C85   A    
C12   C72   A    
C60   C66   S    
N19   Ni4   S    
C70   N10   A    
N22   Ni1   S    
C5    C45   A    
C48   N8    A    
C45   N5    A    
C8    C56   S    
N15   N23   A    
C11   C40   S    
C17   C33   S    
C31   C49   S    
C86   H82   S    
N2    N30   A    
N13   N21   A    
N15   Ni8   S    
C21   H15   S    
N1    N29   A    
C88   H84   S    
C59   C65   S    
C78   N18   A    
C73   N13   A    
C23   H13   S    
C63   C67   D    
C28   H20   S    
C30   C34   S    
C67   H55   S    
C52   H36   S    
C90   H86   S    
C2    C94   A    
C69   C97   S    
C24   H14   S    
C31   H25   S    
C73   H69   S    
N9    N17   A    
C50   H38   S    
N2    Ni1   S    
N3    N31   A    
C62   C66   D    
C61   C94   S    
C42   H22   S    
C15   C83   A    
C12   C80   A    
C74   N14   A    
C27   C35   S    
N12   Ni6   S    
N23   Ni2   S    
C49   H33   S    
C63   C96   S    
C18   H90   S    
C16   C84   A    
C27   H43   S    
C56   C60   D    
C46   N6    A    
C89   C93   A    
C8    C88   A    
C7    C47   A    
C25   H41   S    
C86   N26   A    
C78   H74   S    
C13   C33   S    
C97   N33   T    
N25   Ni7   S    
C85   N25   A    
C72   N12   A    
C37   C49   S    
C27   C41   S    
C85   H81   S    
C20   C22   S    
N18   Ni3   S    
C13   C81   A    
C23   H11   S    
N16   N24   A    
C25   C33   S    
N11   N19   A    
N32   Ni6   S    
N28   Ni8   S    
C54   H66   S    
C71   N11   A    
N26   Ni7   S    
C18   C34   S    
N3    Ni2   S    
C32   C50   S    
N8    Ni4   S    
C11   C79   A    
C45   H45   S    
C20   H8    S    
C61   H61   S    
C10   C70   A    
C22   H10   S    
C80   N20   A    
C87   H83   S    
C30   H28   S    
C6    C54   S    
C22   H16   S    
C4    H4    S    
C92   H88   S    
C91   N31   A    
C52   H40   S    
C31   C35   S    
C80   H76   S    
C14   C82   A    
C1    H1    S    
C42   H50   S    
C64   C68   D    
C14   C74   A    
C74   H70   S    
C32   H26   S    
C29   H29   S    
C29   C51   S    
C58   C68   S    
C26   H18   S    
C1    C93   A    
C77   H73   S    
C30   C52   S    
C24   C40   S    
C75   N15   A    
C51   H35   S    
C88   N28   A    
C91   H87   S    
C16   C76   A    
C2    N2    A    
C64   C95   S    
C9    C69   A    
C26   H42   S    
C53   C57   D    
C14   C34   S    
N6    N26   A    
C39   C43   S    
C76   N16   A    
N5    N25   A    
N14   Ni7   S    
C38   C50   S    
N20   Ni4   S    
C59   H59   S    
C56   H68   S    
C64   H64   S    
C6    C86   A    
C72   C100  S    
C27   H19   S    
C32   H32   S    
C12   C39   S    
C9    C77   A    
N5    Ni3   S    
C55   H67   S    
C40   C52   S    
C16   C36   S    
C5    C53   S    
C53   H65   S    
N7    Ni4   S    
C57   H57   S    
C79   N19   A    
C29   H27   S    
C28   C42   S    
C9    C38   S    
C44   H52   S    
C3    C95   A    
N17   Ni3   S    
C83   H79   S    
C76   H72   S    
N1    Ni1   S    
C60   H60   S    
C71   C99   S    
N31   Ni6   S    
C37   C41   S    
C3    N3    A    
N11   Ni6   S    
C21   H9    S    
C15   C35   S    
C43   H51   S    
C89   N29   A    
C20   C36   S    
C38   C42   S    
C61   C65   D    
C40   C44   S    
C21   C37   S    
C28   C36   S    
C91   C95   A    
N12   N20   A    
C62   C93   S    
N29   Ni5   S    
C98   N34   T    
C65   H53   S    
N4    N32   A    
C19   C35   S    
C13   C73   A    
C41   H21   S    
C84   H80   S    
C23   C39   S    
C83   N23   A    
C89   H85   S    
N6    Ni3   S    
C82   N22   A    
C1    N1    A    
