data_mof_unit_66537.cif
_audit_creation_date              2012-12-11T16:32:28-0500
_audit_creation_method            fapswitch 2.2
_symmetry_space_group_name_H-M    P1
_symmetry_Int_Tables_number       1
_space_group_crystal_system       triclinic
_cell_length_a                    6.992447
_cell_length_b                    14.458361
_cell_length_c                    16.056426
_cell_angle_alpha                 89.860139
_cell_angle_beta                  89.920452
_cell_angle_gamma                 90.814986
_cell_volume                      1623.12310288

loop_
_atom_site_label
_atom_site_type_symbol
_atom_type_description
_atom_site_fract_x
_atom_site_fract_y
_atom_site_fract_z
_atom_type_partial_charge
O1    O     O_R   0.361630 0.167340 0.164570 -0.519348
O2    O     O_R   0.638370 0.832660 0.835430 -0.507065
O3    O     O_R   0.690860 0.157560 0.338690 -0.551017
O4    O     O_R   0.309140 0.842440 0.661310 -0.548986
O5    O     O_R   0.861260 0.336420 0.339380 -0.539312
O6    O     O_R   0.138740 0.663580 0.660620 -0.539886
C1    C     C_R   0.520940 0.134513 0.367391 0.691809
C2    C     C_R   0.478749 0.864892 0.632092 0.682736
O7    O     O_R   0.691330 0.156310 0.165190 -0.554469
O8    O     O_R   0.308670 0.843690 0.834810 -0.558747
O9    O     O_R   0.861730 0.335160 0.164640 -0.540198
O10   O     O_R   0.138270 0.664840 0.835360 -0.542680
C3    C     C_R   0.518235 0.128804 0.140939 0.839947
C4    C     C_R   0.480349 0.868505 0.861675 0.856453
O11   O     O_R   0.361150 0.168600 0.339320 -0.541155
O12   O     O_R   0.638850 0.831400 0.660680 -0.543468
O13   O     O_3   0.527950 0.310560 0.252000 -0.345834
O14   O     O_3   0.472050 0.689440 0.748000 -0.348554
V1    V     V_3+5 0.802770 0.240990 0.251980 1.404940
V2    V     V_3+5 0.197230 0.759010 0.748020 1.407724
O15   O     O_R   0.191450 0.346190 0.165260 -0.521032
O16   O     O_R   0.808550 0.653810 0.834740 -0.514656
C5    C     C_R   0.024110 0.362231 0.132334 0.733644
C6    C     C_R   0.976268 0.637083 0.867208 0.776544
O17   O     O_R   0.190980 0.347440 0.338770 -0.519416
O18   O     O_R   0.809020 0.652560 0.661230 -0.522319
C7    C     C_R   0.022661 0.368882 0.367683 0.744120
C8    C     C_R   0.977386 0.630911 0.632383 0.723764
V3    V     V_3+5 0.302780 0.262760 0.251980 1.502994
V4    V     V_3+5 0.697220 0.737240 0.748020 1.515542
O19   O     O_3   0.027730 0.193200 0.251960 -0.400048
O20   O     O_3   0.972270 0.806800 0.748040 -0.390647
C9    C     C_3   0.826556 0.474939 0.476156 0.437282
C10   C     C_3   0.174131 0.524489 0.523849 0.387773
C11   C     C_3   0.907936 0.462363 0.563945 0.296733
C12   C     C_3   0.092639 0.537060 0.435975 0.293186
C13   C     C_3   0.987608 0.562169 0.562024 -0.238127
C14   C     C_3   0.012627 0.437430 0.438014 -0.194922
C15   C     C_3   0.904386 0.575758 0.472660 -0.318347
C16   C     C_3   0.095975 0.423657 0.527155 -0.324059
H1    H     H_    0.824162 0.636132 0.449147 0.139332
H2    H     H_    0.175951 0.363149 0.550558 0.141848
H3    H     H_    0.196437 0.354708 0.751646 0.148531
H4    H     H_    0.915404 0.651629 0.260611 0.164382
C17   C     C_R   0.907471 0.686795 0.049497 0.211304
C18   C     C_R   0.043723 0.312329 0.951162 0.228125
C19   C     C_R   0.883937 0.706313 0.135753 0.288207
C20   C     C_R   0.110760 0.292217 0.869530 0.357454
C21   C     C_R   0.923763 0.638193 0.194522 -0.179922
C22   C     C_R   0.147200 0.365721 0.814622 -0.226067
C23   C     C_R   0.971303 0.550385 0.170111 -0.176384
C24   C     C_R   0.102899 0.455175 0.836219 -0.224553
C25   C     C_R   0.982476 0.525727 0.085361 0.005839
C26   C     C_R   0.042824 0.477785 0.917462 0.025779
C27   C     C_R   0.958707 0.595153 0.022761 -0.017472
C28   C     C_R   0.033952 0.406614 0.978473 -0.052438
C29   C     C_R   0.013113 0.431933 0.063842 -0.126598
C30   C     C_R   0.988736 0.569625 0.937255 -0.122356
H5    H     H_    0.996363 0.501445 0.219795 0.153062
H6    H     H_    0.118874 0.506185 0.787397 0.142432
C31   C     C_3   0.320111 0.021688 0.475584 -0.188853
C32   C     C_3   0.678517 0.977375 0.523418 -0.193912
C33   C     C_3   0.409653 0.924499 0.473992 0.370399
C34   C     C_3   0.588848 0.074436 0.525159 0.357969
H7    H     H_    0.171884 0.039450 0.458170 0.111496
H8    H     H_    0.826766 0.960141 0.541323 0.113635
C35   C     C_3   0.490959 0.936662 0.561823 -0.098417
C36   C     C_3   0.507794 0.062380 0.437223 -0.094115
C37   C     C_3   0.403391 0.034931 0.564684 -0.241049
C38   C     C_3   0.595012 0.964002 0.434239 -0.231581
H9    H     H_    0.326249 0.065870 0.617784 0.114578
H10   H     H_    0.673850 0.933680 0.381395 0.111569
H11   H     H_    0.240008 0.820234 0.230346 0.162320
H12   H     H_    0.714358 0.181441 0.773075 0.161864
C39   C     C_R   0.528905 0.189532 0.966170 0.336941
C40   C     C_R   0.411420 0.806274 0.035276 0.284389
C41   C     C_R   0.585922 0.217931 0.886595 -0.168874
C42   C     C_R   0.351428 0.779761 0.114878 -0.187995
C43   C     C_R   0.653002 0.154521 0.830134 -0.189000
C44   C     C_R   0.304448 0.845192 0.173180 -0.188843
C45   C     C_R   0.648322 0.059437 0.848289 0.241622
C46   C     C_R   0.328966 0.939986 0.156293 0.237823
C47   C     C_R   0.558397 0.027530 0.922816 -0.052465
C48   C     C_R   0.425495 0.968748 0.081933 -0.051700
C49   C     C_R   0.529033 0.093408 0.987267 -0.004886
C50   C     C_R   0.444617 0.902367 0.016342 -0.012240
C51   C     C_R   0.499340 0.933057 0.934831 -0.166420
C52   C     C_R   0.492352 0.062199 0.069622 -0.176584
H13   H     H_    0.588525 0.290526 0.869694 0.126642
H14   H     H_    0.329580 0.707426 0.130418 0.135108
O21   O     O_3   0.803263 0.422574 0.629369 -0.627019
H15   H     H_    0.892685 0.420789 0.677069 0.281491
O22   O     O_3   0.194109 0.574357 0.368408 -0.635888
H16   H     H_    0.240564 0.635944 0.386880 0.284368
O23   O     O_3   0.466077 0.254808 0.022421 -0.655782
H17   H     H_    0.474365 0.317440 0.997195 0.277726
O24   O     O_3   0.443724 0.738254 0.976380 -0.655181
H18   H     H_    0.413749 0.676297 0.000108 0.288386
N1    N     N_2   0.768832 0.999178 0.802810 -0.517830
H19   H     H_    0.891582 0.983350 0.834774 0.248271
C53   C     C_3   0.804098 0.019524 0.716327 -0.514405
H20   H     H_    0.666882 0.033669 0.685725 0.215147
H21   H     H_    0.875573 0.960542 0.686433 0.212580
H22   H     H_    0.900145 0.079882 0.709322 0.187957
N2    N     N_2   0.223167 0.005450 0.203253 -0.511824
H23   H     H_    0.122348 0.037943 0.167385 0.258974
C54   C     C_3   0.149018 0.979580 0.283943 -0.548425
H24   H     H_    0.264355 0.948866 0.320984 0.232426
H25   H     H_    0.027817 0.930403 0.277333 0.183756
H26   H     H_    0.095089 0.041159 0.316579 0.216831
O25   O     O_3   0.641408 0.448815 0.452100 -0.589716
H27   H     H_    0.625305 0.383487 0.469968 0.300445
O26   O     O_3   0.359424 0.550256 0.548007 -0.588235
H28   H     H_    0.374175 0.616366 0.532494 0.284418
N3    N     N_2   0.856671 0.756446 0.990972 -0.510279
H29   H     H_    0.748079 0.796038 0.011564 0.306183
C55   C     C_3   0.005805 0.819718 0.966461 -0.547718
H30   H     H_    0.955781 0.862950 0.914487 0.209582
H31   H     H_    0.126583 0.780351 0.944402 0.250743
H32   H     H_    0.047200 0.866088 0.018392 0.166317
N4    N     N_2   0.939761 0.242586 0.995674 -0.555291
H33   H     H_    0.826301 0.264160 0.030660 0.279746
C56   C     C_3   0.031475 0.160398 0.025746 -0.502715
H34   H     H_    0.048540 0.165629 0.093720 0.221072
H35   H     H_    0.171197 0.150376 0.996406 0.229575
H36   H     H_    0.940095 0.099061 0.011813 0.173381
N5    N     N_2   0.819074 0.795116 0.161952 -0.525735
H37   H     H_    0.898829 0.851181 0.141779 0.262484
C57   C     C_3   0.733601 0.805370 0.243557 -0.567878
H38   H     H_    0.667531 0.874449 0.247644 0.200974
H39   H     H_    0.843475 0.799905 0.293038 0.176842
H40   H     H_    0.620535 0.751783 0.253728 0.224284
N6    N     N_2   0.132894 0.198412 0.842709 -0.514351
H41   H     H_    0.030521 0.151851 0.862941 0.285275
C58   C     C_3   0.204880 0.178956 0.760020 -0.602338
H42   H     H_    0.227983 0.103472 0.754012 0.197111
H43   H     H_    0.343661 0.214750 0.748926 0.221481
H44   H     H_    0.101489 0.202033 0.712162 0.191669
N7    N     N_2   0.317851 0.840439 0.444219 -0.542057
H45   H     H_    0.397891 0.782141 0.454198 0.236739
C59   C     C_3   0.117471 0.828804 0.464602 -0.609648
H46   H     H_    0.061069 0.764740 0.435343 0.186602
H47   H     H_    0.034166 0.887280 0.439601 0.201307
H48   H     H_    0.096903 0.823745 0.532932 0.211890
N8    N     N_2   0.678919 0.158274 0.556342 -0.527778
H49   H     H_    0.597068 0.216276 0.547859 0.253964
C60   C     C_3   0.878596 0.172049 0.535885 -0.582747
H50   H     H_    0.931973 0.236363 0.565928 0.206012
H51   H     H_    0.898531 0.178467 0.467618 0.203455
H52   H     H_    0.964232 0.113847 0.559909 0.192552

loop_
_geom_bond_atom_site_label_1
_geom_bond_atom_site_label_2
_ccdc_geom_bond_type
H4    C21   S    
C58   H44   S    
C47   C51   A    
O22   H16   S    
C34   N8    S    
C10   C13   S    
O13   V3    S    
O23   H17   S    
O4    C2    A    
V1    O19   S    
O24   H18   S    
C39   O23   S    
C58   H42   S    
C19   C21   A    
C42   H14   S    
C10   O26   S    
N2    C54   S    
C41   H13   S    
C9    C15   S    
C32   C35   S    
C10   C16   S    
C34   C36   S    
C11   C13   S    
C40   C42   A    
C4    C51   S    
C57   H38   S    
O3    C1    A    
C55   H31   S    
N8    H49   S    
C9    C11   S    
C42   C44   A    
C56   H35   S    
C7    C14   S    
O12   V4    S    
N3    H29   S    
C28   C29   A    
C32   C38   S    
C31   C33   S    
O7    V1    S    
C46   N2    S    
C37   H9    S    
O7    C3    A    
C32   C34   S    
C24   H6    S    
C60   H50   S    
C45   C47   A    
C1    C36   S    
O5    C7    A    
C12   O22   S    
C39   C49   A    
O6    C8    A    
O25   H27   S    
O8    V2    S    
C21   C23   A    
C22   C24   A    
C54   H24   S    
C18   N4    S    
O3    V1    S    
C9    O25   S    
V4    O20   S    
C10   C12   S    
C57   H40   S    
C17   C19   A    
C2    O12   A    
C54   H25   S    
V2    O20   S    
N8    C60   S    
C24   C26   A    
O11   V3    S    
C18   C20   A    
C25   C27   A    
O17   V3    S    
C13   C15   S    
C33   C35   S    
C60   H51   S    
C32   H8    S    
C53   H20   S    
C20   N6    S    
C56   H34   S    
C60   H52   S    
C15   H1    S    
O8    C4    A    
C55   H32   S    
O21   H15   S    
C43   C45   A    
C25   C29   A    
C50   C51   A    
C56   H36   S    
C1    O11   A    
C45   N1    S    
N3    C55   S    
C40   O24   S    
O15   V3    S    
C23   C25   A    
N5    C57   S    
C17   N3    S    
N1    H19   S    
C33   C38   S    
O9    V1    S    
O10   V2    S    
C5    C29   S    
O1    V3    S    
C41   C43   A    
H3    C22   S    
C34   C37   S    
C20   C22   A    
C39   C41   A    
N4    H33   S    
O14   V4    S    
C44   C46   A    
C47   C49   A    
O18   V4    S    
C53   H22   S    
C46   C48   A    
H12   C43   S    
O15   C5    A    
N6    H41   S    
C54   H26   S    
O16   C6    A    
C59   H48   S    
O1    C3    A    
N5    H37   S    
C40   C50   A    
O26   H28   S    
C26   C30   A    
C49   C52   A    
C31   C37   S    
C58   H43   S    
O16   V4    S    
N1    C53   S    
C33   N7    S    
C12   C15   S    
C48   C52   A    
C48   C50   A    
C16   H2    S    
N7    H45   S    
C26   C28   A    
C19   N5    S    
O5    V1    S    
O17   C7    A    
O6    V2    S    
N2    H23   S    
O10   C6    A    
O18   C8    A    
C9    C14   S    
C53   H21   S    
O2    V4    S    
C59   H47   S    
C11   C16   S    
V3    O19   S    
C59   H46   S    
C12   C14   S    
C14   C16   S    
N7    C59   S    
C31   C36   S    
C8    C13   S    
C3    C52   S    
O9    C5    A    
O13   V1    S    
H11   C44   S    
O14   V2    S    
O2    C4    A    
N4    C56   S    
O4    V2    S    
C31   H7    S    
C23   H5    S    
C17   C27   A    
C2    C35   S    
C6    C30   S    
C27   C30   A    
C18   C28   A    
N6    C58   S    
C36   C38   S    
C38   H10   S    
C35   C37   S    
C55   H30   S    
C57   H39   S    
C11   O21   S    
