data_mof_unit_15646.cif
_audit_creation_date              2012-12-10T18:51:30-0500
_audit_creation_method            fapswitch 2.2
_symmetry_space_group_name_H-M    P1
_symmetry_Int_Tables_number       1
_space_group_crystal_system       triclinic
_cell_length_a                    10.61792
_cell_length_b                    9.946252
_cell_length_c                    10.499124
_cell_angle_alpha                 90.989632
_cell_angle_beta                  90.615773
_cell_angle_gamma                 91.279899
_cell_volume                      1108.28609234

loop_
_atom_site_label
_atom_site_type_symbol
_atom_type_description
_atom_site_fract_x
_atom_site_fract_y
_atom_site_fract_z
_atom_type_partial_charge
C1    C     C_R   0.871846 0.502969 0.498870 -0.068540
C2    C     C_R   0.128153 0.497032 0.501130 -0.068544
C3    C     C_R   0.260720 0.498845 0.500234 0.953106
C4    C     C_R   0.739280 0.501155 0.499766 0.953100
C5    C     C_R   0.500476 0.499045 0.257800 0.887639
C6    C     C_R   0.499524 0.500955 0.742200 0.887631
C7    C     C_3   0.387574 0.543739 0.042859 -0.265380
C8    C     C_3   0.612427 0.456262 0.957141 -0.265381
C9    C     C_3   0.481270 0.627845 0.961903 -0.171478
C10   C     C_3   0.518730 0.372156 0.038096 -0.171487
C11   C     C_3   0.408722 0.420556 0.956489 0.152360
C12   C     C_3   0.591279 0.579444 0.043511 0.152355
C13   C     C_3   0.500045 0.502523 0.876915 -0.009546
C14   C     C_3   0.499955 0.497477 0.123085 -0.009551
C15   C     C_R   0.584008 0.076799 0.573504 0.180860
C16   C     C_R   0.415989 0.923200 0.426502 0.180877
C17   C     C_R   0.414680 0.066488 0.427216 0.051753
C18   C     C_R   0.585340 0.933513 0.572760 0.051779
C19   C     C_R   0.062894 0.439924 0.396362 0.009712
C20   C     C_R   0.937105 0.560087 0.603631 0.009707
C21   C     C_R   0.932179 0.442084 0.395622 0.018014
C22   C     C_R   0.067820 0.557923 0.604374 0.018013
N1    N     N_R   0.500000 0.857200 0.500000 -0.110836
N2    N     N_R   0.500000 0.142800 0.500000 -0.110828
O1    O     O_R   0.316770 0.614620 0.499990 -0.595103
O2    O     O_R   0.683230 0.385380 0.500010 -0.595110
O3    O     O_R   0.683230 0.614620 0.500010 -0.634609
O4    O     O_R   0.316770 0.385380 0.499990 -0.634603
O5    O     O_R   0.499970 0.614650 0.313950 -0.590204
O6    O     O_R   0.500030 0.385350 0.686050 -0.590193
O7    O     O_R   0.500030 0.614650 0.686050 -0.644599
O8    O     O_R   0.499970 0.385350 0.313950 -0.644589
Zn1   Zn    Zn3+2 0.500000 0.653120 0.500000 0.957384
Zn2   Zn    Zn3+2 0.500000 0.346880 0.500000 0.957392
N3    N     N_3   0.671336 0.153750 0.651565 -0.387827
H1    H     H_    0.658637 0.126228 0.746305 0.177037
H2    H     H_    0.762680 0.129027 0.624985 0.176162
N4    N     N_3   0.328656 0.846250 0.348450 -0.387826
H3    H     H_    0.237315 0.870991 0.375024 0.176148
H4    H     H_    0.341358 0.873751 0.253705 0.177055
N5    N     N_3   0.318979 0.128309 0.353384 -0.493401
H5    H     H_    0.359217 0.199446 0.293907 0.235175
H6    H     H_    0.255182 0.172204 0.415345 0.224732
N6    N     N_3   0.681121 0.871691 0.646489 -0.493347
H7    H     H_    0.744910 0.827899 0.584462 0.224685
H8    H     H_    0.640936 0.800446 0.705966 0.235211
N7    N     N_3   0.309522 0.331948 0.903888 -0.447403
H9    H     H_    0.257291 0.295959 0.980424 0.171091
H10   H     H_    0.249329 0.390693 0.850054 0.174852
N8    N     N_3   0.690478 0.668053 0.096111 -0.447406
H11   H     H_    0.742725 0.704020 0.019576 0.171083
H12   H     H_    0.750658 0.609314 0.149967 0.174855
H13   H     H_    0.295843 0.576246 0.081151 0.138390
H14   H     H_    0.704157 0.423755 0.918848 0.138394
H15   H     H_    0.468771 0.731849 0.927922 0.150006
H16   H     H_    0.531231 0.268151 0.072077 0.149994
N9    N     N_3   0.130549 0.385329 0.290259 -0.481884
H17   H     H_    0.109309 0.440515 0.209293 0.169228
H18   H     H_    0.100602 0.285630 0.274273 0.183032
N10   N     N_3   0.869452 0.614705 0.709720 -0.481898
H19   H     H_    0.899386 0.714412 0.725670 0.183050
H20   H     H_    0.890703 0.559554 0.790701 0.169229
N11   N     N_3   0.859589 0.383890 0.291421 -0.464090
H21   H     H_    0.887735 0.429017 0.206922 0.163244
H22   H     H_    0.878217 0.281280 0.284963 0.191083
N12   N     N_3   0.140411 0.616126 0.708570 -0.464086
H23   H     H_    0.121785 0.718736 0.715015 0.191087
H24   H     H_    0.112264 0.571012 0.793072 0.163245

loop_
_geom_bond_atom_site_label_1
_geom_bond_atom_site_label_2
_ccdc_geom_bond_type
C2    C22   A    
C15   C18   A    
N12   H24   S    
O7    Zn1   S    
C1    C21   A    
C8    C13   S    
C9    H15   S    
C18   N6    S    
C20   N10   S    
C10   H16   S    
N5    H5    S    
N8    H11   S    
C11   N7    S    
N7    H9    S    
C3    O1    A    
C8    C12   S    
C1    C4    S    
C5    O8    A    
O1    Zn1   S    
N11   H22   S    
C6    O7    A    
N9    H17   S    
O4    Zn2   S    
O2    Zn2   S    
N7    H10   S    
C16   N4    S    
O3    Zn1   S    
C6    C13   S    
N4    H4    S    
N5    H6    S    
C5    C14   S    
C16   C17   A    
C19   N9    S    
C15   N3    S    
C15   N2    A    
C6    O6    A    
C12   C14   S    
C2    C3    S    
C16   N1    A    
C5    O5    A    
N10   H20   S    
N4    H3    S    
C9    C12   S    
C17   N5    S    
C4    O2    A    
C21   N11   S    
C17   N2    A    
N9    H18   S    
C10   C11   S    
C7    H13   S    
N11   H21   S    
C22   N12   S    
O5    Zn1   S    
C11   C13   S    
C4    O3    A    
N12   H23   S    
N6    H7    S    
N1    Zn1   S    
C8    C10   S    
C10   C14   S    
C7    C11   S    
C8    H14   S    
N8    H12   S    
C7    C9    S    
O6    Zn2   S    
C3    O4    A    
C1    C20   A    
C9    C13   S    
N6    H8    S    
N3    H2    S    
C2    C19   A    
C12   N8    S    
C7    C14   S    
N2    Zn2   S    
C18   N1    A    
C20   C22   A    
N10   H19   S    
C19   C21   A    
N3    H1    S    
O8    Zn2   S    
