data_mof_unit_46700.cif
_audit_creation_date              2012-12-10T19:27:38-0500
_audit_creation_method            fapswitch 2.2
_symmetry_space_group_name_H-M    P1
_symmetry_Int_Tables_number       1
_space_group_crystal_system       triclinic
_cell_length_a                    23.413251
_cell_length_b                    10.500061
_cell_length_c                    9.773574
_cell_angle_alpha                 89.391272
_cell_angle_beta                  90.406635
_cell_angle_gamma                 89.831746
_cell_volume                      2402.53392901

loop_
_atom_site_label
_atom_site_type_symbol
_atom_type_description
_atom_site_fract_x
_atom_site_fract_y
_atom_site_fract_z
_atom_type_partial_charge
C1    C     C_R   0.499840 0.257903 0.500711 0.912553
C2    C     C_R   0.500160 0.742097 0.499289 0.912554
C3    C     C_R   0.237843 0.484553 0.371750 0.240704
C4    C     C_R   0.762157 0.515471 0.628252 0.240704
C5    C     C_R   0.297408 0.484782 0.374041 -0.215027
C6    C     C_R   0.702591 0.515248 0.625957 -0.215034
C7    C     C_R   0.327172 0.499204 0.498098 -0.086992
C8    C     C_R   0.672828 0.500788 0.501903 -0.086987
C9    C     C_R   0.297083 0.512966 0.620575 -0.220217
C10   C     C_R   0.702917 0.486978 0.379433 -0.220222
C11   C     C_R   0.237900 0.512608 0.619028 -0.147591
C12   C     C_R   0.762100 0.487328 0.380983 -0.147586
C13   C     C_R   0.208366 0.498561 0.495539 0.322548
C14   C     C_R   0.791634 0.501416 0.504469 0.322540
C15   C     C_3   0.498942 0.039149 0.631959 -0.240307
C16   C     C_3   0.501058 0.960851 0.368041 -0.240307
C17   C     C_3   0.546204 0.957268 0.566935 0.178035
C18   C     C_3   0.453796 0.042732 0.433065 0.178031
C19   C     C_3   0.500219 0.876743 0.498017 -0.082112
C20   C     C_3   0.499782 0.123257 0.501983 -0.082112
C21   C     C_3   0.452981 0.957202 0.561264 0.178860
C22   C     C_3   0.547019 0.042798 0.438736 0.178864
C23   C     C_R   0.389446 0.499806 0.499518 0.875829
C24   C     C_R   0.610554 0.500193 0.500482 0.875828
C25   C     C_3   0.486546 0.388721 0.050008 -0.123457
C26   C     C_3   0.513454 0.611279 0.949992 -0.123456
C27   C     C_3   0.536043 0.419281 0.954261 0.281462
C28   C     C_3   0.463957 0.580719 0.045739 0.281466
C29   C     C_3   0.450032 0.470426 0.950590 -0.123021
C30   C     C_3   0.549968 0.529574 0.049410 -0.123026
C31   C     C_R   0.880406 0.614212 0.488826 0.503042
C32   C     C_R   0.119594 0.385763 0.511176 0.503041
C33   C     C_R   0.880552 0.387351 0.515189 0.503359
C34   C     C_R   0.119448 0.612625 0.484828 0.503355
C35   C     C_R   0.940160 0.384444 0.514319 -0.015480
C36   C     C_R   0.059840 0.615531 0.485696 -0.015479
C37   C     C_R   0.970008 0.500186 0.500492 -0.021363
C38   C     C_R   0.029991 0.499789 0.499520 -0.021361
C39   C     C_R   0.940013 0.616316 0.487560 -0.015218
C40   C     C_R   0.059987 0.383660 0.512447 -0.015220
C41   C     C_R   0.970422 0.269281 0.527017 -0.159272
C42   C     C_R   0.029578 0.730694 0.472997 -0.159273
C43   C     C_R   0.029870 0.268895 0.526121 -0.159383
C44   C     C_R   0.970131 0.731080 0.473887 -0.159383
N1    N     N_R   0.852345 0.501019 0.503056 -0.354727
N2    N     N_R   0.147654 0.498956 0.496953 -0.354727
N3    N     N_3   0.499960 0.500030 0.863290 -0.086076
N4    N     N_3   0.500040 0.499970 0.136710 -0.086076
O1    O     O_R   0.500000 0.313960 0.616610 -0.625239
O2    O     O_R   0.500000 0.686040 0.383390 -0.625237
O3    O     O_R   0.500030 0.313950 0.383350 -0.617302
O4    O     O_R   0.499970 0.686050 0.616650 -0.617302
O5    O     O_R   0.416140 0.499970 0.616650 -0.621553
O6    O     O_R   0.583860 0.500030 0.383350 -0.621552
O7    O     O_R   0.416170 0.499960 0.383400 -0.621727
O8    O     O_R   0.583830 0.500040 0.616600 -0.621727
O9    O     O_2   0.850544 0.723927 0.476250 -0.550655
O10   O     O_2   0.149457 0.276048 0.523741 -0.550651
O11   O     O_2   0.850832 0.277987 0.528316 -0.549905
O12   O     O_2   0.149167 0.721989 0.471709 -0.549906
Zn1   Zn    Zn3+2 0.499980 0.500010 0.655740 0.940748
Zn2   Zn    Zn3+2 0.500020 0.499990 0.344260 0.940749
H1    H     H_    0.948322 0.179273 0.537711 0.192922
H2    H     H_    0.051678 0.820702 0.462304 0.192922
C45   C     C_3   0.578773 0.323413 0.899885 -0.875372
H3    H     H_    0.600320 0.274201 0.987136 0.217493
H4    H     H_    0.556492 0.251565 0.836992 0.249163
H5    H     H_    0.611433 0.372819 0.837577 0.250095
C46   C     C_3   0.421228 0.676590 0.100114 -0.875375
H6    H     H_    0.399680 0.725800 0.012863 0.217496
H7    H     H_    0.388568 0.627187 0.162426 0.250090
H8    H     H_    0.443510 0.748439 0.163004 0.249161
H9    H     H_    0.475759 0.294992 0.096502 0.131437
H10   H     H_    0.524241 0.705008 0.903498 0.131437
H11   H     H_    0.407970 0.446525 0.904587 0.131272
H12   H     H_    0.592030 0.553475 0.095413 0.131278
H13   H     H_    0.052082 0.178595 0.536091 0.192982
H14   H     H_    0.947918 0.821380 0.463914 0.192982
C47   C     C_3   0.206059 0.469694 0.238503 -0.885890
H15   H     H_    0.179049 0.383059 0.242918 0.258292
H16   H     H_    0.178424 0.554225 0.219468 0.253484
H17   H     H_    0.235693 0.460448 0.150882 0.231519
C48   C     C_3   0.793939 0.530373 0.761497 -0.885887
H18   H     H_    0.821572 0.445846 0.780566 0.253467
H19   H     H_    0.820949 0.617006 0.757052 0.258309
H20   H     H_    0.764304 0.539651 0.849113 0.231519
H21   H     H_    0.320431 0.473186 0.279212 0.158114
H22   H     H_    0.679567 0.526880 0.720781 0.158119
H23   H     H_    0.319167 0.524468 0.717397 0.164950
H24   H     H_    0.680833 0.475444 0.282614 0.164950
H25   H     H_    0.214758 0.523431 0.713778 0.146036
H26   H     H_    0.785242 0.476469 0.286238 0.146038
C49   C     C_3   0.598676 0.905591 0.641951 -0.873772
H27   H     H_    0.625160 0.986044 0.678394 0.251176
H28   H     H_    0.585285 0.846843 0.731069 0.239012
H29   H     H_    0.624218 0.846052 0.571738 0.243278
C50   C     C_3   0.401324 0.094408 0.358049 -0.873766
H30   H     H_    0.374840 0.013956 0.321606 0.251175
H31   H     H_    0.375782 0.153947 0.428262 0.243279
H32   H     H_    0.414715 0.153157 0.268931 0.239012
H33   H     H_    0.497826 0.073231 0.739029 0.157577
H34   H     H_    0.502174 0.926769 0.260971 0.157576
C51   C     C_3   0.399702 0.905011 0.630086 -0.870979
H35   H     H_    0.372326 0.985178 0.663414 0.250655
H36   H     H_    0.375479 0.845286 0.556916 0.242509
H37   H     H_    0.412084 0.846293 0.720691 0.243534
C52   C     C_3   0.600298 0.094989 0.369914 -0.870987
H38   H     H_    0.627675 0.014822 0.336586 0.250655
H39   H     H_    0.587916 0.153707 0.279310 0.243533
H40   H     H_    0.624521 0.154714 0.443085 0.242510

loop_
_geom_bond_atom_site_label_1
_geom_bond_atom_site_label_2
_ccdc_geom_bond_type
C49   H27   S    
C8    C24   S    
C18   C21   S    
C33   N1    A    
C36   C42   A    
C28   C46   S    
C32   O10   S    
C24   O8    A    
C3    C47   S    
C50   H30   S    
C29   N3    S    
C30   N4    S    
C28   C29   S    
C35   C37   A    
O4    Zn1   S    
C13   N2    S    
C33   C35   A    
C24   O6    A    
C22   C52   S    
O7    Zn2   S    
C6    H22   S    
C18   C20   S    
C15   C17   S    
C46   H7    S    
C2    O2    A    
C17   C19   S    
O5    Zn1   S    
C40   C43   A    
C45   H4    S    
C52   H38   S    
C34   N2    A    
C18   C50   S    
C25   H9    S    
C3    C13   A    
C33   O11   S    
C27   C30   S    
C34   O12   S    
C41   C43   A    
O3    Zn2   S    
C42   C44   A    
C50   H31   S    
C23   O5    A    
C14   N1    S    
C25   C29   S    
C15   C20   S    
O1    Zn1   S    
C4    C6    A    
C9    H23   S    
C5    C7    A    
C6    C8    A    
O6    Zn2   S    
C5    H21   S    
C46   H8    S    
C37   C38   A    
C27   C45   S    
C30   H12   S    
N4    Zn2   S    
C48   H18   S    
C45   H5    S    
C51   H36   S    
C16   C18   S    
C15   H33   S    
C9    C11   A    
C25   N4    S    
C10   C12   A    
C26   N3    S    
C16   H34   S    
C48   H19   S    
C12   C14   A    
C26   C30   S    
C49   H29   S    
O2    Zn2   S    
C52   H40   S    
C25   C27   S    
C41   H1    S    
C42   H2    S    
C50   H32   S    
C47   H16   S    
C27   N3    S    
C7    C9    A    
C28   N4    S    
C1    C20   S    
C16   C22   S    
C19   C21   S    
C2    C19   S    
C32   N2    A    
C12   H26   S    
C8    C10   A    
C20   C22   S    
C3    C5    A    
N3    Zn1   S    
C47   H17   S    
C23   O7    A    
C39   C44   A    
C29   H11   S    
C43   H13   S    
C26   C28   S    
C17   C22   S    
C1    O3    A    
C2    O4    A    
C31   O9    S    
C36   C38   A    
C37   C39   A    
C38   C40   A    
C11   C13   A    
C52   H39   S    
C4    C48   S    
C16   C19   S    
C7    C23   S    
C44   H14   S    
C26   H10   S    
C31   C39   A    
C51   H37   S    
C34   C36   A    
C32   C40   A    
C4    C14   A    
C46   H6    S    
C35   C41   A    
C47   H15   S    
C21   C51   S    
C11   H25   S    
C15   C21   S    
C48   H20   S    
C17   C49   S    
C10   H24   S    
C49   H28   S    
C45   H3    S    
C31   N1    A    
C51   H35   S    
O8    Zn1   S    
C1    O1    A    
