data_mof_unit_20462.cif
_audit_creation_date              2013-03-05T15:50:45-0500
_audit_creation_method            fapswitch 2.2
_symmetry_space_group_name_H-M    P1
_symmetry_Int_Tables_number       1
_space_group_crystal_system       triclinic
_cell_length_a                    22.832586
_cell_length_b                    7.401759
_cell_length_c                    20.823545
_cell_angle_alpha                 89.999966
_cell_angle_beta                  93.437414
_cell_angle_gamma                 90.00021
_cell_volume                      3512.8747077

loop_
_atom_site_label
_atom_site_type_symbol
_atom_site_description
_atom_site_fract_x
_atom_site_fract_y
_atom_site_fract_z
_atom_type_partial_charge
O1    O     O_R   0.438030 0.494310 0.439340 -0.582158
O2    O     O_R   0.561970 0.994310 0.560660 -0.582155
O3    O     O_R   0.556900 0.822900 0.435960 -0.562769
O4    O     O_R   0.443100 0.322900 0.564040 -0.562830
C1    C     C_R   0.575501 0.655960 0.421746 0.949880
C2    C     C_R   0.424498 0.155960 0.578254 0.949836
O5    O     O_R   0.438170 0.823950 0.431660 -0.545797
O6    O     O_R   0.561830 0.323950 0.568340 -0.545791
O7    O     O_R   0.442390 0.995390 0.556340 -0.564406
O8    O     O_R   0.557610 0.495390 0.443660 -0.564415
C3    C     C_R   0.419204 0.655730 0.416188 0.996147
C4    C     C_R   0.580796 0.155731 0.583812 0.996145
O9    O     O_3   0.501520 0.661170 0.540910 -0.279641
O10   O     O_3   0.498480 0.161170 0.459090 -0.279631
V1    V     V_3+5 0.499720 0.935580 0.492410 1.319154
V2    V     V_3+5 0.500280 0.435580 0.507590 1.319116
C5    C     C_R   0.812632 0.125719 0.884750 -0.152593
C6    C     C_R   0.187371 0.625664 0.115247 -0.152563
C7    C     C_R   0.869540 0.084688 0.866215 -0.264290
C8    C     C_R   0.130460 0.584689 0.133786 -0.264275
C9    C     C_R   0.878821 0.052672 0.800655 -0.103967
C10   C     C_R   0.121177 0.552720 0.199347 -0.103965
C11   C     C_R   0.832838 0.085856 0.752335 0.009322
C12   C     C_R   0.167160 0.585916 0.247665 0.009313
C13   C     C_R   0.775137 0.116623 0.771512 0.096114
C14   C     C_R   0.224866 0.616596 0.228487 0.096097
C15   C     C_R   0.765219 0.137020 0.837767 0.080174
C16   C     C_R   0.234787 0.636919 0.162228 0.080154
C17   C     C_R   0.843057 0.096394 0.685624 -0.280782
C18   C     C_R   0.156940 0.596524 0.314373 -0.280742
C19   C     C_R   0.795442 0.105641 0.639071 0.279448
C20   C     C_R   0.204554 0.605768 0.360928 0.279343
C21   C     C_R   0.736766 0.113104 0.658126 -0.133642
C22   C     C_R   0.263232 0.613205 0.341877 -0.133742
C23   C     C_R   0.727112 0.129140 0.724552 0.008041
C24   C     C_R   0.272892 0.629106 0.275446 0.008108
C25   C     C_R   0.669409 0.159428 0.744406 0.091398
C26   C     C_R   0.330601 0.659258 0.255587 0.091403
C27   C     C_R   0.661357 0.185398 0.810107 -0.125978
C28   C     C_R   0.338659 0.685130 0.189881 -0.125975
C29   C     C_R   0.708097 0.175296 0.855588 -0.126457
C30   C     C_R   0.291917 0.675072 0.144402 -0.126472
C31   C     C_R   0.687579 0.114775 0.612540 0.322561
C32   C     C_R   0.312417 0.614969 0.387466 0.322433
C33   C     C_R   0.630691 0.148287 0.632546 -0.343438
C34   C     C_R   0.369313 0.648279 0.367450 -0.343328
C35   C     C_R   0.621218 0.169358 0.698313 -0.149835
C36   C     C_R   0.378796 0.669155 0.301677 -0.149936
H1    H     H_    0.618785 0.216780 0.827355 0.174602
H2    H     H_    0.381236 0.716414 0.172629 0.174617
H3    H     H_    0.698639 0.199920 0.905091 0.184964
H4    H     H_    0.301380 0.699622 0.094896 0.184983
C37   C     C_3   0.252507 0.259623 0.811599 0.542012
C38   C     C_3   0.747500 0.759626 0.188410 0.542044
C39   C     C_3   0.245021 0.925119 0.792741 0.072490
C40   C     C_3   0.754983 0.425119 0.207264 0.072480
C41   C     C_3   0.292701 0.921345 0.738009 -0.032379
C42   C     C_3   0.707305 0.421341 0.261999 -0.032411
H5    H     H_    0.346904 0.223453 0.790719 0.269379
H6    H     H_    0.653102 0.723472 0.209296 0.269381
H7    H     H_    0.212359 0.819785 0.781684 0.243983
H8    H     H_    0.787644 0.319782 0.218318 0.243978
C43   C     C_1   0.378863 0.148187 0.623444 -0.121355
C44   C     C_1   0.621136 0.648189 0.376557 -0.121427
C45   C     C_3   0.207341 0.103204 0.791239 -0.378390
C46   C     C_3   0.792664 0.603203 0.208768 -0.378397
C47   C     C_3   0.304797 0.253723 0.764179 -0.610458
C48   C     C_3   0.695212 0.753728 0.235832 -0.610490
C49   C     C_3   0.293346 0.117994 0.707629 -0.140607
C50   C     C_3   0.706660 0.617988 0.292379 -0.140586
C51   C     C_3   0.232028 0.176611 0.674979 0.078311
C52   C     C_3   0.767979 0.676587 0.325034 0.078348
C53   C     C_3   0.179050 0.131801 0.718790 -0.092187
C54   C     C_3   0.820956 0.631779 0.281217 -0.092209
C55   C     C_1   0.340427 0.138162 0.661074 0.232871
C56   C     C_1   0.659574 0.638163 0.338929 0.232902
C57   C     C_1   0.159422 0.088774 0.837820 0.344672
C58   C     C_1   0.840581 0.588777 0.162184 0.344688
C59   C     C_1   0.121031 0.081228 0.875903 -0.061220
C60   C     C_1   0.878970 0.581230 0.124099 -0.061225
H9    H     H_    0.235920 0.326227 0.672872 0.171234
H10   H     H_    0.764088 0.826202 0.327150 0.171224
H11   H     H_    0.312830 0.388203 0.742750 0.263917
H12   H     H_    0.687186 0.888208 0.257264 0.263918
O11   O     O_R   0.942420 0.735670 0.056390 -0.565466
O12   O     O_R   0.057580 0.235670 0.943610 -0.565470
O13   O     O_R   0.061840 0.404850 0.068350 -0.595834
O14   O     O_R   0.938160 0.904850 0.931650 -0.595846
C61   C     C_R   0.080954 0.573364 0.083951 0.962361
C62   C     C_R   0.919045 0.073363 0.916049 0.962380
O15   O     O_R   0.943100 0.406010 0.064050 -0.558049
O16   O     O_R   0.056900 0.906010 0.935950 -0.558071
O17   O     O_R   0.938020 0.234710 0.939330 -0.543054
O18   O     O_R   0.061980 0.734710 0.060670 -0.543060
C63   C     C_R   0.924413 0.573987 0.078223 0.982172
C64   C     C_R   0.075587 0.073988 0.921778 0.982171
O19   O     O_3   0.998500 0.567790 0.959120 -0.281657
O20   O     O_3   0.001500 0.067790 0.040880 -0.281646
V3    V     V_3+5 0.000280 0.293330 0.007580 1.311209
V4    V     V_3+5 0.999720 0.793330 0.992420 1.311196
C65   C     C_2   0.802193 0.141954 0.954101 1.010431
O21   O     O_2   0.826001 0.262085 0.986337 -0.575892
O22   O     O_R   0.765097 0.018623 0.982143 -0.722186
H13   H     H_    0.761056 0.043024 0.029478 0.409485
C66   C     C_2   0.197804 0.641921 0.045897 1.010389
O23   O     O_2   0.174017 0.762128 0.013676 -0.575856
O24   O     O_R   0.234868 0.518527 0.017836 -0.722180
H14   H     H_    0.238908 0.542955 0.970503 0.409478
N1    N     N_R   0.276572 0.244750 0.879281 0.277025
O25   O     O_R   0.241667 0.215637 0.925338 -0.336274
O26   O     O_R   0.327907 0.312959 0.895714 -0.276528
N2    N     N_R   0.723434 0.744753 0.120728 0.277033
O27   O     O_R   0.758342 0.715699 0.074669 -0.336319
O28   O     O_R   0.672091 0.812906 0.104298 -0.276530
N3    N     N_R   0.268234 0.884630 0.859435 0.280880
O29   O     O_R   0.322080 0.917108 0.880319 -0.313028
O30   O     O_R   0.232531 0.820914 0.900199 -0.305171
N4    N     N_R   0.731768 0.384641 0.140570 0.280868
O31   O     O_R   0.677920 0.417108 0.119690 -0.313024
O32   O     O_R   0.767470 0.320943 0.099802 -0.305194
C67   C     C_2   0.354601 0.861139 0.764358 1.156634
O33   O     O_2   0.396918 0.962583 0.764937 -0.628349
O34   O     O_R   0.363638 0.682910 0.784681 -0.716765
H15   H     H_    0.405891 0.657318 0.799687 0.355511
C68   C     C_2   0.645405 0.361128 0.235651 1.156688
O35   O     O_2   0.603090 0.462577 0.235063 -0.628397
O36   O     O_R   0.636368 0.182891 0.215338 -0.716776
H16   H     H_    0.594116 0.157295 0.200331 0.355535
N5    N     N_R   0.276902 0.788854 0.686307 0.264178
O37   O     O_R   0.315497 0.745813 0.645236 -0.323350
O38   O     O_R   0.227941 0.698949 0.683721 -0.283027
N6    N     N_R   0.723107 0.288856 0.313702 0.264171
O39   O     O_R   0.684514 0.245818 0.354775 -0.323288
O40   O     O_R   0.772063 0.198925 0.316278 -0.283080
C69   C     C_2   0.133396 0.284791 0.714459 1.113008
O41   O     O_2   0.088642 0.271301 0.743597 -0.588247
O42   O     O_R   0.139885 0.434667 0.674592 -0.687487
H17   H     H_    0.105767 0.522120 0.675453 0.395259
C70   C     C_2   0.866613 0.784759 0.285552 1.113048
O43   O     O_2   0.911369 0.771261 0.256417 -0.588273
O44   O     O_R   0.860123 0.934643 0.325415 -0.687503
H18   H     H_    0.894242 0.022094 0.324554 0.395248
N7    N     N_R   0.146117 0.968501 0.695454 0.275128
O45   O     O_R   0.127554 0.956825 0.635268 -0.229881
O46   O     O_R   0.118203 0.870653 0.735648 -0.384967
N8    N     N_R   0.853885 0.468457 0.304541 0.275105
O47   O     O_R   0.872423 0.456676 0.364730 -0.229843
O48   O     O_R   0.881815 0.370669 0.264343 -0.384972
N9    N     N_R   0.224795 0.435751 0.807007 0.218297
O49   O     O_R   0.173498 0.462270 0.829456 -0.380450
O50   O     O_R   0.261523 0.567194 0.811957 -0.360599
N10   N     N_R   0.775210 0.935755 0.193002 0.218312
O51   O     O_R   0.826513 0.962270 0.170567 -0.380429
O52   O     O_R   0.738482 0.067192 0.188034 -0.360581
C71   C     C_2   0.934553 0.965638 0.784361 1.011451
O53   O     O_2   0.933298 0.823647 0.754259 -0.558840
O54   O     O_R   0.988159 0.045927 0.803153 -0.785626
H19   H     H_    0.022644 0.973137 0.789015 0.363303
C72   C     C_2   0.065441 0.465714 0.215648 1.011462
O55   O     O_2   0.066692 0.323757 0.245772 -0.558849
O56   O     O_R   0.011838 0.545987 0.196839 -0.785627
H20   H     H_    0.977351 0.473215 0.210982 0.363314
N11   N     N_R   0.221210 0.126124 0.606772 0.294779
O57   O     O_R   0.187860 0.229058 0.569448 -0.201245
O58   O     O_R   0.246508 0.988576 0.581348 -0.218631
N12   N     N_R   0.778802 0.626067 0.393237 0.294856
O59   O     O_R   0.812233 0.728829 0.430539 -0.201222
O60   O     O_R   0.753410 0.488735 0.418690 -0.218853
C73   C     C_2   0.902972 0.130934 0.664084 1.123195
O61   O     O_2   0.923858 0.032627 0.624185 -0.497083
O62   O     O_R   0.935468 0.276426 0.690084 -0.731774
H21   H     H_    0.975602 0.286353 0.672029 0.375075
C74   C     C_2   0.097027 0.631115 0.335909 1.123251
O63   O     O_2   0.076143 0.532891 0.375836 -0.497089
O64   O     O_R   0.064531 0.776567 0.309878 -0.731799
H22   H     H_    0.024400 0.786540 0.327937 0.375076
N13   N     N_R   0.807776 0.133343 0.573022 0.259366
O65   O     O_R   0.804098 0.294840 0.548407 -0.254616
O66   O     O_R   0.827639 0.001217 0.539323 -0.199412
N14   N     N_R   0.192215 0.633395 0.426976 0.259399
O67   O     O_R   0.195757 0.794925 0.451569 -0.254580
O68   O     O_R   0.172411 0.501178 0.460669 -0.199450
N15   N     N_R   0.694053 0.071489 0.546142 0.245945
O69   O     O_R   0.704872 0.905611 0.529870 -0.317874
O70   O     O_R   0.680203 0.189806 0.501559 -0.296793
N16   N     N_R   0.305931 0.572082 0.453893 0.245948
O71   O     O_R   0.295291 0.406185 0.470309 -0.317971
O72   O     O_R   0.319681 0.690800 0.498375 -0.296625
C75   C     C_2   0.560222 0.191996 0.718396 0.970914
O73   O     O_2   0.539000 0.078507 0.752806 -0.576108
O74   O     O_R   0.527090 0.341763 0.697368 -0.772697
H23   H     H_    0.486158 0.341086 0.713762 0.333213
C76   C     C_2   0.439798 0.691598 0.281590 0.971022
O75   O     O_2   0.460982 0.578037 0.247179 -0.576074
O76   O     O_R   0.472982 0.841265 0.302617 -0.772823
H24   H     H_    0.513912 0.840461 0.286218 0.333219

loop_
_geom_bond_atom_site_label_1
_geom_bond_atom_site_label_2
_geom_bond_distance
_ccdc_geom_bond_type
N12   O60   1.298902 A    
O62   H21   1.013807 S    
C47   H11   1.110569 S    
O54   H19   1.012290 S    
C36   C76   1.487419 S    
C71   O54   1.395315 S    
O11   C63   1.352895 A    
C73   O61   1.222578 D    
O14   C62   1.354532 A    
N11   O57   1.301316 A    
O1    C3    1.349026 A    
O2    C4    1.349031 A    
C2    O7    1.345365 A    
N2    O28   1.302972 A    
O56   H20   1.012288 S    
C69   O41   1.223391 D    
C27   C29   1.385721 A    
C74   O63   1.222589 D    
O5    C3    1.350895 A    
C66   O24   1.396822 S    
C65   O21   1.221882 D    
C51   N11   1.475073 S    
C19   N13   1.435083 S    
C43   C55   1.213333 T    
C11   C17   1.424479 A    
C10   C12   1.431211 A    
C41   N5    1.484713 S    
C7    C9    1.414021 A    
C12   C14   1.417800 A    
N8    O47   1.301540 A    
N9    O50   1.284535 A    
O13   V3    2.011232 S    
C53   N7    1.489540 S    
C58   C60   1.218080 T    
C38   C48   1.594909 S    
C10   C72   1.483648 S    
N7    O45   1.301582 A    
C46   C54   1.618992 S    
O16   C64   1.352818 A    
C45   C53   1.618998 S    
C75   O74   1.397556 S    
C33   C35   1.407907 A    
C31   N15   1.435510 S    
C61   O18   1.350461 A    
C49   C51   1.580028 S    
C5    C65   1.482576 S    
N4    O31   1.301669 A    
N1    O26   1.302976 A    
H5    C47   1.102831 S    
C53   C69   1.538108 S    
C42   N6    1.484720 S    
N6    O39   1.303789 A    
N13   O66   1.301041 A    
O24   H14   1.011721 S    
C72   O56   1.395310 S    
C25   C35   1.418002 A    
C37   C45   1.590990 S    
O17   V3    1.996659 S    
C18   C74   1.487139 S    
C26   C36   1.418005 A    
C76   O75   1.222917 D    
C28   C30   1.385720 A    
O42   H17   1.013836 S    
C65   O22   1.396788 S    
C69   O42   1.398757 S    
C37   N9    1.449738 S    
C73   O62   1.398274 S    
C40   C46   1.573357 S    
C40   N4    1.487032 S    
C1    O8    1.345365 A    
N2    O27   1.301171 A    
C39   C45   1.573356 S    
N14   O68   1.300950 A    
N8    O48   1.302013 A    
C74   O64   1.398279 S    
C9    C11   1.431215 A    
C9    C71   1.483648 S    
C46   C58   1.508862 S    
C34   C36   1.407910 A    
C45   C57   1.508855 S    
C19   C21   1.420956 A    
O74   H23   1.014035 S    
C48   H12   1.110572 S    
O34   H15   1.013957 S    
C6    C16   1.417435 A    
C52   C54   1.593092 S    
N1    O25   1.301174 A    
C51   C53   1.593051 S    
C42   C50   1.587487 S    
C38   N10   1.449739 S    
O5    V1    2.011171 S    
C32   C34   1.409618 A    
N3    O30   1.300176 A    
O15   C63   1.352821 A    
C14   C24   1.427808 A    
C1    C44   1.446394 S    
C47   C49   1.558009 S    
C5    C15   1.417429 A    
C2    C43   1.446398 S    
C35   C75   1.487398 S    
O11   V4    1.969069 S    
N15   O69   1.301291 A    
O2    V1    1.996682 S    
C18   C20   1.414207 A    
C15   C29   1.406089 A    
C72   O55   1.223179 D    
O18   V4    1.996657 S    
O6    C4    1.350898 A    
C76   O76   1.397569 S    
C44   C56   1.213332 T    
C57   C59   1.218079 T    
C38   N2    1.485776 S    
O1    V2    1.996684 S    
C41   C49   1.587496 S    
C60   C63   1.452891 S    
O12   V3    1.969070 S    
C31   C33   1.409631 A    
C67   O33   1.223148 D    
O14   V4    2.011235 S    
O12   C64   1.352896 A    
C13   C23   1.427799 A    
N6    O40   1.299313 A    
N4    O32   1.300176 A    
C48   C50   1.558002 S    
C27   H1    1.081491 S    
N10   O52   1.284534 A    
O20   V3    1.807254 S    
C39   C41   1.622856 S    
C50   C56   1.497565 S    
C68   O35   1.223147 D    
C40   H8    1.093817 S    
O4    C2    1.345326 A    
O4    V2    1.991458 S    
N16   O72   1.301467 A    
O36   H16   1.013955 S    
O22   H13   1.011721 S    
O19   V4    1.807255 S    
O3    V1    1.991464 S    
N14   O67   1.301275 A    
O16   V4    1.991721 S    
C62   O17   1.350462 A    
N5    O37   1.303793 A    
C8    C61   1.490283 S    
C37   N1    1.485767 S    
N7    O46   1.302025 A    
C22   C32   1.426427 A    
C30   H4    1.081285 S    
C54   C70   1.538100 S    
N11   O58   1.298891 A    
C17   C19   1.414218 A    
C52   N12   1.475093 S    
C54   N8    1.489559 S    
C8    C10   1.414016 A    
C4    C33   1.480569 S    
O3    C1    1.345323 A    
C70   O43   1.223390 D    
C38   C46   1.590978 S    
C51   H9    1.112058 S    
C13   C15   1.419527 A    
C66   O23   1.221919 D    
C14   C16   1.419536 A    
C17   C73   1.487132 S    
N15   O70   1.301397 A    
O7    V1    1.972470 S    
C6    C66   1.482562 S    
C23   C25   1.422080 A    
C25   C27   1.404530 A    
C7    C62   1.490283 S    
O8    V2    1.972466 S    
O44   H18   1.013836 S    
C24   C26   1.422109 A    
C26   C28   1.404540 A    
C70   O44   1.398757 S    
N12   O59   1.301329 A    
C39   N3    1.487027 S    
C28   H2    1.081502 S    
C39   H7    1.093810 S    
C16   C30   1.406096 A    
C21   C23   1.418649 A    
C22   C24   1.418690 A    
C40   C42   1.622864 S    
C49   C55   1.497565 S    
O64   H22   1.013802 S    
C6    C8    1.410552 A    
C11   C13   1.417800 A    
C75   O73   1.222904 D    
C37   C47   1.594930 S    
C12   C18   1.424471 A    
C67   O34   1.396959 S    
C41   C67   1.550547 S    
O76   H24   1.014044 S    
C5    C7    1.410557 A    
C59   C64   1.452888 S    
N10   O51   1.301735 A    
H6    C48   1.102830 S    
C42   C68   1.550536 S    
O6    V2    2.011174 S    
N13   O65   1.301347 A    
O9    V2    1.807754 S    
C32   N16   1.435507 S    
C71   O53   1.223174 D    
C68   O36   1.396959 S    
O13   C61   1.354531 A    
O10   V1    1.807753 S    
C20   N14   1.435023 S    
C3    C34   1.480564 S    
C50   C52   1.580047 S    
O15   V3    1.991728 S    
N16   O71   1.301396 A    
N9    O49   1.301736 A    
C21   C31   1.426419 A    
C29   H3    1.081275 S    
C52   H10   1.112054 S    
N3    O29   1.301671 A    
C20   C22   1.420969 A    
N5    O38   1.299322 A    
