data_mof_unit_33333.cif
_audit_creation_date              2012-12-10T17:05:43-0500
_audit_creation_method            fapswitch 2.2
_symmetry_space_group_name_H-M    P1
_symmetry_Int_Tables_number       1
_space_group_crystal_system       triclinic
_cell_length_a                    15.870018
_cell_length_b                    10.933285
_cell_length_c                    9.912042
_cell_angle_alpha                 110.311623
_cell_angle_beta                  97.658513
_cell_angle_gamma                 92.858264
_cell_volume                      1589.95034563

loop_
_atom_site_label
_atom_site_type_symbol
_atom_type_description
_atom_site_fract_x
_atom_site_fract_y
_atom_site_fract_z
_atom_type_partial_charge
C1    C     C_R   0.489257 0.253659 0.441644 0.821242
C2    C     C_3   0.954990 0.419677 0.577001 -0.243804
C3    C     C_3   0.917797 0.519498 0.507208 -0.008605
C4    C     C_3   0.964667 0.665130 0.592218 0.176736
C5    C     C_3   0.064585 0.654207 0.607965 0.106192
C6    C     C_1   0.824721 0.512502 0.502284 0.062541
C7    C     C_1   0.176706 0.509410 0.505506 0.030106
C8    C     C_1   0.251797 0.504184 0.504571 -0.065438
C9    C     C_2   0.477608 0.111666 0.408499 -0.332672
C10   C     C_2   0.449226 0.059619 0.502862 0.431995
C11   C     C_2   0.494616 0.884401 0.587271 -0.269000
C12   C     C_R   0.340717 0.500052 0.501290 0.857273
C13   C     C_2   0.456263 0.921217 0.480735 -0.154636
C14   C     C_2   0.501442 0.528177 0.089010 -0.003652
C15   C     C_2   0.478805 0.526437 0.935004 0.061424
C16   C     C_R   0.503026 0.745747 0.558327 0.836194
C17   C     C_R   0.659337 0.500776 0.498945 0.793537
C18   C     C_3   0.052026 0.413967 0.567429 -0.532106
C19   C     C_3   0.035922 0.476937 0.344580 -0.227603
C20   C     C_3   0.936759 0.464817 0.344967 -0.287931
C21   C     C_1   0.748804 0.505869 0.498340 -0.077703
C22   C     C_3   0.084690 0.516558 0.504633 0.035275
Cu1   Cu    Cu3+1 0.514650 0.521810 0.644910 1.068060
Cu2   Cu    Cu3+1 0.485350 0.478190 0.355090 0.982424
H1    H     H_    0.922882 0.319761 0.510346 0.173286
H2    H     H_    0.090765 0.430092 0.675579 0.196750
H3    H     H_    0.431811 0.848536 0.374112 0.219480
H4    H     H_    0.517998 0.955794 0.695434 0.199424
H5    H     H_    0.062425 0.313605 0.496161 0.221701
H6    H     H_    0.420562 0.370787 0.063520 0.267747
H7    H     H_    0.051036 0.375858 0.283966 0.150100
H8    H     H_    0.916278 0.357372 0.303130 0.180310
H9    H     H_    0.085483 0.652970 0.718679 0.183826
N1    N     N_2   0.463320 0.445430 0.137380 -0.297346
N2    N     N_2   0.536720 0.554500 0.862620 -0.275497
O1    O     O_R   0.507820 0.332330 0.577400 -0.524085
O2    O     O_R   0.483070 0.295500 0.332660 -0.575130
O3    O     O_R   0.391820 0.518430 0.622420 -0.587260
O4    O     O_R   0.367070 0.481600 0.377680 -0.566501
O5    O     O_R   0.516930 0.704500 0.667340 -0.550864
O6    O     O_R   0.492180 0.667670 0.422600 -0.598722
O7    O     O_R   0.632930 0.518400 0.622320 -0.528238
O8    O     O_R   0.608180 0.481570 0.377580 -0.627076
C23   C     C_2   0.937074 0.440232 0.729041 0.575800
H10   H     H_    0.988632 0.468676 0.821038 0.118629
O9    O     O_2   0.864176 0.422351 0.750145 -0.458413
C24   C     C_2   0.938193 0.751919 0.505837 0.385213
H11   H     H_    0.979701 0.776524 0.439176 0.154592
O10   O     O_2   0.867628 0.791872 0.505483 -0.540022
S1    S     S_3+6 0.401391 0.149769 0.654748 0.036927
O11   O     O_2   0.470240 0.223568 0.781022 -0.331290
O12   O     O_2   0.345831 0.243997 0.616225 -0.276558
O13   O     O_3   0.340950 0.045579 0.702581 -0.452904
H12   H     H_    0.317539 0.101932 0.788171 0.398118
C25   C     C_2   0.499493 0.029074 0.265944 0.426384
H13   H     H_    0.555846 0.058751 0.229161 0.104233
O14   O     O_2   0.451481 0.934047 0.184025 -0.488069
C26   C     C_2   0.387893 0.539889 0.894462 0.549932
H14   H     H_    0.370380 0.623625 0.866185 0.106448
O15   O     O_2   0.331617 0.461875 0.899075 -0.534196
C27   C     C_2   0.563220 0.640630 0.187250 0.404086
H15   H     H_    0.608876 0.633600 0.273431 0.120840
O16   O     O_2   0.565867 0.744975 0.167934 -0.529071
C28   C     C_2   0.623446 0.540830 0.910655 0.710057
H16   H     H_    0.639217 0.463635 0.952385 -0.006685
O17   O     O_2   0.680895 0.618384 0.908877 -0.459060
C29   C     C_2   0.071093 0.556426 0.261497 0.511072
H17   H     H_    0.136230 0.547210 0.240032 0.092766
O18   O     O_2   0.029596 0.629665 0.217154 -0.477264
C30   C     C_2   0.881764 0.507149 0.234647 0.475757
H18   H     H_    0.842423 0.587012 0.268282 0.107409
O19   O     O_2   0.879723 0.448698 0.104311 -0.462129
S2    S     S_3+6 0.133540 0.796710 0.617609 0.031406
O20   O     O_2   0.220220 0.795262 0.699046 -0.228192
O21   O     O_2   0.144504 0.796930 0.469564 -0.293133
O22   O     O_3   0.094518 0.936394 0.710123 -0.445021
H19   H     H_    0.074382 0.975630 0.636901 0.366223
S3    S     S_3+6 0.936254 0.746672 0.774673 0.091152
O23   O     O_2   0.991230 0.714056 0.890637 -0.241950
O24   O     O_2   0.949036 0.892961 0.814801 -0.201939
O25   O     O_3   0.833627 0.706250 0.781143 -0.435508
H20   H     H_    0.800528 0.766605 0.745692 0.372605

loop_
_geom_bond_atom_site_label_1
_geom_bond_atom_site_label_2
_ccdc_geom_bond_type
C25   H13   S    
C2    C18   S    
S2    O20   D    
C19   C20   S    
C18   H2    S    
C3    C6    S    
C19   H7    S    
O25   H20   S    
C7    C8    T    
C24   O10   D    
O13   H12   S    
Cu1   O7    S    
S3    O24   D    
C26   O15   D    
Cu1   O5    S    
Cu2   O4    S    
C27   O16   D    
C17   O7    A    
C5    C22   S    
C2    C23   S    
C5    H9    S    
S1    O12   D    
Cu1   Cu2   S    
C19   C29   S    
C30   H18   S    
C9    C25   S    
C9    C10   D    
C1    O2    A    
C12   O3    A    
Cu2   O6    S    
S2    O21   D    
C20   C30   S    
C15   N2    D    
C23   O9    D    
Cu2   O2    S    
S1    O13   S    
H6    N1    S    
C29   H17   S    
C14   C27   S    
C19   C22   S    
C1    C9    S    
O22   H19   S    
S3    O23   D    
C26   H14   S    
C6    C21   T    
Cu2   N1    S    
C29   O18   D    
C28   O17   D    
C17   O8    A    
C4    S3    S    
C11   C16   S    
C24   H11   S    
C8    C12   S    
S1    O11   D    
C3    C20   S    
C18   H5    S    
N2    C28   S    
C16   O5    A    
Cu1   N2    S    
C25   O14   D    
C15   C26   S    
C3    C4    S    
C7    C22   S    
C23   H10   S    
C20   H8    S    
C18   C22   S    
C4    C5    S    
C10   C13   S    
C14   N1    D    
Cu1   O3    S    
C28   H16   S    
C12   O4    A    
C2    C3    S    
C11   C13   D    
S3    O25   S    
C11   H4    S    
S2    O22   S    
C2    H1    S    
C5    S2    S    
C27   H15   S    
C17   C21   S    
Cu1   O1    S    
Cu2   O8    S    
C14   C15   S    
C13   H3    S    
C30   O19   D    
C16   O6    A    
C1    O1    A    
C4    C24   S    
C10   S1    S    
