data_mof_unit_11043.cif
_audit_creation_date              2013-03-05T16:12:07-0500
_audit_creation_method            fapswitch 2.2
_symmetry_space_group_name_H-M    P1
_symmetry_Int_Tables_number       1
_space_group_crystal_system       triclinic
_cell_length_a                    10.727468
_cell_length_b                    9.692573
_cell_length_c                    27.640213
_cell_angle_alpha                 91.195334
_cell_angle_beta                  91.806316
_cell_angle_gamma                 89.114301
_cell_volume                      2871.57178986

loop_
_atom_site_label
_atom_site_type_symbol
_atom_site_description
_atom_site_fract_x
_atom_site_fract_y
_atom_site_fract_z
_atom_type_partial_charge
O1    O     O_R   0.317570 0.620260 0.500030 -0.564612
O2    O     O_R   0.317570 0.379740 0.500030 -0.531323
C1    C     C_R   0.261001 0.500886 0.503777 0.779834
O3    O     O_R   0.499900 0.620250 0.430280 -0.560760
O4    O     O_R   0.499900 0.379750 0.430280 -0.552321
C2    C     C_R   0.500596 0.498891 0.408163 0.790072
Cu1   Cu    Cu3+1 0.499860 0.642410 0.500020 0.984693
Cu2   Cu    Cu3+1 0.499860 0.357590 0.500020 0.988569
O5    O     O_R   0.682190 0.620260 0.500010 -0.585873
O6    O     O_R   0.682190 0.379740 0.500010 -0.604279
O7    O     O_R   0.499860 0.620280 0.569750 -0.540693
O8    O     O_R   0.499860 0.379720 0.569750 -0.534080
C3    C     C_R   0.739136 0.499371 0.501310 0.770037
C4    C     C_R   0.502556 0.501082 0.592025 0.795798
C5    C     C_R   0.480601 0.606415 0.179019 0.549364
O9    O     O_2   0.419652 0.707925 0.203218 -0.515673
N1    N     N_R   0.535166 0.500093 0.203806 -0.472203
C6    C     C_R   0.599292 0.396455 0.180740 0.564164
C7    C     C_R   0.631671 0.523837 0.285025 -0.088714
C8    C     C_R   0.622913 0.523752 0.335171 -0.213682
C9    C     C_R   0.402815 0.470639 0.326403 -0.215632
C10   C     C_R   0.411470 0.471182 0.276167 -0.080075
C11   C     C_R   0.525990 0.497831 0.255378 0.345413
C12   C     C_R   0.554061 0.505889 0.103703 -0.050152
C13   C     C_R   0.487365 0.610341 0.128600 -0.012672
C14   C     C_R   0.427819 0.716105 0.102808 -0.119999
C15   C     C_R   0.615984 0.400128 0.130175 -0.090244
C16   C     C_R   0.508656 0.496840 0.355850 -0.007001
H1    H     H_    0.313870 0.451303 0.342267 0.163578
H2    H     H_    0.329520 0.451263 0.253373 0.149989
H3    H     H_    0.375048 0.796593 0.121161 0.192521
C17   C     C_R   0.515144 0.503119 0.644746 -0.055811
C18   C     C_R   0.508364 0.620875 0.975381 0.038528
C19   C     C_R   0.612084 0.392728 0.975735 0.038523
C20   C     C_R   0.560674 0.505901 0.950014 0.074770
C21   C     C_R   0.466030 0.735852 0.948567 -0.182091
C22   C     C_R   0.466855 0.733965 0.898472 -0.111825
C23   C     C_R   0.511298 0.618285 0.873077 -0.019106
C24   C     C_R   0.560485 0.503987 0.898516 -0.046611
C25   C     C_R   0.607884 0.387997 0.872449 -0.094976
C26   C     C_R   0.600724 0.390053 0.821141 0.594596
N2    N     N_R   0.552953 0.502977 0.797699 -0.445237
C27   C     C_R   0.507408 0.615048 0.822476 0.581450
C28   C     C_R   0.462502 0.411135 0.721783 -0.131956
C29   C     C_R   0.448682 0.410327 0.671620 -0.159496
C30   C     C_R   0.599055 0.593549 0.668157 -0.294179
C31   C     C_R   0.617136 0.592787 0.718647 0.007705
C32   C     C_R   0.545833 0.501643 0.745695 0.288029
O10   O     O_2   0.457417 0.722750 0.798014 -0.543453
C33   C     C_R   0.499931 0.617448 0.026528 0.047550
C34   C     C_R   0.557825 0.507301 0.052343 0.076417
C35   C     C_R   0.618623 0.398257 0.027208 0.034532
C36   C     C_R   0.433694 0.719768 0.052838 -0.190102
H4    H     H_    0.384958 0.338677 0.653799 0.179130
H5    H     H_    0.407847 0.341400 0.742346 0.156446
H6    H     H_    0.431966 0.824341 0.879659 0.206923
H7    H     H_    0.433367 0.830560 0.965226 0.151644
H8    H     H_    0.381674 0.802392 0.035803 0.145002
O11   O     O_2   0.642210 0.288383 0.206655 -0.498909
C37   C     C_R   0.689557 0.301385 0.104972 -0.008042
H9    H     H_    0.704922 0.544649 0.357860 0.132837
H10   H     H_    0.720158 0.545009 0.269120 0.151162
C38   C     C_R   0.654030 0.276152 0.949173 -0.244087
C39   C     C_R   0.655820 0.273509 0.898714 -0.010667
O12   O     O_2   0.639292 0.280388 0.794501 -0.500212
C40   C     C_R   0.687839 0.300258 0.054399 -0.243998
H11   H     H_    0.685183 0.183250 0.966992 0.160654
H12   H     H_    0.653232 0.661695 0.646703 0.204911
H13   H     H_    0.748560 0.225902 0.037081 0.161136
C41   C     C_3   0.067707 0.641772 0.526666 0.339648
C42   C     C_3   0.074566 0.383158 0.539055 0.428369
H14   H     H_    0.108642 0.730397 0.508035 0.104980
H15   H     H_    0.096590 0.283274 0.520942 0.103321
C43   C     C_3   0.926507 0.646555 0.515405 -0.400805
C44   C     C_3   0.930143 0.397801 0.542256 -0.439688
H16   H     H_    0.877228 0.693085 0.546825 0.195682
H17   H     H_    0.904290 0.437011 0.578785 0.208544
H18   H     H_    0.906593 0.715194 0.484164 0.132890
H19   H     H_    0.888817 0.293821 0.536968 0.110961
H20   H     H_    0.088707 0.560136 0.430359 0.179886
H21   H     H_    0.114942 0.382739 0.436672 0.224091
H22   H     H_    0.881706 0.514473 0.424193 0.179041
H23   H     H_    0.905350 0.342555 0.446123 0.187018
C45   C     C_3   0.068992 0.473377 0.453881 -0.578440
C46   C     C_3   0.121998 0.500951 0.506435 0.019217
C47   C     C_3   0.877430 0.498831 0.503298 0.068824
C48   C     C_3   0.927024 0.453044 0.453638 -0.422096
C49   C     C_3   0.623599 0.076498 0.489764 -0.410446
C50   C     C_3   0.627982 0.916236 0.499596 -0.316670
H24   H     H_    0.702124 0.126329 0.509279 0.178293
H25   H     H_    0.681078 0.894182 0.533465 0.182903
H26   H     H_    0.647516 0.092442 0.451875 0.226668
H27   H     H_    0.691081 0.861677 0.475111 0.229324
C51   C     C_3   0.462363 0.085404 0.548957 0.451401
C52   C     C_3   0.450120 0.921038 0.547220 0.402984
C53   C     C_3   0.402188 0.081977 0.463805 0.274266
C54   C     C_3   0.422213 0.912123 0.457749 0.325341
N3    N     N_3   0.500250 0.143650 0.501060 -0.239572
N4    N     N_3   0.500250 0.856350 0.501060 -0.199634
H28   H     H_    0.366383 0.122569 0.555486 0.121299
H29   H     H_    0.349611 0.895999 0.547868 0.064330
C55   C     C_2   0.777345 0.203780 0.129495 0.931483
O13   O     O_2   0.779657 0.082066 0.116892 -0.584644
O14   O     O_R   0.861576 0.252379 0.165316 -0.722210
H30   H     H_    0.917762 0.176415 0.178813 0.343787
C56   C     C_2   0.711095 0.148203 0.875951 0.931231
O15   O     O_2   0.805349 0.156612 0.852487 -0.531412
O16   O     O_R   0.658937 0.019539 0.883698 -0.766774
H31   H     H_    0.705465 0.941248 0.866910 0.345601
C57   C     C_2   0.712174 0.685117 0.741867 0.892786
O17   O     O_2   0.745798 0.787226 0.720799 -0.586633
O18   O     O_R   0.765553 0.654642 0.787280 -0.752722
H32   H     H_    0.828617 0.725634 0.799036 0.344044
O19   O     O_3   0.083114 0.650253 0.577945 -0.526311
C58   C     C_3   0.169471 0.750777 0.592808 -0.279654
H33   H     H_    0.144782 0.853546 0.577701 0.123692
H34   H     H_    0.264003 0.715639 0.583033 0.193956
H35   H     H_    0.168574 0.761444 0.632820 0.194646
O20   O     O_3   0.133807 0.388996 0.585740 -0.532854
C59   C     C_3   0.122607 0.262047 0.609341 -0.309472
H36   H     H_    0.172714 0.177570 0.589919 0.142137
H37   H     H_    0.023365 0.234444 0.613474 0.155079
H38   H     H_    0.165576 0.272024 0.646226 0.193734
O21   O     O_3   0.519477 0.140533 0.592614 -0.575063
C60   C     C_3   0.650207 0.135772 0.598648 -0.186068
H39   H     H_    0.691767 0.033554 0.591454 0.159161
H40   H     H_    0.672613 0.157880 0.637455 0.185835
H41   H     H_    0.693792 0.220132 0.579174 0.157138
O22   O     O_3   0.513293 0.866525 0.588700 -0.560716
C61   C     C_3   0.444407 0.886029 0.631391 -0.246345
H42   H     H_    0.365045 0.961144 0.628207 0.113854
H43   H     H_    0.508488 0.924088 0.660829 0.229620
H44   H     H_    0.408356 0.785851 0.642844 0.170639
O23   O     O_3   0.280332 0.116227 0.482522 -0.603528
C62   C     C_3   0.170219 0.078785 0.455669 -0.207232
H45   H     H_    0.121282 0.997047 0.474813 0.165784
H46   H     H_    0.184006 0.049305 0.417650 0.185060
H47   H     H_    0.104295 0.166440 0.454180 0.139131
O24   O     O_3   0.302639 0.849131 0.461104 -0.590145
C63   C     C_3   0.243041 0.787568 0.419453 -0.266721
H48   H     H_    0.287256 0.688181 0.408885 0.188287
H49   H     H_    0.230397 0.855229 0.388117 0.184229
H50   H     H_    0.145738 0.768546 0.428649 0.124265
C64   C     C_2   0.409117 0.150711 0.413774 0.908611
O25   O     O_2   0.321203 0.219275 0.397496 -0.609858
O26   O     O_R   0.517901 0.142846 0.386837 -0.777372
H51   H     H_    0.508474 0.189639 0.354427 0.359486
C65   C     C_2   0.484687 0.877506 0.407170 0.861662
O27   O     O_2   0.426443 0.896152 0.369031 -0.601909
O28   O     O_R   0.608585 0.833509 0.403037 -0.771414
H52   H     H_    0.634793 0.820523 0.368275 0.346967

loop_
_geom_bond_atom_site_label_1
_geom_bond_atom_site_label_2
_geom_bond_distance
_ccdc_geom_bond_type
C62   H47   1.097581 S    
H23   C48   1.113305 S    
C36   H8    1.076939 S    
C1    C46   1.495249 S    
C17   C29   1.396441 A    
C61   H43   1.109383 S    
C7    C8    1.392194 A    
C63   H50   1.101256 S    
H20   C45   1.100697 S    
O19   C58   1.401248 S    
C62   H45   1.109558 S    
C41   O19   1.422603 S    
Cu1   O7    1.943693 S    
N1    C11   1.432591 S    
C43   H16   1.114586 S    
C50   N4    1.498394 S    
C21   C22   1.384679 A    
C65   O28   1.396945 S    
O22   C61   1.419713 S    
C15   C37   1.416932 A    
C23   C24   1.411092 A    
O7    C4    1.319935 A    
C52   N4    1.519757 S    
C5    C13   1.399104 A    
C40   H13   1.078693 S    
C56   O15   1.222976 D    
C51   N3    1.519474 S    
C7    H10   1.082831 S    
C5    O9    1.350232 S    
C18   C21   1.412479 A    
O16   H31   1.014149 S    
C62   H46   1.097156 S    
C19   C20   1.414919 A    
C26   N2    1.368110 A    
C8    H9    1.083376 S    
Cu2   N3    2.074366 S    
C57   O17   1.223539 D    
O14   H30   1.013974 S    
O5    C3    1.313649 A    
C42   C46   1.570099 S    
C22   H6    1.083690 S    
C45   C46   1.562453 S    
C2    C16   1.450962 S    
C49   H26   1.100614 S    
C58   H34   1.104596 S    
C53   N3    1.565169 S    
C3    C47   1.482760 S    
C41   C43   1.536914 S    
C60   H41   1.105884 S    
C45   C48   1.538458 S    
C50   H25   1.103380 S    
O28   H52   1.014382 S    
C59   H38   1.108523 S    
C58   H35   1.108935 S    
C12   C34   1.421823 A    
C37   C40   1.397211 A    
C14   H3    1.083684 S    
C9    C10   1.394677 A    
C55   O13   1.223191 D    
O3    Cu1   1.935112 S    
C37   C55   1.483328 S    
O18   H32   1.013871 S    
C54   N4    1.541416 S    
C59   H37   1.111650 S    
N1    C6    1.366858 A    
C38   H11   1.078838 S    
C33   C36   1.413501 A    
C6    C15   1.415906 A    
C34   C35   1.414821 A    
Cu1   Cu2   2.760638 S    
C12   C13   1.410687 A    
C64   O26   1.404146 S    
C21   H7    1.077054 S    
C24   C25   1.418873 A    
C42   H15   1.106307 S    
C47   C48   1.541886 S    
C27   O10   1.350468 S    
C53   O23   1.452127 S    
C8    C16   1.399031 A    
C18   C33   1.420554 A    
C9    H1    1.083118 S    
C43   C47   1.559323 S    
O1    C1    1.322271 A    
C20   C24   1.423085 A    
C30   H12   1.084274 S    
C22   C23   1.396029 A    
C53   C64   1.551833 S    
C6    O11   1.348299 S    
C44   C47   1.557784 S    
C31   C32   1.417360 A    
C51   H28   1.104535 S    
Cu2   O8    1.934799 S    
C12   C15   1.416695 A    
C53   C54   1.662637 S    
C33   C34   1.420542 A    
N2    C32   1.436831 S    
C63   H48   1.105055 S    
O20   C59   1.413156 S    
C55   O14   1.398566 S    
C44   H17   1.113184 S    
Cu1   N4    2.073296 S    
O3    C2    1.314313 A    
C25   C26   1.418356 A    
C9    C16   1.399333 A    
C49   H24   1.098583 S    
C29   H4    1.082323 S    
C60   H39   1.097094 S    
C54   C65   1.596468 S    
C61   H44   1.106676 S    
N2    C27   1.364293 A    
C14   C36   1.385820 A    
H21   C45   1.106789 S    
C35   C40   1.411100 A    
C59   H36   1.110777 S    
C7    C11   1.400692 A    
C52   O22   1.420599 S    
O26   H51   1.014022 S    
Cu1   O5    1.964393 S    
C30   C31   1.403054 A    
C10   H2    1.082733 S    
O1    Cu1   1.970566 S    
C17   C30   1.400444 A    
O2    Cu2   1.963968 S    
C28   C29   1.389639 A    
C4    C17   1.458975 S    
C64   O25   1.224689 D    
O6    C3    1.318243 A    
O4    Cu2   1.944020 S    
C26   O12   1.347643 S    
O24   C63   1.423697 S    
C39   C56   1.480511 S    
O23   C62   1.422916 S    
C63   H49   1.101008 S    
C31   C57   1.488343 S    
C19   C35   1.422164 A    
C25   C39   1.419619 A    
C42   O20   1.420759 S    
O2    C1    1.317056 A    
C13   C14   1.395950 A    
C23   C27   1.397644 A    
C28   C32   1.402982 A    
C42   C44   1.558716 S    
C28   H5    1.083017 S    
C58   H33   1.113081 S    
O4    C2    1.318057 A    
C56   O16   1.398002 S    
C19   C38   1.410215 A    
C18   C20   1.421712 A    
C61   H42   1.114186 S    
C65   O27   1.223640 D    
C50   H27   1.094875 S    
C51   C52   1.600152 S    
C57   O18   1.398445 S    
C38   C39   1.395147 A    
C52   H29   1.109611 S    
O8    C4    1.316565 A    
C49   C50   1.582247 S    
Cu2   O6    1.970992 S    
C43   H18   1.114380 S    
C60   H40   1.109036 S    
C10   C11   1.402362 A    
C41   H14   1.113680 S    
C5    N1    1.363657 A    
C41   C46   1.574482 S    
C44   H19   1.112303 S    
C54   O24   1.435564 S    
C49   N3    1.504324 S    
H22   C48   1.113347 S    
O21   C60   1.407212 S    
C51   O21   1.433029 S    
