data_mof_unit_26850.cif
_audit_creation_date              2012-12-10T17:40:51-0500
_audit_creation_method            fapswitch 2.2
_symmetry_space_group_name_H-M    P1
_symmetry_Int_Tables_number       1
_space_group_crystal_system       triclinic
_cell_length_a                    14.50406
_cell_length_b                    15.796538
_cell_length_c                    9.92486
_cell_angle_alpha                 90.000177
_cell_angle_beta                  87.384489
_cell_angle_gamma                 89.999967
_cell_volume                      2271.55487424

loop_
_atom_site_label
_atom_site_type_symbol
_atom_type_description
_atom_site_fract_x
_atom_site_fract_y
_atom_site_fract_z
_atom_type_partial_charge
C1    C     C_R   0.386988 0.874044 0.502241 0.880937
C2    C     C_R   0.722186 0.220127 0.374569 -0.051918
C3    C     C_R   0.222186 0.279873 0.374569 -0.051919
C4    C     C_R   0.222186 0.720127 0.374569 -0.051918
C5    C     C_R   0.669577 0.798574 0.493379 -0.207395
C6    C     C_R   0.669577 0.201426 0.493380 -0.207395
C7    C     C_R   0.169576 0.298573 0.493379 -0.207395
C8    C     C_R   0.169577 0.701426 0.493380 -0.207395
C9    C     C_R   0.320344 0.000000 0.138360 0.007256
C10   C     C_R   0.820345 0.500000 0.138360 0.007256
C11   C     C_R   0.242312 0.000000 0.059729 -0.258502
C12   C     C_R   0.386988 0.125956 0.502241 0.880937
C13   C     C_R   0.742312 0.500000 0.059729 -0.258502
C14   C     C_R   0.250010 0.000000 0.922451 -0.218096
C15   C     C_R   0.750010 0.500000 0.922451 -0.218096
C16   C     C_R   0.335730 0.000000 0.859372 -0.143666
C17   C     C_R   0.835730 0.500000 0.859372 -0.143666
C18   C     C_R   0.417231 0.000000 0.930234 0.101839
C19   C     C_R   0.917231 0.500000 0.930234 0.101839
C20   C     C_R   0.414284 0.000000 0.075867 0.120711
C21   C     C_R   0.914284 0.500000 0.075867 0.120710
C22   C     C_R   0.579697 0.000000 0.066759 -0.007844
C23   C     C_R   0.886988 0.374044 0.502241 0.880937
C24   C     C_R   0.079697 0.500000 0.066759 -0.007844
C25   C     C_R   0.612539 0.125899 0.498085 0.888266
C26   C     C_R   0.612539 0.874101 0.498085 0.888266
C27   C     C_R   0.112539 0.625899 0.498085 0.888266
C28   C     C_R   0.112539 0.374101 0.498085 0.888267
C29   C     C_R   0.579662 0.000000 0.923108 -0.026670
C30   C     C_R   0.079662 0.500000 0.923108 -0.026670
C31   C     C_R   0.300960 0.200061 0.759292 -0.155279
C32   C     C_R   0.300961 0.799939 0.759292 -0.155278
C33   C     C_R   0.800960 0.700061 0.759292 -0.155279
C34   C     C_R   0.886988 0.625956 0.502241 0.880937
C35   C     C_R   0.800961 0.299939 0.759292 -0.155278
C36   C     C_R   0.237999 0.203800 0.869655 -0.122336
C37   C     C_R   0.238001 0.796201 0.869655 -0.122335
C38   C     C_R   0.737999 0.703800 0.869655 -0.122335
C39   C     C_R   0.738000 0.296201 0.869655 -0.122335
C40   C     C_R   0.646879 0.726352 0.850757 -0.137261
C41   C     C_R   0.646880 0.273649 0.850758 -0.137260
C42   C     C_R   0.146879 0.226352 0.850757 -0.137261
C43   C     C_R   0.146880 0.773648 0.850758 -0.137261
C44   C     C_R   0.621822 0.754787 0.725022 -0.141563
C45   C     C_R   0.304433 0.236404 0.383165 -0.062966
C46   C     C_R   0.621822 0.245213 0.725023 -0.141563
C47   C     C_R   0.121822 0.254787 0.725022 -0.141563
C48   C     C_R   0.121823 0.745213 0.725023 -0.141562
C49   C     C_R   0.687339 0.757416 0.615028 0.097283
C50   C     C_R   0.687339 0.242584 0.615028 0.097282
C51   C     C_R   0.187339 0.257416 0.615028 0.097284
C52   C     C_R   0.187339 0.742584 0.615028 0.097282
C53   C     C_R   0.272897 0.218166 0.627254 0.091404
C54   C     C_R   0.272897 0.781834 0.627254 0.091404
C55   C     C_R   0.772897 0.718166 0.627254 0.091404
C56   C     C_R   0.304433 0.763596 0.383165 -0.062967
C57   C     C_R   0.772897 0.281834 0.627254 0.091404
C58   C     C_R   0.326145 0.199210 0.507142 -0.199954
C59   C     C_R   0.326145 0.800790 0.507142 -0.199954
C60   C     C_R   0.826145 0.699210 0.507142 -0.199954
C61   C     C_R   0.826145 0.300790 0.507142 -0.199954
C62   C     C_1   0.367445 0.233100 0.264587 0.207210
C63   C     C_1   0.367444 0.766899 0.264587 0.207210
C64   C     C_1   0.867445 0.733100 0.264587 0.207210
C65   C     C_1   0.867444 0.266900 0.264587 0.207210
C66   C     C_1   0.665951 0.000000 0.844819 0.284723
C67   C     C_R   0.804433 0.736404 0.383165 -0.062966
C68   C     C_1   0.165951 0.500000 0.844819 0.284723
C69   C     C_1   0.688420 0.797459 0.242226 0.230439
C70   C     C_1   0.688419 0.202541 0.242226 0.230440
C71   C     C_1   0.188420 0.297459 0.242226 0.230439
C72   C     C_1   0.188419 0.702541 0.242226 0.230440
C73   C     C_1   0.665713 0.000000 0.134330 0.277936
C74   C     C_1   0.165713 0.500000 0.134330 0.277936
C75   C     C_1   0.287024 1.000000 0.276646 0.288642
C76   C     C_1   0.787024 0.500000 0.276646 0.288642
C77   C     C_R   0.804432 0.263596 0.383165 -0.062967
C78   C     C_R   0.722186 0.779873 0.374569 -0.051919
H1    H     H_    0.188733 0.000000 0.863964 0.177005
H2    H     H_    0.259611 0.812641 0.969289 0.165389
H3    H     H_    0.759609 0.687360 0.969288 0.165389
H4    H     H_    0.759611 0.312641 0.969289 0.165389
H5    H     H_    0.596213 0.724627 0.934124 0.163485
H6    H     H_    0.596215 0.275373 0.934125 0.163485
H7    H     H_    0.096214 0.224627 0.934124 0.163485
H8    H     H_    0.096215 0.775374 0.934125 0.163485
H9    H     H_    0.550914 0.774025 0.713888 0.140961
H10   H     H_    0.550914 0.225976 0.713890 0.140961
H11   H     H_    0.050914 0.274025 0.713888 0.140961
H12   H     H_    0.688733 0.500000 0.863964 0.177005
H13   H     H_    0.050914 0.725976 0.713890 0.140961
H14   H     H_    0.172493 0.000000 0.104814 0.160848
H15   H     H_    0.672493 0.500000 0.104814 0.160848
H16   H     H_    0.335043 0.000000 0.753051 0.232514
H17   H     H_    0.835043 0.500000 0.753051 0.232514
H18   H     H_    0.371572 0.185530 0.780357 0.165103
H19   H     H_    0.371574 0.814470 0.780356 0.165103
H20   H     H_    0.871572 0.685530 0.780357 0.165103
H21   H     H_    0.871573 0.314470 0.780356 0.165103
H22   H     H_    0.259609 0.187360 0.969288 0.165389
N1    N     N_R   0.498810 0.000000 0.142780 -0.140158
N2    N     N_1   0.235417 0.500000 0.782598 -0.193562
N3    N     N_1   0.661096 0.810482 0.136645 -0.231445
N4    N     N_1   0.661095 0.189518 0.136645 -0.231445
N5    N     N_1   0.161096 0.310482 0.136645 -0.231445
N6    N     N_1   0.161095 0.689518 0.136645 -0.231445
N7    N     N_1   0.734971 0.000000 0.187885 -0.203098
N8    N     N_1   0.234971 0.500000 0.187885 -0.203098
N9    N     N_1   0.252933 1.000000 0.384638 -0.227628
N10   N     N_1   0.752933 0.500000 0.384638 -0.227628
N11   N     N_R   0.998810 0.500000 0.142780 -0.140158
N12   N     N_R   0.498740 0.000000 0.857170 -0.155255
N13   N     N_R   0.998740 0.500000 0.857170 -0.155255
N14   N     N_1   0.417381 0.230588 0.170281 -0.217180
N15   N     N_1   0.417380 0.769411 0.170280 -0.217181
N16   N     N_1   0.917381 0.730588 0.170281 -0.217180
N17   N     N_1   0.917380 0.269411 0.170280 -0.217181
N18   N     N_1   0.735417 0.000000 0.782598 -0.193562
O1    O     O_R   0.408390 0.908380 0.614690 -0.665165
O2    O     O_R   0.591620 0.908390 0.614640 -0.614853
O3    O     O_R   0.091620 0.591610 0.614640 -0.614853
O4    O     O_R   0.091620 0.408390 0.614640 -0.614853
O5    O     O_R   0.591610 0.091610 0.385310 -0.606768
O6    O     O_R   0.591610 0.908390 0.385310 -0.606768
O7    O     O_R   0.091610 0.591610 0.385310 -0.606768
O8    O     O_R   0.091610 0.408390 0.385310 -0.606768
O9    O     O_R   0.408390 0.091620 0.614690 -0.665165
O10   O     O_R   0.908390 0.408380 0.614690 -0.665165
O11   O     O_R   0.908390 0.591620 0.614690 -0.665165
O12   O     O_R   0.408370 0.908380 0.385360 -0.611324
O13   O     O_R   0.408370 0.091620 0.385360 -0.611324
O14   O     O_R   0.908370 0.408380 0.385360 -0.611324
O15   O     O_R   0.908370 0.591620 0.385360 -0.611324
O16   O     O_R   0.591620 0.091610 0.614640 -0.614853
Zn1   Zn    Zn3+2 0.500010 0.000000 0.653130 0.926970
Zn2   Zn    Zn3+2 0.000010 0.500000 0.653130 0.926969
Zn3   Zn    Zn3+2 0.499980 0.000000 0.346870 0.985894
Zn4   Zn    Zn3+2 0.999980 0.500000 0.346870 0.985894

loop_
_geom_bond_atom_site_label_1
_geom_bond_atom_site_label_2
_ccdc_geom_bond_type
C44   C49   A    
C33   C55   A    
C64   N16   T    
C12   O13   A    
C29   N12   A    
C35   C39   A    
C50   C57   A    
C4    C8    A    
C27   O3    A    
C39   C41   A    
C12   O9    A    
C24   N11   A    
C22   N1    A    
C19   C21   A    
C68   N2    T    
C62   N14   T    
C3    C7    A    
O10   Zn2   S    
C11   C14   A    
C70   N4    T    
C73   N7    T    
C6    C25   S    
C19   N13   A    
O14   Zn4   S    
C31   H18   S    
C45   C62   S    
C32   H19   S    
C33   H20   S    
C1    O1    A    
C36   C42   A    
C11   H14   S    
C26   O2    A    
C60   C67   A    
C61   C77   A    
N13   Zn2   S    
C41   C46   A    
C17   H17   S    
C44   H9    S    
C43   C48   A    
C8    C52   A    
C40   C44   A    
C18   C20   A    
C12   C58   S    
O15   Zn4   S    
C55   C60   A    
C4    C56   A    
C34   C60   S    
C47   H11   S    
C40   H5    S    
C5    C49   A    
C69   C78   S    
C2    C6    A    
C67   C78   A    
C26   O6    A    
C35   H21   S    
C32   C54   A    
C21   N11   A    
C52   C54   A    
C46   H10   S    
C54   C59   A    
C69   N3    T    
C10   C21   A    
C37   H2    S    
C45   C58   A    
C75   N9    T    
C65   C77   S    
C64   C67   S    
O6    Zn3   S    
C34   O11   A    
C1    O12   A    
N1    Zn3   S    
C47   C51   A    
C20   N1    A    
C34   O15   A    
C49   C55   A    
C41   H6    S    
C3    C45   A    
O1    Zn1   S    
C7    C28   S    
C29   C66   S    
C13   H15   S    
C51   C53   A    
C37   C43   A    
C3    C71   S    
O13   Zn3   S    
C48   H13   S    
O11   Zn2   S    
C25   O5    A    
C9    C20   A    
C23   C61   S    
C56   C63   S    
C36   H22   S    
C42   H7    S    
C32   C37   A    
C6    C50   A    
C25   O16   A    
C9    C11   A    
O4    Zn2   S    
C16   C18   A    
C1    C59   S    
C72   N6    T    
C13   C15   A    
C38   H3    S    
C14   C16   A    
C31   C53   A    
N12   Zn1   S    
C4    C72   S    
C15   C17   A    
C46   C50   A    
O8    Zn4   S    
C43   H8    S    
C10   C76   S    
C39   H4    S    
C18   N12   A    
C10   C13   A    
C53   C58   A    
C57   C61   A    
O16   Zn1   S    
O7    Zn4   S    
C28   O8    A    
O5    Zn3   S    
C16   H16   S    
C33   C38   A    
C56   C59   A    
C35   C57   A    
O2    Zn1   S    
C71   N5    T    
C7    C51   A    
C2    C77   A    
C15   H12   S    
C38   C40   A    
C27   O7    A    
C24   C74   S    
C63   N15   T    
C17   C19   A    
C23   O14   A    
C28   O4    A    
C42   C47   A    
O3    Zn2   S    
O9    Zn1   S    
C24   C30   A    
C14   H1    S    
C74   N8    T    
C5    C26   S    
C48   C52   A    
C76   N10   T    
C66   N18   T    
C22   C29   A    
C8    C27   S    
C65   N17   T    
C31   C36   A    
C9    C75   S    
C22   C73   S    
C5    C78   A    
C2    C70   S    
O12   Zn3   S    
C30   C68   S    
N11   Zn4   S    
C23   O10   A    
C30   N13   A    
