data_mof_unit_49646.cif
_audit_creation_date              2012-12-10T19:06:30-0500
_audit_creation_method            fapswitch 2.2
_symmetry_space_group_name_H-M    P1
_symmetry_Int_Tables_number       1
_space_group_crystal_system       triclinic
_cell_length_a                    23.544758
_cell_length_b                    10.843817
_cell_length_c                    9.531944
_cell_angle_alpha                 90.736684
_cell_angle_beta                  89.99718
_cell_angle_gamma                 90.27948
_cell_volume                      2433.41862196

loop_
_atom_site_label
_atom_site_type_symbol
_atom_type_description
_atom_site_fract_x
_atom_site_fract_y
_atom_site_fract_z
_atom_type_partial_charge
C1    C     C_R   0.498038 0.262247 0.498783 0.824992
C2    C     C_R   0.970901 0.299941 0.625709 0.425146
C3    C     C_R   0.030226 0.302371 0.621363 -0.196449
C4    C     C_R   0.059868 0.399273 0.559468 -0.072732
C5    C     C_R   0.029794 0.497199 0.499689 -0.004945
C6    C     C_R   0.060119 0.595457 0.440019 -0.072984
C7    C     C_R   0.030733 0.692021 0.377977 -0.196656
C8    C     C_R   0.971419 0.693816 0.373435 0.425111
C9    C     C_R   0.119546 0.401018 0.557785 0.573419
C10   C     C_R   0.119787 0.594384 0.441946 0.573855
C11   C     C_R   0.239011 0.491093 0.373033 -0.091139
C12   C     C_R   0.390930 0.499768 0.500030 0.799747
C13   C     C_R   0.298222 0.491809 0.372895 -0.211397
C14   C     C_R   0.328385 0.499290 0.500022 -0.038669
C15   C     C_R   0.298214 0.506168 0.627136 -0.213745
C16   C     C_R   0.238998 0.505816 0.626952 -0.090814
C17   C     C_R   0.209158 0.498209 0.499976 0.338747
C18   C     C_R   0.761056 0.496209 0.626838 -0.082725
C19   C     C_R   0.701851 0.496777 0.627050 -0.216209
C20   C     C_R   0.671641 0.497883 0.499867 -0.040617
C21   C     C_R   0.701798 0.496978 0.372561 -0.211657
C22   C     C_R   0.761000 0.496288 0.372586 -0.082329
C23   C     C_R   0.498667 0.737716 0.500601 0.820760
C24   C     C_R   0.790861 0.496226 0.499666 0.327103
C25   C     C_R   0.490154 0.065751 0.622528 0.082137
C26   C     C_R   0.490932 0.129044 0.496051 -0.105376
C27   C     C_R   0.482691 0.060905 0.369666 0.146590
C28   C     C_R   0.483332 0.931886 0.373103 -0.262833
C29   C     C_R   0.491875 0.870487 0.500328 -0.123633
C30   C     C_R   0.490347 0.939003 0.625007 0.135591
C31   C     C_3   0.528295 0.937463 0.750483 -0.477972
C32   C     C_3   0.528081 0.077263 0.747427 -0.436798
C33   C     C_R   0.548180 0.529171 0.074222 0.259440
C34   C     C_R   0.609078 0.499438 0.499952 0.800492
C35   C     C_R   0.454385 0.458026 0.073758 -0.062980
C36   C     C_R   0.454339 0.458237 0.924953 -0.082552
C37   C     C_R   0.548359 0.528144 0.926757 0.257377
C38   C     C_3   0.581082 0.645865 0.922451 -0.506269
C39   C     C_3   0.580330 0.647739 0.081635 -0.489657
C40   C     C_R   0.880073 0.596990 0.449879 0.602694
C41   C     C_R   0.879796 0.395969 0.549247 0.603054
C42   C     C_R   0.939648 0.396106 0.559789 -0.114594
C43   C     C_R   0.969673 0.496883 0.499597 -0.105755
C44   C     C_R   0.939917 0.597364 0.439341 -0.114293
Cu1   Cu    Cu3+1 0.500000 0.499980 0.640670 0.945275
Cu2   Cu    Cu3+1 0.500000 0.500020 0.359330 0.958286
H1    H     H_    0.679848 0.496153 0.726696 0.151725
H2    H     H_    0.679752 0.496472 0.272943 0.151847
H3    H     H_    0.783762 0.495570 0.273854 0.157095
H4    H     H_    0.479794 0.880753 0.275033 0.165706
H5    H     H_    0.506154 0.900685 0.844155 0.194988
H6    H     H_    0.570658 0.897142 0.727194 0.202991
H7    H     H_    0.506107 0.119911 0.839065 0.201969
H8    H     H_    0.570222 0.117987 0.721884 0.205596
H9    H     H_    0.417178 0.425322 0.128530 0.143197
H10   H     H_    0.053730 0.228360 0.669080 0.232254
H11   H     H_    0.417069 0.425829 0.869267 0.143309
H12   H     H_    0.624282 0.633421 0.877889 0.196585
H13   H     H_    0.556190 0.720953 0.875763 0.213509
H14   H     H_    0.623169 0.636711 0.128434 0.198383
H15   H     H_    0.554852 0.724591 0.126935 0.212368
H16   H     H_    0.054428 0.766274 0.330310 0.232197
H17   H     H_    0.216245 0.484707 0.274477 0.150495
H18   H     H_    0.320293 0.486147 0.273363 0.151702
H19   H     H_    0.320285 0.512212 0.726681 0.153734
H20   H     H_    0.216222 0.511832 0.725485 0.150783
H21   H     H_    0.783862 0.496093 0.725496 0.157430
N1    N     N_R   0.851891 0.496362 0.499562 -0.489476
N2    N     N_R   0.148191 0.497861 0.499917 -0.469674
N3    N     N_R   0.500360 0.500930 0.147930 -0.185677
N4    N     N_R   0.500360 0.500890 0.852020 -0.185566
O1    O     O_R   0.500000 0.319640 0.618810 -0.586386
O2    O     O_2   0.849071 0.296039 0.584307 -0.439466
O3    O     O_2   0.148754 0.306310 0.612690 -0.519853
O4    O     O_2   0.149230 0.689431 0.387167 -0.519040
O5    O     O_R   0.500010 0.319680 0.381230 -0.541249
O6    O     O_R   0.417880 0.499940 0.618820 -0.591556
O7    O     O_R   0.417880 0.499980 0.381240 -0.590969
O8    O     O_R   0.499990 0.680320 0.618770 -0.576348
O9    O     O_R   0.500000 0.680360 0.381190 -0.585648
O10   O     O_R   0.582120 0.500020 0.618760 -0.584736
O11   O     O_R   0.582120 0.500060 0.381180 -0.583490
O12   O     O_2   0.849629 0.696696 0.414877 -0.440013
S1    S     S_3+6 0.939568 0.178845 0.724305 0.080488
O13   O     O_2   0.910572 0.089142 0.626037 -0.184763
O14   O     O_2   0.983928 0.111122 0.806180 -0.258356
O15   O     O_3   0.891877 0.237993 0.837787 -0.494646
H22   H     H_    0.873820 0.165432 0.881818 0.385878
N5    N     N_3   0.476181 0.120748 0.237456 -0.562122
H23   H     H_    0.437590 0.091953 0.193418 0.215700
H24   H     H_    0.508812 0.091044 0.170889 0.216450
S2    S     S_3+6 0.940411 0.814516 0.274635 0.080561
O16   O     O_2   0.911658 0.904091 0.372769 -0.184892
O17   O     O_2   0.984955 0.882518 0.192652 -0.258194
O18   O     O_3   0.892560 0.754827 0.161247 -0.494804
H25   H     H_    0.874488 0.827190 0.117636 0.385947

loop_
_geom_bond_atom_site_label_1
_geom_bond_atom_site_label_2
_ccdc_geom_bond_type
O15   H22   S    
C4    C9    A    
C17   N2    S    
Cu1   N4    S    
C41   C42   A    
C2    S1    S    
O18   H25   S    
S1    O15   S    
C31   H6    S    
Cu2   O5    S    
C7    C8    A    
Cu1   Cu2   S    
C26   C27   A    
C29   C30   A    
C18   C24   A    
C23   C29   S    
C28   C29   A    
C9    N2    A    
C11   H17   S    
C5    C6    A    
C19   H1    S    
C15   C16   A    
C15   H19   S    
C18   C19   A    
C10   O4    S    
C38   H12   S    
C28   H4    S    
C35   C36   A    
C35   N3    A    
C16   C17   A    
C12   O7    A    
C8    S2    S    
C34   O10   A    
C23   O9    A    
N5    H24   S    
C42   C43   A    
C36   N4    A    
C21   H2    S    
C20   C34   S    
C25   C32   S    
C5    C43   A    
Cu2   O11   S    
C21   C22   A    
Cu1   O1    S    
C40   O12   S    
C32   H8    S    
C41   N1    A    
C39   H15   S    
C1    O1    A    
C35   H9    S    
S1    O13   D    
C36   H11   S    
Cu2   O7    S    
C18   H21   S    
S2    O18   S    
C33   C37   A    
C43   C44   A    
C7    H16   S    
C37   C38   S    
C3    H10   S    
C31   C32   S    
C30   C31   S    
C12   O6    A    
S2    O17   D    
Cu1   O8    S    
C33   C39   S    
C33   N3    A    
C22   H3    S    
C12   C14   S    
C37   N4    A    
C1    C26   S    
C22   C24   A    
C16   H20   S    
C9    O3    S    
C3    C4    A    
C32   H7    S    
C25   C30   A    
C11   C17   A    
C1    O5    A    
Cu1   O10   S    
C8    C44   A    
C31   H5    S    
C4    C5    A    
C6    C10   A    
C6    C7    A    
C19   C20   A    
C2    C3    A    
C25   C26   A    
Cu2   O9    S    
C11   C13   A    
C38   C39   S    
C13   H18   S    
C2    C42   A    
C39   H14   S    
S2    O16   D    
C27   N5    S    
Cu2   N3    S    
C24   N1    S    
C41   O2    S    
C38   H13   S    
C10   N2    A    
C40   C44   A    
C20   C21   A    
C40   N1    A    
C27   C28   A    
C14   C15   A    
S1    O14   D    
Cu1   O6    S    
C34   O11   A    
C23   O8    A    
N5    H23   S    
C13   C14   A    
