data_mof_unit_47466.cif
_audit_creation_date              2012-12-10T18:04:36-0500
_audit_creation_method            fapswitch 2.2
_symmetry_space_group_name_H-M    P1
_symmetry_Int_Tables_number       1
_space_group_crystal_system       triclinic
_cell_length_a                    19.448205
_cell_length_b                    17.985508
_cell_length_c                    12.602576
_cell_angle_alpha                 91.002847
_cell_angle_beta                  99.565804
_cell_angle_gamma                 90.233241
_cell_volume                      4346.13367025

loop_
_atom_site_label
_atom_site_type_symbol
_atom_type_description
_atom_site_fract_x
_atom_site_fract_y
_atom_site_fract_z
_atom_type_partial_charge
C1    C     C_R   0.408742 0.101037 0.444388 0.905156
C2    C     C_R   0.410153 0.897810 0.442876 0.859138
C3    C     C_R   0.913153 0.604752 0.446726 0.869937
C4    C     C_R   0.909719 0.398547 0.442537 0.874603
C5    C     C_R   0.717780 0.248226 0.523295 0.012772
C6    C     C_R   0.748840 0.790381 0.545879 0.007489
C7    C     C_R   0.243876 0.724620 0.552041 0.036502
C8    C     C_R   0.257718 0.298788 0.558559 0.012489
C9    C     C_R   0.698723 0.308424 0.586718 -0.147597
C10   C     C_R   0.774783 0.784456 0.657926 -0.141227
C11   C     C_R   0.230359 0.780402 0.626444 -0.123817
C12   C     C_R   0.270286 0.272947 0.665920 -0.144874
C13   C     C_R   0.238999 0.855052 0.600642 0.321420
C14   C     C_R   0.302447 0.203974 0.685953 0.370254
C15   C     C_R   0.719815 0.381201 0.565869 0.421496
C16   C     C_R   0.834483 0.741568 0.690871 0.368608
C17   C     C_R   0.280699 0.871367 0.524394 -0.265249
C18   C     C_R   0.319529 0.163944 0.598826 -0.170987
C19   C     C_R   0.772353 0.390300 0.504711 -0.263899
C20   C     C_R   0.866364 0.706614 0.612555 -0.228287
C21   C     C_R   0.687163 0.178788 0.531918 -0.233875
C22   C     C_R   0.683363 0.821212 0.514573 -0.259268
C23   C     C_R   0.202430 0.660093 0.542935 -0.249854
C24   C     C_R   0.201574 0.346014 0.529498 -0.257051
C25   C     C_R   0.616049 0.229399 0.656424 0.253743
C26   C     C_R   0.665846 0.829433 0.699366 0.350959
C27   C     C_R   0.138153 0.710481 0.677538 0.326605
C28   C     C_R   0.166463 0.329082 0.703806 0.309446
C29   C     C_R   0.366882 0.830848 0.414603 -0.072367
C30   C     C_R   0.360388 0.164061 0.419165 -0.122929
C31   C     C_R   0.861197 0.336627 0.409903 -0.077315
C32   C     C_R   0.869019 0.670349 0.420352 -0.075001
C33   C     C_R   0.645662 0.018397 0.140150 0.373998
C34   C     C_R   0.143815 0.531124 0.139992 0.385905
C35   C     C_R   0.386458 0.964452 0.759968 0.132254
C36   C     C_R   0.878874 0.493106 0.764615 0.098342
C37   C     C_R   0.379395 0.915304 0.840846 -0.064957
C38   C     C_R   0.854953 0.494295 0.862681 -0.094287
C39   C     C_R   0.588164 0.896847 0.555211 0.909864
C40   C     C_R   0.587404 0.104422 0.556160 0.919642
C41   C     C_R   0.091092 0.400049 0.557303 0.931201
C42   C     C_R   0.090283 0.601478 0.557677 0.934316
C43   C     C_R   0.432213 0.911891 0.929894 -0.050031
C44   C     C_R   0.902948 0.499003 0.957396 -0.048382
C45   C     C_R   0.485124 0.966466 0.945347 0.050262
C46   C     C_R   0.974999 0.501543 0.954017 0.072436
C47   C     C_R   0.499228 0.999279 0.851724 0.264125
C48   C     C_R   0.996534 0.505560 0.853434 0.279843
C49   C     C_R   0.528892 0.983267 0.045328 -0.185875
C50   C     C_R   0.025863 0.502016 0.047784 -0.156508
C51   C     C_R   0.598032 0.008879 0.043373 -0.047983
C52   C     C_R   0.095901 0.522300 0.043021 -0.036466
C53   C     C_R   0.617103 0.025285 0.944202 -0.007589
C54   C     C_R   0.115625 0.529363 0.941793 -0.048993
C55   C     C_R   0.568442 0.020563 0.850421 -0.049977
C56   C     C_R   0.067434 0.515943 0.848914 -0.063880
C57   C     C_R   0.504285 0.985165 0.145309 0.469998
C58   C     C_R   0.010483 0.477247 0.145610 0.412744
C59   C     C_R   0.620796 0.012680 0.236614 -0.171043
C60   C     C_R   0.118218 0.525068 0.236547 -0.155122
C61   C     C_R   0.658558 0.293396 0.667546 0.387608
C62   C     C_R   0.736646 0.816980 0.732836 0.312609
C63   C     C_R   0.191518 0.761520 0.706036 0.382392
C64   C     C_R   0.233942 0.305577 0.741474 0.388728
C65   C     C_R   0.631006 0.171040 0.586175 -0.231470
C66   C     C_R   0.642818 0.843276 0.590224 -0.202438
C67   C     C_R   0.143991 0.657485 0.595155 -0.208124
C68   C     C_R   0.151826 0.355212 0.597285 -0.232717
C69   C     C_R   0.389787 0.775472 0.349225 -0.129901
C70   C     C_R   0.358279 0.198724 0.319797 -0.140341
C71   C     C_R   0.881316 0.278228 0.347112 -0.098364
C72   C     C_R   0.850474 0.688654 0.311521 -0.152637
C73   C     C_R   0.363551 0.703274 0.348785 -0.075567
C74   C     C_R   0.325902 0.266939 0.300577 -0.087717
C75   C     C_R   0.842654 0.212931 0.331529 -0.073591
C76   C     C_R   0.803619 0.745278 0.281140 -0.071887
C77   C     C_R   0.316197 0.684919 0.416193 -0.095492
C78   C     C_R   0.295154 0.301956 0.379853 -0.152336
C79   C     C_R   0.786822 0.202620 0.385650 -0.112343
C80   C     C_R   0.771172 0.781096 0.357662 -0.141717
C81   C     C_R   0.290733 0.740108 0.480327 0.109114
C82   C     C_R   0.293322 0.267511 0.479380 0.117161
C83   C     C_R   0.767680 0.259018 0.454862 0.109651
C84   C     C_R   0.786865 0.762247 0.467776 0.122645
C85   C     C_R   0.313312 0.814403 0.473580 0.052824
C86   C     C_R   0.324726 0.197419 0.499015 0.051658
C87   C     C_R   0.800880 0.328997 0.457176 0.039183
C88   C     C_R   0.841629 0.712613 0.500742 0.019589
H1    H     H_    0.430729 0.868249 0.986598 0.210494
H2    H     H_    0.883415 0.502372 0.032760 0.176608
H3    H     H_    0.588829 0.028841 0.779151 0.196023
H4    H     H_    0.087395 0.512619 0.775175 0.192658
H5    H     H_    0.759811 0.150216 0.371232 0.182029
H6    H     H_    0.735475 0.824934 0.328992 0.150409
H7    H     H_    0.302303 0.627069 0.420020 0.179557
H8    H     H_    0.274775 0.357027 0.362722 0.163228
H9    H     H_    0.383139 0.660302 0.300731 0.188489
H10   H     H_    0.326596 0.294092 0.224753 0.182429
H11   H     H_    0.858160 0.168617 0.281474 0.205190
H12   H     H_    0.790787 0.760061 0.197268 0.193280
N1    N     N_R   0.552340 1.000000 0.237260 -0.182828
N2    N     N_R   0.052340 0.500000 0.237260 -0.168139
N3    N     N_R   0.448170 0.000000 0.762060 -0.130327
N4    N     N_R   0.948170 0.500000 0.762060 -0.133960
O1    O     O_R   0.448200 0.076800 0.373930 -0.544008
O2    O     O_R   0.448200 0.923200 0.373930 -0.542517
O3    O     O_R   0.948200 0.576800 0.373930 -0.604500
O4    O     O_R   0.948200 0.423200 0.373930 -0.519754
O5    O     O_R   0.414750 0.076790 0.542400 -0.604048
O6    O     O_R   0.414750 0.923210 0.542400 -0.643365
O7    O     O_R   0.914750 0.576790 0.542400 -0.640967
O8    O     O_R   0.914750 0.423210 0.542400 -0.616289
O9    O     O_R   0.585240 0.923200 0.457600 -0.635875
O10   O     O_R   0.585240 0.076800 0.457600 -0.627701
O11   O     O_R   0.085240 0.423200 0.457600 -0.613601
O12   O     O_R   0.085240 0.576800 0.457600 -0.629746
O13   O     O_R   0.551780 0.923190 0.626070 -0.576996
O14   O     O_R   0.551780 0.076810 0.626070 -0.583360
O15   O     O_R   0.051780 0.423190 0.626070 -0.582761
O16   O     O_R   0.051780 0.576810 0.626070 -0.601071
Zn1   Zn    Zn3+2 0.522330 1.000000 0.387520 1.020725
Zn2   Zn    Zn3+2 0.022330 0.500000 0.387520 1.022463
Zn3   Zn    Zn3+2 0.477660 0.000000 0.612480 1.028427
Zn4   Zn    Zn3+2 0.977660 0.500000 0.612480 1.020979
S1    S     S_3+6 0.539664 0.230792 0.716512 0.129274
O17   O     O_2   0.545748 0.175728 0.805460 -0.215149
O18   O     O_2   0.526990 0.306374 0.761757 -0.161501
O19   O     O_3   0.470964 0.208913 0.622836 -0.543004
H13   H     H_    0.470743 0.247190 0.567198 0.335455
S2    S     S_3+6 0.607614 0.802662 0.786254 0.052190
O20   O     O_2   0.533808 0.797201 0.727619 -0.263362
O21   O     O_2   0.629427 0.727683 0.830347 -0.261454
O22   O     O_3   0.612053 0.863385 0.889586 -0.582437
H14   H     H_    0.587371 0.838723 0.942191 0.373660
S3    S     S_3+6 0.058437 0.735440 0.716199 0.070341
O23   O     O_2   0.029454 0.672772 0.772258 -0.263089
O24   O     O_2   0.067763 0.802233 0.790918 -0.197674
O25   O     O_3   0.004605 0.757147 0.602528 -0.589452
H15   H     H_    0.985611 0.806705 0.616566 0.410559
S4    S     S_3+6 0.101543 0.300742 0.778516 0.101467
O26   O     O_2   0.031121 0.293402 0.708818 -0.255867
O27   O     O_2   0.121645 0.226312 0.826277 -0.225052
O28   O     O_3   0.097827 0.361764 0.879455 -0.526266
H16   H     H_    0.070950 0.336120 0.928307 0.410670
H17   H     H_    0.668899 0.044447 0.937768 0.238309
H18   H     H_    0.168483 0.542243 0.932520 0.246502
S5    S     S_3+6 0.735476 0.038261 0.144399 0.019514
O29   O     O_2   0.774966 0.030931 0.256773 -0.328510
O30   O     O_2   0.765188 0.984927 0.071166 -0.210875
O31   O     O_3   0.743906 0.125649 0.102728 -0.544140
H19   H     H_    0.792688 0.129434 0.089984 0.401668
S6    S     S_3+6 0.233989 0.550049 0.146128 0.021231
O32   O     O_2   0.272639 0.535325 0.257142 -0.356762
O33   O     O_2   0.263697 0.501482 0.066938 -0.247600
O34   O     O_3   0.244432 0.639872 0.117577 -0.495205
H20   H     H_    0.294517 0.645240 0.112727 0.407350
S7    S     S_3+6 0.410545 0.974272 0.145795 0.067330
O35   O     O_2   0.370859 0.007484 0.045337 -0.222879
O36   O     O_2   0.394580 0.892498 0.146941 -0.339441
O37   O     O_3   0.372003 0.011844 0.242032 -0.523459
H21   H     H_    0.323277 0.993144 0.227724 0.386055
S8    S     S_3+6 0.968666 0.389766 0.145431 0.037762
O38   O     O_2   0.896549 0.398659 0.171659 -0.287929
O39   O     O_2   0.963172 0.350889 0.037714 -0.277862
O40   O     O_3   0.017923 0.337585 0.237690 -0.542651
H22   H     H_    0.063560 0.333637 0.212966 0.358547
H23   H     H_    0.347809 0.964821 0.688061 0.117732
H24   H     H_    0.842292 0.489425 0.690153 0.146525
H25   H     H_    0.334786 0.879041 0.832532 0.223305
H26   H     H_    0.799793 0.492923 0.865828 0.222515
S9    S     S_3+6 0.183520 0.925113 0.638601 0.079557
O41   O     O_2   0.109582 0.897054 0.617159 -0.195979
O42   O     O_2   0.202783 0.943118 0.756381 -0.215067
O43   O     O_3   0.187586 0.002599 0.567128 -0.512569
H27   H     H_    0.234509 0.023526 0.592832 0.329219
S10   S     S_3+6 0.311703 0.157123 0.811088 0.109928
O44   O     O_2   0.387945 0.144509 0.850099 -0.185084
O45   O     O_2   0.281654 0.197407 0.897748 -0.196605
O46   O     O_3   0.271614 0.074429 0.790696 -0.527286
H28   H     H_    0.221412 0.086698 0.773778 0.404533
S11   S     S_3+6 0.672274 0.461547 0.592301 0.078620
O47   O     O_2   0.597971 0.441229 0.598107 -0.194881
O48   O     O_2   0.704930 0.498164 0.696614 -0.298851
O49   O     O_3   0.672378 0.522602 0.492544 -0.519279
H29   H     H_    0.713694 0.554972 0.515708 0.348797
S12   S     S_3+6 0.862666 0.716366 0.827201 0.098574
O50   O     O_2   0.905878 0.647544 0.832714 -0.323048
O51   O     O_2   0.906983 0.777128 0.887049 -0.099912
O52   O     O_3   0.793690 0.699500 0.888060 -0.514082
H30   H     H_    0.769090 0.656945 0.847179 0.368146
S13   S     S_3+6 0.684298 0.333027 0.798529 0.127191
O53   O     O_2   0.759316 0.357134 0.811833 -0.311569
O54   O     O_2   0.639831 0.398670 0.816470 -0.154883
O55   O     O_3   0.676428 0.268773 0.891281 -0.479904
H31   H     H_    0.694012 0.293555 0.961406 0.402402
S14   S     S_3+6 0.778208 0.881177 0.831892 0.156928
O56   O     O_2   0.847922 0.903767 0.805874 -0.179710
O57   O     O_2   0.734378 0.949773 0.831627 -0.299715
O58   O     O_3   0.789157 0.844883 0.955590 -0.393690
H32   H     H_    0.741557 0.833721 0.969174 0.388038
S15   S     S_3+6 0.232078 0.760884 0.842438 0.092799
O59   O     O_2   0.308614 0.745916 0.849022 -0.278227
O60   O     O_2   0.222628 0.833775 0.897989 -0.198432
O61   O     O_3   0.197081 0.692544 0.906260 -0.504996
H33   H     H_    0.158134 0.715775 0.936045 0.410031
S16   S     S_3+6 0.280845 0.356288 0.852029 0.144032
O62   O     O_2   0.356677 0.335581 0.868371 -0.199640
O63   O     O_2   0.274099 0.437967 0.829584 -0.259346
O64   O     O_3   0.247463 0.338756 0.963995 -0.451023
H34   H     H_    0.285093 0.352029 0.024499 0.392618
H35   H     H_    0.702682 0.130254 0.490846 0.174331
H36   H     H_    0.661060 0.825441 0.430695 0.183939
H37   H     H_    0.208011 0.617300 0.483904 0.173451
H38   H     H_    0.190531 0.366618 0.448712 0.191309
H39   H     H_    0.431438 0.786616 0.304251 0.185423
H40   H     H_    0.384555 0.174751 0.258128 0.213726
H41   H     H_    0.928455 0.281346 0.313653 0.243502
H42   H     H_    0.871742 0.658683 0.249204 0.183602
H43   H     H_    0.287086 0.928676 0.503046 0.161879
H44   H     H_    0.325220 0.105481 0.611934 0.174153
H45   H     H_    0.789361 0.446180 0.490940 0.155638
H46   H     H_    0.912525 0.676620 0.642753 0.277102
H47   H     H_    0.655403 0.020817 0.312471 0.197357
H48   H     H_    0.151783 0.537138 0.312167 0.192061

loop_
_geom_bond_atom_site_label_1
_geom_bond_atom_site_label_2
_ccdc_geom_bond_type
S3    O25   S    
C40   O14   A    
S9    O41   D    
O40   H22   S    
S15   O59   D    
C14   C18   A    
C53   C55   A    
C83   C87   A    
S5    O29   D    
C28   S4    S    
S4    O28   S    
C62   S14   S    
C39   C66   S    
C72   C76   A    
N3    Zn3   S    
O19   H13   S    
O22   H14   S    
S3    O23   D    
C74   H10   S    
S11   O47   D    
C15   C19   A    
S9    O42   D    
C18   C86   A    
O12   Zn2   S    
C2    C29   S    
C9    C61   A    
C28   C68   A    
S4    O27   D    
O8    Zn4   S    
C35   N3    A    
C37   H25   S    
C12   C64   A    
S16   O63   D    
C57   N1    A    
O28   H16   S    
C6    C22   A    
C20   C88   A    
C36   H24   S    
C49   C57   A    
O49   H29   S    
C48   C56   A    
C23   C67   A    
C25   S1    S    
O43   H27   S    
C22   C66   A    
C14   S10   S    
C33   S5    S    
C1    O5    A    
O10   Zn1   S    
C24   H38   S    
S7    O35   D    
C40   O10   A    
C52   C54   A    
C49   C51   A    
C69   H39   S    
C70   C74   A    
S1    O19   S    
C35   H23   S    
S6    O33   D    
C69   C73   A    
S2    O21   D    
C58   N2    A    
C45   C49   A    
C8    C12   A    
C30   C86   A    
C61   S13   S    
C29   C85   A    
C26   S2    S    
C80   C84   A    
C54   H18   S    
C21   C65   A    
C31   C71   A    
O55   H31   S    
C4    O8    A    
C18   H44   S    
O58   H32   S    
S7    O36   D    
O11   Zn2   S    
O15   Zn4   S    
C34   C60   A    
S15   O60   D    
C10   C62   A    
C55   H3    S    
C41   O11   A    
S14   O58   S    
C60   N2    A    
C60   H48   S    
C75   H11   S    
C30   C70   A    
C44   C46   A    
C38   C44   A    
C38   H26   S    
C41   C68   S    
C29   C69   A    
C45   C47   A    
S9    O43   S    
C46   C48   A    
C27   S3    S    
C71   C75   A    
C6    C84   A    
C32   C88   A    
O1    Zn1   S    
S13   O53   D    
C59   N1    A    
C76   C80   A    
S5    O31   S    
C47   N3    A    
S4    O26   D    
S14   O57   D    
S11   O48   D    
C3    O7    A    
C34   S6    S    
S16   O62   D    
O5    Zn3   S    
C19   H45   S    
C39   O9    A    
C17   C85   A    
C39   O13   A    
C64   S16   S    
C2    O2    A    
N1    Zn1   S    
C21   H35   S    
C22   H36   S    
C51   C53   A    
C5    C21   A    
C26   C66   A    
C37   C43   A    
C7    C11   A    
S13   O54   D    
C5    C83   A    
C5    C9    A    
O6    Zn3   S    
S8    O40   S    
C4    O4    A    
C78   C82   A    
C50   C52   A    
C79   C83   A    
S6    O34   S    
C77   C81   A    
C16   C20   A    
C53   H17   S    
O64   H34   S    
C50   C58   A    
C25   C65   A    
C25   C61   A    
C41   O15   A    
C43   C45   A    
C59   H47   S    
C28   C64   A    
C42   O12   A    
S10   O44   D    
C7    C81   A    
C12   C14   A    
C73   H9    S    
S7    O37   S    
C40   C65   S    
S1    O17   D    
S15   O61   S    
C8    C82   A    
C31   C87   A    
C33   C51   A    
S12   O51   D    
C58   S8    S    
C44   H2    S    
C35   C37   A    
C47   C55   A    
S8    O38   D    
C23   H37   S    
S11   O49   S    
O52   H30   S    
S3    O24   D    
C57   S7    S    
C2    O6    A    
C73   C77   A    
C63   S15   S    
S5    O30   D    
O7    Zn4   S    
C34   C52   A    
C84   C88   A    
O4    Zn2   S    
S14   O56   D    
C17   H43   S    
C6    C10   A    
C54   C56   A    
C79   H5    S    
N4    Zn4   S    
C76   H12   S    
C72   H42   S    
C46   C50   A    
C11   C63   A    
C71   H41   S    
C13   C17   A    
C36   N4    A    
C3    O3    A    
O37   H21   S    
S10   O46   S    
S12   O52   S    
C36   C38   A    
S2    O20   D    
O13   Zn3   S    
C19   C87   A    
C70   H40   S    
S8    O39   D    
C10   C16   A    
C82   C86   A    
C11   C13   A    
S16   O64   S    
C42   O16   A    
C78   H8    S    
C42   C67   S    
C75   C79   A    
C7    C23   A    
C26   C62   A    
C15   S11   S    
O2    Zn1   S    
S10   O45   D    
C1    C30   S    
C8    C24   A    
C77   H7    S    
O14   Zn3   S    
C43   H1    S    
C9    C15   A    
C3    C32   S    
S13   O55   S    
C4    C31   S    
C27   C67   A    
O25   H15   S    
C24   C68   A    
O46   H28   S    
S2    O22   S    
C13   S9    S    
O9    Zn1   S    
O61   H33   S    
C33   C59   A    
C74   C78   A    
O34   H20   S    
S1    O18   D    
C20   H46   S    
O31   H19   S    
C27   C63   A    
C16   S12   S    
S6    O32   D    
O3    Zn2   S    
S12   O50   D    
N2    Zn2   S    
C56   H4    S    
C80   H6    S    
C81   C85   A    
O16   Zn4   S    
C1    O1    A    
C32   C72   A    
C48   N4    A    
