data_mof_unit_61707.cif
_audit_creation_date              2013-03-05T15:45:16-0500
_audit_creation_method            fapswitch 2.2
_symmetry_space_group_name_H-M    P1
_symmetry_Int_Tables_number       1
_space_group_crystal_system       triclinic
_cell_length_a                    18.646077
_cell_length_b                    18.493996
_cell_length_c                    18.796947
_cell_angle_alpha                 109.0198
_cell_angle_beta                  109.429569
_cell_angle_gamma                 108.827672
_cell_volume                      5058.47944865

loop_
_atom_site_label
_atom_site_type_symbol
_atom_site_description
_atom_site_fract_x
_atom_site_fract_y
_atom_site_fract_z
_atom_type_partial_charge
O1    O     O_R   0.408680 0.356690 0.448550 -0.582595
O2    O     O_R   0.408070 0.460080 0.551430 -0.623744
C1    C     C_R   0.378371 0.380146 0.498366 0.952312
O3    O     O_R   0.592400 0.448290 0.540670 -0.546355
O4    O     O_R   0.591790 0.551690 0.643550 -0.545437
C2    C     C_R   0.618828 0.497518 0.620021 1.157614
Zn1   Zn    Zn3+2 0.500410 0.430960 0.431310 1.149719
Zn2   Zn    Zn3+2 0.499590 0.569040 0.568690 1.147893
O5    O     O_R   0.591930 0.539920 0.448570 -0.599020
O6    O     O_R   0.591320 0.643310 0.551450 -0.552106
O7    O     O_R   0.408210 0.448310 0.356450 -0.623982
O8    O     O_R   0.407600 0.551710 0.459330 -0.589976
C3    C     C_R   0.622424 0.620269 0.502329 1.022611
C4    C     C_R   0.379323 0.500753 0.380235 0.944129
C5    C     C_3   0.668242 0.400017 0.662738 0.992962
C6    C     C_3   0.746376 0.401827 0.728510 0.902667
C7    C     C_3   0.776195 0.550615 0.695908 -0.036278
C8    C     C_3   0.690409 0.540255 0.775200 0.944651
C9    C     C_3   0.686698 0.496145 0.686263 -0.709038
C10   C     C_3   0.808705 0.497209 0.805957 -0.701005
C11   C     C_3   0.849594 0.557533 0.771949 1.036038
C12   C     C_3   0.755095 0.530595 0.843268 0.742545
H1    H     H_    0.785952 0.617389 0.711959 0.238172
C13   C     C_R   0.218753 0.386623 0.472382 -0.318067
H2    H     H_    0.262054 0.431216 0.461375 0.174874
C14   C     C_R   0.146155 0.394564 0.469184 0.712988
C15   C     C_R   0.087252 0.338804 0.482096 0.418537
C16   C     C_R   0.100738 0.272954 0.496128 -0.296909
H3    H     H_    0.055590 0.232285 0.508397 0.226499
C17   C     C_R   0.172086 0.261352 0.495563 -0.016318
C18   C     C_R   0.233890 0.321678 0.487977 -0.056519
C19   C     C_R   0.308903 0.314669 0.495249 -0.293138
C20   C     C_R   0.320418 0.246702 0.504212 0.596525
C21   C     C_R   0.258183 0.185129 0.507374 0.546453
C22   C     C_R   0.184457 0.191881 0.503296 -0.306382
H4    H     H_    0.211268 0.401704 0.307937 0.169505
C23   C     C_R   0.424350 0.631549 0.322914 0.500198
C24   C     C_R   0.448831 0.671476 0.276591 -0.282031
H5    H     H_    0.513885 0.725059 0.307024 0.162137
C25   C     C_R   0.390438 0.640732 0.190437 0.457271
C26   C     C_R   0.304905 0.576594 0.154066 -0.094952
H6    H     H_    0.262513 0.552478 0.086662 0.196537
C27   C     C_R   0.276323 0.542097 0.202545 -0.136645
C28   C     C_R   0.339616 0.560007 0.281732 0.029435
C29   C     C_R   0.315285 0.505062 0.316226 -0.127298
C30   C     C_R   0.228955 0.444286 0.281417 -0.284099
C31   C     C_R   0.164587 0.439374 0.213909 0.666772
C32   C     C_R   0.187048 0.489865 0.175063 -0.218990
C33   C     C_R   0.799570 0.747197 0.658863 0.304627
C34   C     C_R   0.888392 0.781451 0.718606 0.366619
C35   C     C_R   0.949959 0.799469 0.691709 -0.064061
H7    H     H_    0.015922 0.816709 0.733653 0.212272
C36   C     C_R   0.927454 0.792946 0.610670 0.429652
C37   C     C_R   0.842355 0.775730 0.557836 -0.065563
C38   C     C_R   0.776105 0.736168 0.574136 -0.090594
C39   C     C_R   0.690201 0.686438 0.503398 -0.160492
C40   C     C_R   0.672176 0.688545 0.425641 0.586693
H8    H     H_    0.717650 0.758877 0.365900 0.178963
C41   C     C_R   0.734890 0.749745 0.422127 -0.287139
C42   C     C_R   0.819798 0.796969 0.490027 -0.173750
O9    O     O_R   0.946070 0.356680 0.906240 -0.599662
O10   O     O_R   0.049530 0.460050 0.906180 -0.600446
C43   C     C_R   0.000365 0.379768 0.880183 1.042416
O11   O     O_R   0.853500 0.448330 0.905250 -0.526107
O12   O     O_R   0.956960 0.551700 0.905190 -0.551435
C44   C     C_R   0.876926 0.498250 0.874591 1.175737
Zn3   Zn    Zn3+2 0.928250 0.430980 0.997370 1.186639
Zn4   Zn    Zn3+2 0.066400 0.569030 0.997290 1.169613
O13   O     O_R   0.945120 0.539960 0.088480 -0.593580
O14   O     O_R   0.048580 0.643330 0.088420 -0.562090
O15   O     O_R   0.037690 0.448310 0.089470 -0.542355
O16   O     O_R   0.141150 0.551680 0.089410 -0.649842
C45   C     C_R   0.993378 0.620238 0.114015 1.005890
C46   C     C_R   0.118547 0.495365 0.113967 0.947000
O17   O     O_R   0.051440 0.091580 0.643120 -0.602635
O18   O     O_R   0.947460 0.091580 0.539110 -0.581675
C47   C     C_R   0.995842 0.117155 0.618720 1.033252
O19   O     O_R   0.143620 0.091630 0.552020 -0.559108
O20   O     O_R   0.039640 0.091620 0.448010 -0.632815
C48   C     C_R   0.119517 0.122709 0.502073 0.950769
Zn5   Zn    Zn3+2 0.069430 0.000010 0.569460 1.131913
Zn6   Zn    Zn3+2 0.930570 0.000010 0.430560 1.047380
O21   O     O_R   0.052540 0.908440 0.460910 -0.600695
O22   O     O_R   0.948560 0.908430 0.356900 -0.618045
O23   O     O_R   0.960360 0.908390 0.552000 -0.550470
O24   O     O_R   0.856380 0.908390 0.447990 -0.632587
C49   C     C_R   0.999841 0.878691 0.381416 0.875178
C50   C     C_R   0.881306 0.873577 0.494969 0.935158
C51   C     C_R   0.022280 0.236463 0.904217 0.342403
C52   C     C_R   0.003600 0.155651 0.904147 0.200333
C53   C     C_R   0.976129 0.080889 0.828208 0.366086
C54   C     C_R   0.969244 0.087384 0.754628 0.589021
C55   C     C_R   0.987299 0.167579 0.753931 -0.267504
C56   C     C_R   0.003845 0.239487 0.825791 -0.135596
C57   C     C_R   0.003694 0.313070 0.817184 -0.146851
C58   C     C_R   0.996431 0.319040 0.742837 0.362808
C59   C     C_R   0.991860 0.252320 0.677153 0.487681
C60   C     C_R   0.988846 0.178243 0.683186 -0.189361
C61   C     C_R   0.827217 0.605061 0.110583 0.708793
C62   C     C_R   0.752803 0.592335 0.118286 -0.171988
H9    H     H_    0.689811 0.539579 0.065282 0.185939
C63   C     C_R   0.758944 0.647237 0.193467 -0.211343
H10   H     H_    0.701203 0.636389 0.199668 0.190914
C64   C     C_R   0.839126 0.717519 0.259941 -0.135749
H11   H     H_    0.841041 0.758943 0.317278 0.135056
C65   C     C_R   0.915156 0.733196 0.252575 0.032059
C66   C     C_R   0.910757 0.673365 0.179671 -0.101566
C67   C     C_R   0.990034 0.685749 0.178810 -0.237703
C68   C     C_R   0.069670 0.758467 0.246316 0.636356
H12   H     H_    0.133574 0.876892 0.364258 0.215778
C69   C     C_R   0.072020 0.819361 0.314121 -0.223816
C70   C     C_R   0.995680 0.807665 0.316629 -0.159115
F1    F     F_    0.653770 0.353351 0.580162 -0.554295
F2    F     F_    0.811099 0.611139 0.917969 -0.558861
F3    F     F_    0.899340 0.643766 0.837502 -0.566864
F4    F     F_    0.393097 0.240887 0.511344 -0.528416
F5    F     F_    0.133397 0.457477 0.454028 -0.587545
O25   O     O_3   0.016955 0.349769 0.480036 -0.655185
H13   H     H_    0.979631 0.303443 0.486905 0.382254
F6    F     F_    0.269244 0.117594 0.512811 -0.576674
F7    F     F_    0.593481 0.355995 0.664638 -0.514598
O26   O     O_3   0.479930 0.665036 0.409299 -0.733372
H14   H     H_    0.531340 0.720739 0.430130 0.347249
O27   O     O_3   0.414138 0.673630 0.140879 -0.719389
H15   H     H_    0.476534 0.718155 0.175773 0.348668
F8    F     F_    0.080626 0.384301 0.186367 -0.618372
F9    F     F_    0.593295 0.632882 0.353931 -0.674353
O28   O     O_3   0.737344 0.730858 0.683985 -0.733015
H16   H     H_    0.761277 0.779975 0.741958 0.367931
O29   O     O_3   0.917449 0.793257 0.801504 -0.665129
H17   H     H_    0.867789 0.766597 0.809725 0.390204
O30   O     O_3   0.986638 0.793585 0.581823 -0.705482
H18   H     H_    0.954950 0.764539 0.517872 0.337071
F10   F     F_    0.715661 0.342937 0.755629 -0.521422
O31   O     O_3   0.993444 0.390604 0.736242 -0.659064
H19   H     H_    0.985566 0.384013 0.679298 0.415860
O32   O     O_3   0.064801 0.313616 0.980599 -0.780649
H20   H     H_    0.101112 0.307165 0.027801 0.350458
O33   O     O_3   0.009882 0.147744 0.976305 -0.732418
H21   H     H_    0.002007 0.193714 0.012752 0.384406
O34   O     O_3   0.955100 0.999718 0.822801 -0.690081
H22   H     H_    0.962348 0.003458 0.878699 0.403172
F11   F     F_    0.937956 0.012485 0.681934 -0.635935
F12   F     F_    0.991580 0.260001 0.607644 -0.698017
F13   F     F_    0.145964 0.770047 0.247622 -0.613950
F14   F     F_    0.815094 0.552683 0.033456 -0.627177
F15   F     F_    0.791025 0.374368 0.689458 -0.582550
O35   O     O_3   0.779007 0.518662 0.618278 -0.659824
H23   H     H_    0.783138 0.464446 0.607318 0.439071
F16   F     F_    0.904594 0.534767 0.746555 -0.551531
F17   F     F_    0.717241 0.628584 0.803088 -0.586082
F18   F     F_    0.608141 0.502614 0.766509 -0.584611
O36   O     O_3   0.709345 0.470855 0.863777 -0.612132
H24   H     H_    0.685409 0.499330 0.896859 0.405226

loop_
_geom_bond_atom_site_label_1
_geom_bond_atom_site_label_2
_geom_bond_distance
_ccdc_geom_bond_type
O21   C49   1.280384 A    
C38   C39   1.419395 A    
Zn2   O6    2.014856 S    
C55   C56   1.405486 A    
C26   H6    1.080210 S    
C57   C58   1.402785 A    
C14   F5    1.356883 S    
C11   F3    1.387808 S    
C6    F10   1.388360 S    
O28   H16   0.990652 S    
C64   C65   1.415779 A    
C59   C60   1.395952 A    
C42   C50   1.458027 S    
O31   H19   0.990416 S    
C37   C42   1.425518 A    
C36   C37   1.422986 A    
C39   C40   1.403386 A    
Zn1   O7    2.019767 S    
C2    C9    1.464773 S    
C14   C15   1.392136 A    
C7    H1    1.106694 S    
C17   C22   1.419772 A    
C6    F15   1.387913 S    
C10   C44   1.469387 S    
C16   H3    1.077558 S    
C23   C24   1.406308 A    
C13   C14   1.391951 A    
C8    C9    1.569305 S    
C68   C69   1.374791 A    
C17   C18   1.405800 A    
C63   C64   1.389351 A    
O7    C4    1.282747 A    
O19   C48   1.285116 A    
O23   C50   1.273897 A    
C65   C66   1.409730 A    
C5    C6    1.547686 S    
C43   C57   1.440130 S    
C22   C48   1.437271 S    
C67   C68   1.403183 A    
C21   C22   1.399357 A    
C30   C31   1.378482 A    
C51   C56   1.422488 A    
O9    C43   1.278415 A    
C54   F11   1.356691 S    
O5    C3    1.283045 A    
O25   H13   0.991008 S    
C54   C55   1.416499 A    
C34   O29   1.381839 S    
O15   C46   1.293257 A    
H12   C69   1.084500 S    
C69   C70   1.388437 A    
O30   H18   0.992165 S    
C66   C67   1.427442 A    
C5    F1    1.387373 S    
H4    C30   1.083997 S    
C4    C29   1.431038 S    
C27   C32   1.426803 A    
C6    C10   1.568121 S    
C3    C39   1.436639 S    
C41   C42   1.391021 A    
O36   H24   0.993034 S    
C8    C12   1.544372 S    
C26   C27   1.415628 A    
C1    C19   1.427749 S    
O3    Zn1   2.034799 S    
C8    F18   1.390778 S    
C64   H11   1.080891 S    
Zn5   O21   2.026428 S    
C52   O33   1.381826 S    
C58   O31   1.385671 S    
C21   F6    1.359562 S    
C24   H5    1.083350 S    
C25   O27   1.379483 S    
O2    Zn2   2.015943 S    
O24   C50   1.304217 A    
C35   H7    1.083470 S    
O11   Zn3   2.022153 S    
C32   C46   1.464489 S    
C7    O35   1.410698 S    
O18   C47   1.281390 A    
O3    C2    1.277808 A    
O18   Zn6   2.026429 S    
C53   C54   1.394255 A    
O17   Zn5   2.011186 S    
C45   C67   1.446603 S    
C65   C70   1.408050 A    
C49   C70   1.429419 S    
H8    C41   1.083620 S    
Zn6   O24   2.010602 S    
C7    C11   1.548806 S    
O20   C48   1.281041 A    
Zn4   O16   2.022155 S    
O1    C1    1.276693 A    
O11   C44   1.276400 A    
C5    C9    1.570358 S    
C27   C28   1.405594 A    
C59   F12   1.358016 S    
O10   C43   1.278353 A    
O4    Zn2   2.019764 S    
O9    Zn3   2.017924 S    
C31   C32   1.405708 A    
Zn2   O8    2.034802 S    
O12   Zn4   2.032199 S    
C58   C59   1.386837 A    
O14   C45   1.285681 A    
C62   C63   1.386802 A    
C34   C35   1.390537 A    
C47   C60   1.438648 S    
C36   O30   1.380532 S    
C11   F16   1.389326 S    
C13   H2    1.080467 S    
O13   C45   1.276789 A    
O17   C47   1.284662 A    
O16   C46   1.278610 A    
C25   C26   1.393902 A    
C61   F14   1.347772 S    
C10   C12   1.566816 S    
O12   C44   1.281097 A    
C56   C57   1.422579 A    
Zn6   O22   2.011309 S    
C8    F17   1.390482 S    
C28   C29   1.409392 A    
C31   F8    1.358020 S    
C15   O25   1.379724 S    
Zn1   O5    2.015943 S    
C33   O28   1.375417 S    
C37   C38   1.403458 A    
C20   F4    1.359634 S    
C5    F7    1.388118 S    
O1    Zn1   2.014858 S    
C18   C19   1.411827 A    
C68   F13   1.358992 S    
O8    C4    1.273207 A    
O6    C3    1.276642 A    
C40   F9    1.356197 S    
O20   Zn6   2.020916 S    
O33   H21   0.990753 S    
O22   C49   1.280875 A    
C61   C66   1.422498 A    
O32   H20   0.990625 S    
C51   O32   1.379550 S    
C61   C62   1.395246 A    
O10   Zn4   2.019079 S    
C19   C20   1.393778 A    
C23   C28   1.419706 A    
C16   C17   1.417097 A    
O2    C1    1.276698 A    
O26   H14   0.991695 S    
C13   C18   1.414729 A    
C33   C38   1.427075 A    
O34   H22   0.989528 S    
C24   C25   1.399483 A    
O19   Zn5   2.010728 S    
C52   C53   1.407719 A    
O4    C2    1.280242 A    
C62   H9    1.082757 S    
C7    C9    1.557922 S    
C20   C21   1.372587 A    
O29   H17   0.987208 S    
Zn3   O15   2.032199 S    
O35   H23   0.989697 S    
C63   H10   1.082714 S    
C40   C41   1.377911 A    
C35   C36   1.390436 A    
C23   O26   1.380199 S    
C29   C30   1.390962 A    
C12   F2    1.392177 S    
C10   C11   1.573093 S    
Zn4   O14   2.017920 S    
C33   C34   1.423756 A    
C15   C16   1.406694 A    
Zn3   O13   2.019077 S    
C51   C52   1.420332 A    
C55   C60   1.414518 A    
Zn5   O23   2.020916 S    
O27   H15   0.991859 S    
C53   O34   1.382652 S    
C12   O36   1.408916 S    
