data_mof_unit_30456.cif
_audit_creation_date              2012-12-11T20:48:41-0500
_audit_creation_method            fapswitch 2.2
_symmetry_space_group_name_H-M    P1
_symmetry_Int_Tables_number       1
_space_group_crystal_system       triclinic
_cell_length_a                    8.511079
_cell_length_b                    18.805834
_cell_length_c                    18.87676
_cell_angle_alpha                 100.839693
_cell_angle_beta                  93.442299
_cell_angle_gamma                 91.979172
_cell_volume                      2958.87351651

loop_
_atom_site_label
_atom_site_type_symbol
_atom_type_description
_atom_site_fract_x
_atom_site_fract_y
_atom_site_fract_z
_atom_type_partial_charge
Ba1   Ba    Ba6+2 0.153490 0.533960 0.468530 1.701890
Ba2   Ba    Ba6+2 0.656680 0.466030 0.531410 1.672592
C1    C     C_3   0.290394 0.722240 0.215854 -0.279140
C2    C     C_R   0.050876 0.912801 0.590364 0.043214
C3    C     C_R   0.177304 0.944323 0.638010 -0.038675
C4    C     C_3   0.892370 0.724697 0.267103 0.211739
C5    C     C_R   0.238448 0.013603 0.635412 -0.026083
C6    C     C_R   0.172330 0.053681 0.585909 -0.022077
C7    C     C_R   0.031614 0.026954 0.545741 0.024125
C8    C     C_R   0.251453 0.115330 0.569642 -0.069823
C9    C     C_R   0.163080 0.166109 0.538080 -0.066012
C10   C     C_R   0.013204 0.141958 0.502014 -0.025514
C11   C     C_R   0.955171 0.069870 0.501645 -0.004451
C12   C     C_3   0.336484 0.693704 0.285145 0.304219
C13   C     C_R   0.218162 0.239358 0.540567 0.005010
C14   C     C_R   0.113203 0.287494 0.516346 -0.263034
C15   C     C_R   0.974300 0.263417 0.473038 0.053862
C16   C     C_3   0.844853 0.747145 0.194848 -0.249129
C17   C     C_R   0.927268 0.187379 0.462100 -0.026832
C18   C     C_R   0.837723 0.926463 0.503398 0.042120
C19   C     C_R   0.780442 0.854384 0.503131 0.040160
C20   C     C_R   0.869128 0.808632 0.540759 -0.024118
C21   C     C_R   0.002206 0.839606 0.585706 0.026393
C22   C     C_R   0.800798 0.153862 0.412582 0.139702
C23   C     C_3   0.451892 0.697779 0.676037 0.267838
C24   C     C_R   0.745465 0.081618 0.411856 0.060540
C25   C     C_R   0.820049 0.040626 0.458131 -0.018228
C26   C     C_R   0.760482 0.969429 0.459803 0.025111
C27   C     C_R   0.613915 0.049612 0.366212 -0.010415
C28   C     C_3   0.806336 0.373126 0.306592 0.218382
C29   C     C_R   0.550420 0.981636 0.371200 -0.047120
C30   C     C_R   0.621933 0.941584 0.418434 0.038540
C31   C     C_R   0.634909 0.828669 0.465026 -0.092803
C32   C     C_R   0.555801 0.874222 0.424723 -0.118554
C33   C     C_R   0.571588 0.759146 0.469766 0.076579
C34   C     C_3   0.433088 0.774458 0.718199 -0.192735
C35   C     C_R   0.662407 0.712986 0.505668 -0.066301
C36   C     C_R   0.819221 0.734226 0.533605 -0.002952
C37   C     C_2   0.614041 0.507080 0.291945 -0.211167
C38   C     C_3   0.731777 0.527435 0.241003 -0.010645
C39   C     C_2   0.666201 0.528736 0.164528 -0.014119
C40   C     C_3   0.841595 0.359410 0.226190 -0.351019
C41   C     C_2   0.513484 0.503605 0.145232 -0.087970
C42   C     C_2   0.417073 0.472867 0.198581 -0.106257
C43   C     C_1   0.472348 0.477771 0.267598 0.023292
C44   C     C_R   0.337945 0.484490 0.928950 0.464246
C45   C     C_3   0.923072 0.271570 0.684261 0.407923
C46   C     C_R   0.446448 0.496896 0.069293 0.509510
C47   C     C_R   0.386349 0.509217 0.806762 -0.104676
C48   C     C_R   0.342712 0.502240 0.732849 0.077942
C49   C     C_R   0.097562 0.440004 0.749548 0.014645
C50   C     C_R   0.144251 0.443644 0.822759 -0.129913
C51   C     C_R   0.289489 0.478140 0.851666 -0.043437
C52   C     C_3   0.959856 0.634316 0.702299 0.335077
C53   C     C_R   0.200109 0.466106 0.704234 -0.243118
C54   C     C_3   0.846829 0.655412 0.763025 -0.188502
C55   C     C_3   0.254528 0.307083 0.346953 0.453466
C56   C     C_3   0.902439 0.195819 0.703881 -0.061048
C57   C     C_3   0.215528 0.228658 0.305082 0.166037
C58   C     C_2   0.708573 0.318676 0.177126 0.942297
C59   C     C_2   0.899624 0.724153 0.814971 0.882508
C60   C     C_2   0.500135 0.667632 0.281060 0.723912
C61   C     C_2   0.498979 0.830233 0.679270 0.796677
C62   C     C_2   0.961951 0.192836 0.780040 0.907497
C63   C     C_2   0.977245 0.786408 0.320009 0.878832
C64   C     C_2   0.415399 0.103283 0.549863 0.888040
C65   C     C_2   0.774017 0.550176 0.111616 0.875390
C66   C     C_2   0.283466 0.421251 0.167783 0.917855
C67   C     C_3   0.390323 0.298326 0.715538 0.463726
C68   C     C_3   0.315838 0.246510 0.759006 -0.050077
C69   C     C_R   0.972999 0.955442 0.546602 0.030554
H1    H     H_    0.256961 0.647027 0.289054 0.086800
H2    H     H_    0.269637 0.676490 0.169086 0.127450
H3    H     H_    0.570570 0.696681 0.655770 -0.061037
H4    H     H_    0.357760 0.685293 0.631933 0.070927
H5    H     H_    0.495771 0.780814 0.772655 0.120358
H6    H     H_    0.306315 0.783565 0.725625 0.055986
H7    H     H_    0.383917 0.760320 0.204131 0.121751
H8    H     H_    0.759903 0.791048 0.203414 0.096043
H9    H     H_    0.878623 0.268154 0.626908 0.028786
H10   H     H_    0.050112 0.286400 0.688422 -0.229114
H11   H     H_    0.971324 0.157842 0.666417 0.040537
H12   H     H_    0.867989 0.411228 0.209043 0.102377
H13   H     H_    0.292343 0.326332 0.692804 -0.049975
H14   H     H_    0.232634 0.276554 0.795669 0.080752
H15   H     H_    0.249339 0.202604 0.719936 0.082455
H16   H     H_    0.230842 0.914912 0.676496 0.098061
H17   H     H_    0.337669 0.035671 0.672435 0.152771
H18   H     H_    0.147982 0.344539 0.525732 0.056458
H19   H     H_    0.067616 0.807835 0.618429 0.109530
H20   H     H_    0.553560 0.077696 0.328489 0.071433
H21   H     H_    0.445183 0.960268 0.337687 0.088563
H22   H     H_    0.442190 0.858999 0.397522 0.141290
H23   H     H_    0.950804 0.330045 0.217712 0.114023
H24   H     H_    0.786615 0.715821 0.292783 -0.034729
H25   H     H_    0.494251 0.539470 0.829328 0.106027
H26   H     H_    0.065314 0.422502 0.857557 0.117205
H27   H     H_    0.653204 0.512744 0.348633 0.085541
H28   H     H_    0.162200 0.464532 0.648149 0.059892
H29   H     H_    0.948006 0.766507 0.169422 0.113211
H30   H     H_    0.787965 0.700622 0.156159 0.182996
H31   H     H_    0.678828 0.379225 0.312689 0.012247
H32   H     H_    0.873696 0.423586 0.333463 0.073237
H33   H     H_    0.726931 0.228020 0.218648 0.279459
H34   H     H_    0.915816 0.581969 0.668288 0.083911
H35   H     H_    0.165076 0.675370 0.760232 0.213750
H36   H     H_    0.104696 0.594322 0.774884 0.128731
H37   H     H_    0.943513 0.832253 0.830490 0.325136
H38   H     H_    0.352543 0.353777 0.447742 0.194221
H39   H     H_    0.440247 0.279158 0.407306 0.228876
H40   H     H_    0.131806 0.182214 0.200825 0.193450
H41   H     H_    0.997685 0.221941 0.252489 0.168924
H42   H     H_    0.408575 0.211313 0.244146 0.266554
H43   H     H_    0.332356 0.136429 0.268641 0.168136
H44   H     H_    0.687252 0.648580 0.349318 0.255148
H45   H     H_    0.833014 0.610150 0.792855 0.072644
H46   H     H_    0.483912 0.876460 0.591432 0.314550
H47   H     H_    0.087094 0.138538 0.845406 0.318491
H48   H     H_    0.697303 0.176415 0.641356 0.226591
H49   H     H_    0.673859 0.201347 0.730629 0.262707
H50   H     H_    0.536197 0.387438 0.730392 0.214278
H51   H     H_    0.586817 0.329899 0.784836 0.243253
H52   H     H_    0.380371 0.168636 0.815806 0.215526
H53   H     H_    0.462714 0.250820 0.849846 0.214910
H54   H     H_    0.964601 0.732892 0.402219 0.259933
H55   H     H_    0.624959 0.061610 0.570533 0.306748
H56   H     H_    0.730498 0.664060 0.739000 0.081667
H57   H     H_    0.750124 0.159717 0.308080 0.150684
H58   H     H_    0.615803 0.196122 0.366375 0.216752
H59   H     H_    0.635881 0.630188 0.561908 0.162890
H60   H     H_    0.478149 0.654758 0.531334 0.170465
H61   H     H_    0.995210 0.553898 0.079119 0.331910
H62   H     H_    0.198926 0.317575 0.142688 0.322184
H63   H     H_    0.143668 0.335384 0.355507 0.021720
H64   H     H_    0.184121 0.753390 0.221669 0.142840
H65   H     H_    0.152331 0.198587 0.341349 0.045534
N1    N     N_R   0.358261 0.550604 0.972945 -0.212321
N2    N     N_3   0.491104 0.353753 0.763028 -0.491986
N3    N     N_3   0.433497 0.214322 0.801355 -0.468534
N4    N     N_3   0.735386 0.190709 0.359130 -0.464773
N5    N     N_3   0.591029 0.644949 0.514988 -0.410909
N6    N     N_R   0.409986 0.556649 0.042035 -0.182576
N7    N     N_R   0.424281 0.430726 0.025413 -0.184990
N8    N     N_R   0.370369 0.424595 0.956606 -0.214691
N9    N     N_3   0.115933 0.624752 0.734340 -0.506083
N10   N     N_3   0.332509 0.302284 0.416194 -0.542369
N11   N     N_3   0.114153 0.228385 0.239540 -0.485580
N12   N     N_3   0.360689 0.191676 0.286843 -0.504890
N13   N     N_3   0.738607 0.168958 0.692637 -0.449708
O1    O     O_2   0.117290 0.676350 0.548250 -0.458802
O2    O     O_2   0.777931 0.461591 0.752069 -0.494250
O3    O     O_3   0.840237 0.323535 0.729495 -0.577577
O4    O     O_3   0.869060 0.586940 0.542720 -0.489053
O5    O     O_3   0.438990 0.460930 0.412890 -0.487100
O6    O     O_2   0.623700 0.539890 0.674570 -0.484874
O7    O     O_3   0.440658 0.649155 0.723270 -0.641413
O8    O     O_2   0.552164 0.244558 0.528994 -0.440432
O9    O     O_3   0.478885 0.258998 0.661814 -0.610576
O10   O     O_3   0.356990 0.628630 0.417250 -0.432753
O11   O     O_2   0.245018 0.756907 0.479032 -0.416515
O12   O     O_3   0.355852 0.343438 0.308238 -0.595006
O13   O     O_3   0.970463 0.691043 0.663489 -0.612734
O14   O     O_3   0.322919 0.750217 0.345087 -0.618694
O15   O     O_2   0.186600 0.460070 0.325400 -0.478915
O16   O     O_3   0.942970 0.591450 0.378940 -0.505134
O17   O     O_2   0.047146 0.535033 0.256588 -0.409115
O18   O     O_2   0.642964 0.347372 0.131345 -0.550826
O19   O     O_R   0.661407 0.247830 0.181102 -0.704287
O20   O     O_2   0.934802 0.722387 0.878371 -0.585898
O21   O     O_R   0.906490 0.789900 0.790642 -0.712792
O22   O     O_2   0.567031 0.663072 0.225242 -0.674093
O23   O     O_3   0.986244 0.663381 0.254498 -0.619185
O24   O     O_R   0.570598 0.645001 0.340855 -0.786963
O25   O     O_2   0.607569 0.871988 0.708036 -0.558168
O26   O     O_R   0.435254 0.834405 0.610414 -0.785496
O27   O     O_2   0.927415 0.239121 0.831042 -0.573559
O28   O     O_R   0.053158 0.135291 0.792251 -0.760651
O29   O     O_2   0.017425 0.842751 0.301344 -0.592264
O30   O     O_R   0.004191 0.781112 0.392167 -0.702538
O31   O     O_2   0.451937 0.112702 0.490583 -0.617195
O32   O     O_R   0.520988 0.071882 0.593409 -0.762199
O33   O     O_2   0.724657 0.580500 0.063489 -0.588787
O34   O     O_2   0.693010 0.323600 0.451730 -0.450958
O35   O     O_R   0.933644 0.536130 0.117268 -0.686998
O36   O     O_2   0.168128 0.442811 0.138058 -0.565228
O37   O     O_R   0.294637 0.347392 0.168002 -0.696766
O38   O     O_3   0.941240 0.413050 0.457220 -0.499938
O39   O     O_3   0.453310 0.371360 0.582690 -0.482162
O40   O     O_3   0.851703 0.313853 0.336423 -0.636466
O41   O     O_3   0.371310 0.539060 0.587050 -0.482542
O42   O     O_3   0.867330 0.408540 0.621000 -0.483401
P1    P     P_3+3 0.945300 0.665790 0.568510 1.002768
P2    P     P_3+3 0.360080 0.438780 0.334620 1.015039
P3    P     P_3+3 0.914934 0.584532 0.283920 0.975568
P4    P     P_3+3 0.865000 0.334200 0.431430 0.999551
P5    P     P_3+3 0.896182 0.409351 0.713581 0.973305
P6    P     P_3+3 0.371017 0.724281 0.428713 1.057365
P7    P     P_3+3 0.444288 0.558296 0.678583 0.957165
P8    P     P_3+3 0.421893 0.277862 0.576858 0.961027

loop_
_geom_bond_atom_site_label_1
_geom_bond_atom_site_label_2
_ccdc_geom_bond_type
H48   N13   S    
N1    N6    A    
Ba2   O6    S    
H37   O21   S    
C50   H26   S    
H53   N3    S    
O23   P3    S    
H38   N10   S    
C32   H22   S    
O16   P3    S    
O13   P1    S    
C48   P7    S    
C5    C6    A    
C39   C65   S    
C4    O23   S    
C22   N4    S    
C60   O22   D    
C33   P6    S    
H49   N13   S    
C58   O19   S    
H35   N9    S    
C35   N5    S    
H42   N12   S    
C33   C35   A    
C22   C24   A    
Ba1   Ba2   S    
C34   H6    S    
C56   H11   S    
H36   N9    S    
C55   C57   S    
C19   C31   A    
C63   O29   D    
C13   C14   A    
C12   C60   S    
H52   N3    S    
C57   H65   S    
Ba1   O10   S    
C45   O3    S    
C10   C17   A    
Ba2   P4    S    
C28   O40   S    
C12   O14   S    
H59   N5    S    
C7    C11   A    
Ba2   O38   S    
C34   H5    S    
C15   C17   A    
O42   P5    S    
O5    P2    S    
C9    C13   A    
C4    C63   S    
C29   C30   A    
Ba1   O15   S    
C16   H8    S    
C28   H32   S    
H54   O30   S    
O34   P4    D    
C18   C69   A    
C62   O27   D    
C34   C61   S    
C41   C46   S    
C49   C53   A    
H60   N5    S    
C56   N13   S    
C37   C43   D    
Ba1   O41   S    
H46   O26   S    
C8    C64   S    
C66   O37   S    
C14   H18   S    
Ba2   O5    S    
C55   N10   S    
C23   O7    S    
C56   C62   S    
C39   C41   D    
C67   C68   S    
C16   H29   S    
C45   H9    S    
C28   C40   S    
O9    P8    S    
Ba1   O38   S    
C43   P2    S    
C4    C16   S    
C52   C54   S    
C58   O18   D    
O3    P5    S    
O12   P2    S    
C49   C50   A    
C7    C69   A    
C26   C30   A    
Ba2   O42   S    
H51   N2    S    
C65   O35   S    
C40   C58   S    
C37   C38   S    
C3    C5    A    
C2    C21   A    
O15   P2    D    
C6    C7    A    
C37   H27   S    
C38   P3    S    
C63   O30   S    
O39   P8    S    
C60   O24   S    
C64   O31   D    
C54   H56   S    
C46   N7    A    
C23   H4    S    
C16   H30   S    
C30   C32   A    
H50   N2    S    
Ba1   P2    S    
C41   C42   S    
Ba1   P1    S    
C35   C36   A    
C65   O33   D    
H40   N11   S    
H33   O19   S    
O2    P5    D    
C13   P8    S    
O40   P4    S    
C5    H17   S    
Ba1   O16   S    
C28   H31   S    
C67   O9    S    
C54   H45   S    
C21   H19   S    
C46   N6    A    
Ba1   O1    S    
C4    H24   S    
C52   O13   S    
Ba1   O4    S    
O6    P7    D    
C1    C12   S    
H62   O37   S    
C44   N1    A    
C6    C8    A    
C38   C39   S    
C64   O32   S    
C66   O36   D    
C29   H21   S    
Ba2   O4    S    
C36   P1    S    
C52   N9    S    
C24   C25   A    
C55   H63   S    
C15   P4    S    
C59   O20   D    
C68   H15   S    
C27   H20   S    
C50   C51   A    
O41   P7    S    
C61   O25   D    
C67   N2    S    
C52   H34   S    
O38   P4    S    
C40   H23   S    
C12   H1    S    
C20   C21   A    
O7    P7    S    
C42   C43   D    
Ba2   O41   S    
C2    C3    A    
C44   N8    A    
C9    C10   A    
C61   O26   S    
O11   P6    D    
C18   C26   A    
C48   C53   A    
H41   N11   S    
C49   P5    S    
C23   H3    S    
C17   C22   A    
C40   H12   S    
H43   N12   S    
H44   O24   S    
C67   H13   S    
H39   N10   S    
C57   N12   S    
C45   C56   S    
C62   O28   S    
C1    H7    S    
C14   C15   A    
H58   N4    S    
C47   C51   A    
O17   P3    D    
C44   C51   S    
C31   C33   A    
C31   C32   A    
C1    H64   S    
Ba2   O34   S    
C45   H10   S    
C47   H25   S    
H57   N4    S    
Ba1   O5    S    
C1    H2    S    
Ba2   O39   S    
C42   C66   S    
C8    C9    A    
C23   C34   S    
O1    P1    D    
C10   C11   A    
C3    H16   S    
H47   O28   S    
C68   N3    S    
C55   O12   S    
C18   C19   A    
O14   P6    S    
C24   C27   A    
C27   C29   A    
C47   C48   A    
O10   P6    S    
C53   H28   S    
C25   C26   A    
C54   C59   S    
C11   C25   A    
H55   O32   S    
C59   O21   S    
O8    P8    D    
C19   C20   A    
C68   H14   S    
C2    C69   A    
H61   O35   S    
N7    N8    A    
C57   N11   S    
O4    P1    S    
C20   C36   A    
