data_mof_unit_36414.cif
_audit_creation_date              2012-12-10T17:13:35-0500
_audit_creation_method            fapswitch 2.2
_symmetry_space_group_name_H-M    P1
_symmetry_Int_Tables_number       1
_space_group_crystal_system       triclinic
_cell_length_a                    10.744102
_cell_length_b                    13.005311
_cell_length_c                    11.67737
_cell_angle_alpha                 99.604034
_cell_angle_beta                  93.755564
_cell_angle_gamma                 91.111273
_cell_volume                      1604.59683429

loop_
_atom_site_label
_atom_site_type_symbol
_atom_type_description
_atom_site_fract_x
_atom_site_fract_y
_atom_site_fract_z
_atom_type_partial_charge
C1    C     C_R   0.498643 0.299372 0.478842 0.807979
C2    C     C_3   0.878427 0.495965 0.500238 0.119197
C3    C     C_3   0.928037 0.594926 0.458169 -0.421935
C4    C     C_3   0.920761 0.397718 0.417486 -0.149915
C5    C     C_R   0.500672 0.814146 0.532125 -0.155798
C6    C     C_R   0.502599 0.186644 0.466644 -0.038524
C7    C     C_R   0.556709 0.021592 0.356631 -0.181168
C8    C     C_R   0.545404 0.128561 0.365694 -0.187537
C9    C     C_R   0.467185 0.137082 0.557375 -0.239506
C10   C     C_R   0.477250 0.029577 0.548717 0.119347
C11   C     C_R   0.524863 0.971363 0.448519 0.068658
C12   C     C_R   0.259818 0.498325 0.500269 0.765279
C13   C     C_R   0.542179 0.864243 0.442860 0.368378
C14   C     C_R   0.452607 0.872539 0.630577 -0.273675
C15   C     C_R   0.442288 0.979838 0.639454 -0.216762
C16   C     C_R   0.374002 0.409276 0.022200 -0.440367
C17   C     C_R   0.388201 0.414210 0.144521 0.657940
C18   C     C_R   0.555387 0.538673 0.156463 -0.050750
C19   C     C_R   0.546386 0.533096 0.033827 0.064702
C20   C     C_R   0.454145 0.467570 0.966183 0.014907
C21   C     C_R   0.444110 0.462061 0.843689 0.050571
C22   C     C_R   0.613271 0.583511 0.855062 0.080270
C23   C     C_R   0.502983 0.700867 0.521006 0.825121
C24   C     C_R   0.626294 0.591663 0.977077 -0.307517
C25   C     C_R   0.740254 0.498804 0.499838 0.758011
C26   C     C_3   0.080560 0.496749 0.625766 -0.377928
C27   C     C_3   0.937954 0.496375 0.625667 -0.362842
C28   C     C_3   0.071181 0.594357 0.456064 -0.378247
C29   C     C_3   0.065336 0.397550 0.420493 -0.403445
C30   C     C_3   0.122135 0.496740 0.500815 0.136187
Cu1   Cu    Cu3+1 0.509350 0.507730 0.615930 0.929443
Cu2   Cu    Cu3+1 0.490650 0.492270 0.384070 0.983557
H1    H     H_    0.120093 0.567093 0.685761 0.175378
H2    H     H_    0.883963 0.401234 0.326903 0.132164
H3    H     H_    0.097561 0.594939 0.365551 0.180525
H4    H     H_    0.885970 0.599249 0.369584 0.173853
H5    H     H_    0.421300 0.834902 0.700096 0.176882
H6    H     H_    0.591732 0.978786 0.278228 0.176379
H7    H     H_    0.405422 0.023675 0.716454 0.143504
H8    H     H_    0.573838 0.166271 0.295233 0.147157
H9    H     H_    0.432418 0.182225 0.634790 0.138026
H10   H     H_    0.373540 0.411396 0.790942 0.110196
H11   H     H_    0.115904 0.426865 0.659624 0.163503
H12   H     H_    0.675547 0.628710 0.812225 0.118400
H13   H     H_    0.299903 0.361310 0.971252 0.140311
H14   H     H_    0.698337 0.643211 0.026338 0.138104
H15   H     H_    0.624819 0.589565 0.209634 0.163937
H16   H     H_    0.904521 0.426951 0.660481 0.181233
H17   H     H_    0.909995 0.566745 0.685488 0.163987
H18   H     H_    0.112735 0.666467 0.511361 0.154799
H19   H     H_    0.901792 0.665502 0.518260 0.151954
H20   H     H_    0.094356 0.395274 0.330398 0.203795
H21   H     H_    0.103105 0.327019 0.451420 0.154280
N1    N     N_R   0.523430 0.519360 0.790130 -0.180604
N2    N     N_R   0.476570 0.480640 0.209880 -0.216503
O1    O     O_R   0.506640 0.354460 0.582000 -0.586888
O2    O     O_R   0.490840 0.341410 0.386200 -0.565859
O3    O     O_R   0.325590 0.506510 0.597900 -0.604373
O4    O     O_R   0.309790 0.493450 0.402100 -0.538380
O5    O     O_R   0.509160 0.658590 0.613800 -0.598773
O6    O     O_R   0.493360 0.645540 0.418000 -0.536738
O7    O     O_R   0.690210 0.506550 0.597900 -0.593737
O8    O     O_R   0.674410 0.493490 0.402100 -0.600524
O9    O     O_3   0.602864 0.809515 0.351711 -0.577906
C31   C     C_3   0.732803 0.819665 0.381694 0.058785
H22   H     H_    0.758507 0.766931 0.444242 0.129221
H23   H     H_    0.763359 0.900996 0.421791 0.145875
C32   C     C_3   0.804127 0.790801 0.273148 -0.816762
H24   H     H_    0.775610 0.840461 0.207857 0.246392
H25   H     H_    0.905855 0.803070 0.296372 0.206873
H26   H     H_    0.786047 0.707802 0.234528 0.225766
O10   O     O_3   0.306188 0.359489 0.200630 -0.567318
C33   C     C_3   0.312552 0.251080 0.160585 0.049743
H27   H     H_    0.410790 0.225331 0.164733 0.137847
H28   H     H_    0.270845 0.229469 0.069915 0.127951
C34   C     C_3   0.238224 0.192274 0.237006 -0.781109
H29   H     H_    0.137768 0.209901 0.226961 0.232860
H30   H     H_    0.249066 0.106994 0.211012 0.206182
H31   H     H_    0.271792 0.215402 0.329791 0.245531
C35   C     C_1   0.870831 0.299506 0.447141 0.199564
N3    N     N_1   0.831923 0.222607 0.470494 -0.299109

loop_
_geom_bond_atom_site_label_1
_geom_bond_atom_site_label_2
_ccdc_geom_bond_type
C27   H16   S    
C33   H27   S    
C19   C20   A    
C34   H31   S    
C18   H15   S    
C6    C9    A    
C7    C8    A    
C22   N1    A    
C7    C11   A    
C26   C27   S    
Cu1   O3    S    
C3    C28   S    
C1    O1    A    
C34   H30   S    
Cu2   O6    S    
C4    C35   S    
C10   C15   A    
C21   N1    A    
C35   N3    T    
C18   C19   A    
C25   O8    A    
C12   O4    A    
C28   H18   S    
C22   H12   S    
C28   H3    S    
C16   C17   A    
C31   H23   S    
C2    C27   S    
Cu1   O1    S    
C9    C10   A    
C17   N2    A    
Cu2   N2    S    
C5    C13   A    
C4    C29   S    
C12   O3    A    
C33   H28   S    
Cu1   O7    S    
Cu2   O2    S    
C26   H11   S    
C23   O5    A    
C4    H2    S    
C1    C6    S    
C34   H29   S    
C3    H19   S    
C32   H24   S    
C6    C8    A    
Cu1   O5    S    
C2    C4    S    
C29   C30   S    
C1    O2    A    
C26   H1    S    
Cu1   Cu2   S    
C5    C23   S    
C16   C20   A    
C31   C32   S    
C15   H7    S    
C5    C14   A    
C18   N2    A    
C26   C30   S    
C33   C34   S    
C22   C24   A    
C12   C30   S    
Cu2   O8    S    
O10   C33   S    
C16   H13   S    
C9    H9    S    
C24   H14   S    
O9    C31   S    
C28   C30   S    
C2    C3    S    
C14   H5    S    
C11   C13   A    
C13   O9    S    
C29   H21   S    
C3    H4    S    
C32   H26   S    
C7    H6    S    
C19   C24   A    
C2    C25   S    
C25   O7    A    
Cu1   N1    S    
C10   C11   A    
C21   H10   S    
C23   O6    A    
C20   C21   A    
C17   O10   S    
C32   H25   S    
C31   H22   S    
C14   C15   A    
C8    H8    S    
Cu2   O4    S    
C27   H17   S    
C29   H20   S    
