data_mof_unit_10379.cif
_audit_creation_date              2013-03-05T16:47:55-0500
_audit_creation_method            fapswitch 2.2
_symmetry_space_group_name_H-M    P1
_symmetry_Int_Tables_number       1
_space_group_crystal_system       triclinic
_cell_length_a                    8.114165
_cell_length_b                    8.930524
_cell_length_c                    16.716464
_cell_angle_alpha                 90.008694
_cell_angle_beta                  86.982615
_cell_angle_gamma                 90.000288
_cell_volume                      1209.65818735

loop_
_atom_site_label
_atom_site_type_symbol
_atom_site_description
_atom_site_fract_x
_atom_site_fract_y
_atom_site_fract_z
_atom_type_partial_charge
O1    O     O_R   0.363150 0.714660 0.500000 -0.607652
O2    O     O_R   0.636850 0.285340 0.500000 -0.621680
O3    O     O_R   0.636850 0.714660 0.500000 -0.602659
O4    O     O_R   0.363150 0.285340 0.500000 -0.620893
C1    C     C_R   0.499999 0.781983 0.500027 0.947599
C2    C     C_R   0.500001 0.218016 0.500010 0.912145
O5    O     O_R   0.346950 0.500000 0.615800 -0.571868
O6    O     O_R   0.653050 0.500000 0.384200 -0.575652
O7    O     O_R   0.620700 0.500000 0.615800 -0.624123
O8    O     O_R   0.379300 0.500000 0.384200 -0.621602
C3    C     C_R   0.479727 0.492315 0.653870 0.947297
C4    C     C_R   0.520289 0.500697 0.346000 0.948691
Zn1   Zn    Zn3+2 0.317220 0.500000 0.500010 1.053337
Zn2   Zn    Zn3+2 0.682780 0.500000 0.499990 1.053278
N1    N     N_1   0.926360 0.500000 0.499990 0.003046
N2    N     N_1   0.073640 0.500000 0.500010 0.002808
C5    C     C_R   0.472476 0.437689 0.736727 -0.291437
C6    C     C_R   0.528394 0.481592 0.259042 -0.277306
C7    C     C_R   0.613987 0.367881 0.764040 -0.265213
C8    C     C_R   0.389842 0.422322 0.223800 -0.294133
C9    C     C_R   0.609765 0.293135 0.836730 0.507971
C10   C     C_R   0.396328 0.380895 0.143289 0.536558
C11   C     C_R   0.463226 0.292401 0.885177 -0.182417
C12   C     C_R   0.543666 0.404262 0.096708 -0.146925
C13   C     C_R   0.317394 0.354176 0.857103 0.187259
C14   C     C_R   0.683382 0.465263 0.131402 0.154205
C15   C     C_R   0.322322 0.429622 0.783189 0.212534
C16   C     C_R   0.675506 0.506392 0.212369 0.223190
C17   C     C_2   0.475989 0.275136 0.971495 -0.041424
C18   C     C_2   0.547960 0.387362 0.009437 -0.008870
C19   C     C_1   0.500004 0.934804 0.500038 -0.157909
C20   C     C_1   0.500001 0.065205 0.500036 -0.164243
H1    H     H_    0.728962 0.368249 0.728197 0.244162
H2    H     H_    0.275714 0.406777 0.259225 0.224097
H3    H     H_    0.609890 0.475526 0.974308 0.182325
H4    H     H_    0.413862 0.183624 0.003213 0.188287
N3    N     N_R   0.167437 0.349577 0.906347 0.282790
O9    O     O_R   0.119109 0.224325 0.939637 -0.340874
O10   O     O_R   0.077042 0.469103 0.916461 -0.239863
N4    N     N_R   0.835232 0.480741 0.084528 0.250491
O11   O     O_R   0.899021 0.364250 0.048169 -0.271281
O12   O     O_R   0.913537 0.607918 0.080981 -0.291500
O13   O     O_3   0.254933 0.333262 0.107662 -0.536539
C21   C     C_3   0.196290 0.199368 0.144128 -0.138117
H5    H     H_    0.124261 0.223328 0.201001 0.176754
H6    H     H_    0.297613 0.118451 0.154485 0.112483
H7    H     H_    0.111490 0.144041 0.103440 0.238365
O14   O     O_3   0.755249 0.237406 0.864300 -0.527872
C22   C     C_3   0.755751 0.080746 0.854085 -0.119917
H8    H     H_    0.746716 0.049818 0.789910 0.136950
H9    H     H_    0.654785 0.026743 0.891377 0.139096
H10   H     H_    0.874350 0.035945 0.873945 0.229804
N5    N     N_R   0.816631 0.572955 0.246562 0.252212
O15   O     O_R   0.957431 0.502972 0.243879 -0.365250
O16   O     O_R   0.805657 0.705699 0.278524 -0.369670
N6    N     N_R   0.175316 0.497940 0.756078 0.253087
O17   O     O_R   0.171436 0.641210 0.742139 -0.365878
O18   O     O_R   0.043533 0.417814 0.747641 -0.358056

loop_
_geom_bond_atom_site_label_1
_geom_bond_atom_site_label_2
_geom_bond_distance
_ccdc_geom_bond_type
C2    C20   1.364680 S    
O7    Zn2   1.974567 S    
C17   C18   1.336633 D    
C13   C15   1.406157 A    
C14   C16   1.400608 A    
C19   C20   1.164554 T    
C21   H7    1.108759 S    
O6    C4    1.280889 A    
C16   N5    1.435320 S    
C22   H10   1.109072 S    
C8    H2    1.081575 S    
C9    O14   1.382383 S    
C22   H9    1.112970 S    
N4    O12   1.301232 A    
N3    O10   1.301108 A    
N5    O15   1.300947 A    
N6    O17   1.301231 A    
O5    C3    1.281656 A    
O7    C3    1.281225 A    
C17   H4    1.084033 S    
C14   N4    1.431655 S    
O2    C2    1.262730 A    
O3    Zn2   1.952917 S    
O8    C4    1.280492 A    
C18   H3    1.089197 S    
O1    C1    1.262751 A    
C11   C17   1.460259 S    
O14   C22   1.409391 S    
C7    C9    1.385330 A    
N3    O9    1.300716 A    
N6    O18   1.300458 A    
C12   C18   1.465209 S    
N5    O16   1.301360 A    
O13   C21   1.413334 S    
O2    Zn2   1.952914 S    
C10   C12   1.407557 A    
O1    Zn1   1.952913 S    
N1    N2    1.195072 T    
C5    C15   1.411820 A    
O3    C1    1.262735 A    
O5    Zn1   1.963134 S    
C11   C13   1.408311 A    
C6    C16   1.408778 A    
C21   H5    1.110265 S    
C6    C8    1.400275 A    
O4    C2    1.262760 A    
C22   H8    1.113862 S    
C7    H1    1.081900 S    
Zn1   N2    1.976448 S    
C4    C6    1.461621 S    
O4    Zn1   1.952918 S    
Zn2   N1    1.976448 S    
N4    O11   1.298579 A    
O6    Zn2   1.963135 S    
C21   H6    1.114957 S    
C5    C7    1.403875 A    
C15   N6    1.434397 S    
C9    C11   1.402987 A    
O8    Zn1   1.974567 S    
C3    C5    1.466807 S    
C10   O13   1.387011 S    
C8    C10   1.394048 A    
C1    C19   1.364769 S    
C12   C14   1.409776 A    
C13   N3    1.433331 S    
