data_mof_unit_25218.cif
_audit_creation_date              2012-12-10T16:47:49-0500
_audit_creation_method            fapswitch 2.2
_symmetry_space_group_name_H-M    P1
_symmetry_Int_Tables_number       1
_space_group_crystal_system       triclinic
_cell_length_a                    7.819961
_cell_length_b                    8.58273
_cell_length_c                    10.628032
_cell_angle_alpha                 91.295317
_cell_angle_beta                  86.478264
_cell_angle_gamma                 93.011767
_cell_volume                      710.852687392

loop_
_atom_site_label
_atom_site_type_symbol
_atom_type_description
_atom_site_fract_x
_atom_site_fract_y
_atom_site_fract_z
_atom_type_partial_charge
C1    C     C_R   0.544559 0.794254 0.502124 0.939199
C2    C     C_2   0.564441 0.957772 0.500453 -0.366417
C3    C     C_3   0.279393 0.993183 0.625425 -0.800206
C4    C     C_3   0.982596 0.604448 0.652100 -0.461214
C5    C     C_2   0.434789 0.046708 0.541127 0.020329
C6    C     C_R   0.503786 0.502586 0.737091 0.883710
C7    C     C_R   0.455593 0.206552 0.511746 0.953602
C8    C     C_R   0.494658 0.485388 0.263258 0.971505
C9    C     C_2   0.607954 0.392499 0.058642 0.388114
C10   C     C_2   0.477890 0.443343 0.133524 -0.306943
C11   C     C_2   0.584201 0.385645 0.923207 0.256983
C12   C     C_2   0.516940 0.507671 0.870057 0.198069
H1    H     H_    0.352901 0.457102 0.096502 0.146270
H2    H     H_    0.085720 0.676740 0.695417 0.176938
H3    H     H_    0.878633 0.683415 0.639818 0.207313
H4    H     H_    0.944510 0.508281 0.717764 0.209412
H5    H     H_    0.681643 0.005012 0.451779 0.161290
H6    H     H_    0.012426 0.401742 0.391945 0.194366
H7    H     H_    0.843999 0.333913 0.033853 0.334498
H8    H     H_    0.664923 0.175556 0.907649 0.342280
H9    H     H_    0.436808 0.718862 0.880158 0.326978
H10   H     H_    0.221815 0.093162 0.677521 0.237472
H11   H     H_    0.179058 0.936122 0.568009 0.253254
H12   H     H_    0.317177 0.912550 0.697975 0.229069
N1    N     N_2   0.950320 0.457950 0.466680 -0.118009
N2    N     N_2   0.049680 0.542050 0.533320 -0.049461
O1    O     O_R   0.389250 0.738570 0.508180 -0.598838
O2    O     O_3   0.630533 0.256684 0.850638 -0.793147
O3    O     O_3   0.478567 0.642300 0.938237 -0.810802
O4    O     O_R   0.678390 0.711630 0.486820 -0.637235
O5    O     O_R   0.355470 0.513470 0.691600 -0.641923
O6    O     O_R   0.644610 0.486520 0.670240 -0.611904
O7    O     O_R   0.321610 0.288370 0.513180 -0.629898
O8    O     O_R   0.610750 0.261430 0.491820 -0.617408
O9    O     O_R   0.355390 0.513480 0.329760 -0.639514
O10   O     O_R   0.644530 0.486530 0.308400 -0.541909
O11   O     O_3   0.761332 0.355260 0.105904 -0.748848
Zn1   Zn    Zn3+2 0.306940 0.517990 0.514260 0.949730
Zn2   Zn    Zn3+2 0.693060 0.482010 0.485740 0.993297

loop_
_geom_bond_atom_site_label_1
_geom_bond_atom_site_label_2
_ccdc_geom_bond_type
C4    H4    S    
C6    O6    A    
C11   C12   D    
C12   O3    S    
C9    C11   S    
C9    C10   D    
C3    H11   S    
O7    Zn1   S    
O5    Zn1   S    
C4    H3    S    
C9    O11   S    
C6    O5    A    
N1    Zn2   S    
C2    H5    S    
C4    H2    S    
C7    O7    A    
C3    H12   S    
H6    N1    S    
C11   O2    S    
C1    O4    A    
O4    Zn2   S    
C5    C7    S    
C6    C12   S    
C7    O8    A    
C4    N2    S    
C2    C5    D    
O1    Zn1   S    
O8    Zn2   S    
H8    O2    S    
O9    Zn1   S    
C8    C10   S    
C1    C2    S    
C8    O10   A    
O6    Zn2   S    
C1    O1    A    
N2    Zn1   S    
C3    H10   S    
H7    O11   S    
N1    N2    D    
H9    O3    S    
C8    O9    A    
O10   Zn2   S    
C3    C5    S    
C10   H1    S    
