data_mof_unit_66940.cif
_audit_creation_date              2013-03-05T15:57:29-0500
_audit_creation_method            fapswitch 2.2
_symmetry_space_group_name_H-M    P1
_symmetry_Int_Tables_number       1
_space_group_crystal_system       triclinic
_cell_length_a                    17.317025
_cell_length_b                    18.722089
_cell_length_c                    8.385631
_cell_angle_alpha                 90.0644
_cell_angle_beta                  102.352434
_cell_angle_gamma                 89.905571
_cell_volume                      2655.77077103

loop_
_atom_site_label
_atom_site_type_symbol
_atom_site_description
_atom_site_fract_x
_atom_site_fract_y
_atom_site_fract_z
_atom_type_partial_charge
P1    P     P_3+3 0.834140 0.419320 0.003900 0.460433
P2    P     P_3+3 0.834140 0.580680 0.503900 0.449407
P3    P     P_3+3 0.334140 0.919320 0.003900 0.459819
P4    P     P_3+3 0.334140 0.080680 0.503900 0.445331
O1    O     O_2   0.841960 0.394640 0.833410 -0.388771
O2    O     O_2   0.841960 0.605360 0.333410 -0.366961
O3    O     O_2   0.341960 0.894640 0.833410 -0.388845
O4    O     O_2   0.341960 0.105360 0.333410 -0.369009
O5    O     O_3   0.907950 0.463080 0.102990 -0.385848
O6    O     O_3   0.907950 0.536920 0.602990 -0.409135
O7    O     O_3   0.407950 0.963080 0.102990 -0.377963
O8    O     O_3   0.407950 0.036920 0.602990 -0.405361
O9    O     O_3   0.972780 0.329600 0.629720 -0.402191
O10   O     O_3   0.972780 0.670400 0.129720 -0.393377
O11   O     O_3   0.472780 0.829600 0.629720 -0.393788
O12   O     O_3   0.472780 0.170400 0.129720 -0.392078
O13   O     O_2   0.851176 0.266708 0.707342 -0.382982
O14   O     O_2   0.851243 0.737359 0.201514 -0.417259
O15   O     O_2   0.349468 0.769271 0.706837 -0.403049
O16   O     O_2   0.352262 0.236424 0.205436 -0.408440
O17   O     O_3   0.751475 0.475676 0.967826 -0.568866
O18   O     O_3   0.751219 0.524941 0.459544 -0.570244
O19   O     O_3   0.251326 0.975337 0.965513 -0.568354
O20   O     O_3   0.250670 0.025648 0.461694 -0.582194
O21   O     O_3   0.962275 0.184033 0.640481 -0.443908
O22   O     O_3   0.961330 0.817865 0.118340 -0.474674
O23   O     O_3   0.459243 0.684502 0.643746 -0.451502
O24   O     O_3   0.463582 0.316981 0.132668 -0.460844
H1    H     H_    0.071285 0.234615 0.696877 0.127063
H2    H     H_    0.071197 0.780650 0.232990 0.152759
H3    H     H_    0.571137 0.728555 0.677429 0.112584
H4    H     H_    0.574726 0.275340 0.219542 0.143584
C1    C     C_3   0.085206 0.125886 0.633606 -0.915622
C2    C     C_3   0.083451 0.871342 0.082277 -1.014460
C3    C     C_3   0.573540 0.618086 0.612641 -0.895137
C4    C     C_3   0.582347 0.374055 0.093132 -0.965713
H5    H     H_    0.633788 0.623634 0.588857 0.198729
H6    H     H_    0.647259 0.366361 0.123095 0.217232
H7    H     H_    0.144159 0.134415 0.606243 0.191519
H8    H     H_    0.148056 0.862827 0.114185 0.226242
H9    H     H_    0.092144 0.107469 0.761173 0.299974
H10   H     H_    0.069979 0.916205 0.156732 0.309149
H11   H     H_    0.577303 0.596756 0.737111 0.289035
H12   H     H_    0.566559 0.415276 0.175033 0.308142
P5    P     P_3+3 0.165830 0.418670 0.685610 0.513688
P6    P     P_3+3 0.165830 0.581330 0.185610 0.511729
P7    P     P_3+3 0.665830 0.918670 0.685610 0.479563
P8    P     P_3+3 0.665830 0.081330 0.185610 0.478251
P9    P     P_3+3 0.101916 0.264989 0.106186 0.442781
P10   P     P_3+3 0.103456 0.733630 0.609633 0.430733
P11   P     P_3+3 0.605449 0.768299 0.106000 0.446962
P12   P     P_3+3 0.606449 0.230647 0.608104 0.436038
O25   O     O_2   0.157990 0.394030 0.856030 -0.388530
O26   O     O_2   0.157990 0.605970 0.356030 -0.385733
O27   O     O_2   0.657990 0.894030 0.856030 -0.391910
O28   O     O_2   0.657990 0.105970 0.356030 -0.386787
O29   O     O_3   0.027110 0.329490 0.059550 -0.358347
O30   O     O_3   0.027110 0.670510 0.559550 -0.374419
O31   O     O_3   0.527110 0.829490 0.059550 -0.388285
O32   O     O_3   0.527110 0.170510 0.559550 -0.385762
O33   O     O_2   0.162255 0.281521 0.000833 -0.407652
O34   O     O_2   0.160174 0.722953 0.492967 -0.419409
O35   O     O_2   0.659421 0.775694 0.982573 -0.394103
O36   O     O_2   0.660325 0.223213 0.484546 -0.411630
O37   O     O_3   0.246014 0.475899 0.747598 -0.447499
O38   O     O_3   0.246277 0.523933 0.248272 -0.460923
O39   O     O_3   0.744455 0.976277 0.754863 -0.522986
O40   O     O_3   0.742949 0.022448 0.254588 -0.527830
O41   O     O_3   0.062215 0.184485 0.020667 -0.507166
O42   O     O_3   0.064497 0.818338 0.555368 -0.516304
O43   O     O_3   0.563245 0.684802 0.060446 -0.515285
O44   O     O_3   0.565356 0.314741 0.564750 -0.511516
C5    C     C_3   0.016717 0.152395 0.120368 0.469589
C6    C     C_3   0.001739 0.831453 0.633227 0.383068
C7    C     C_3   0.486070 0.688130 0.086492 0.365124
C8    C     C_3   0.490417 0.312807 0.602015 0.346738
H13   H     H_    0.959182 0.137167 0.041554 0.163933
H14   H     H_    0.006623 0.803094 0.751084 0.018876
H15   H     H_    0.444756 0.705542 0.972881 0.157960
H16   H     H_    0.447454 0.286238 0.501968 0.154160
H17   H     H_    0.002417 0.187580 0.216869 0.014333
H18   H     H_    0.001377 0.889465 0.659829 0.150298
H19   H     H_    0.479345 0.723896 0.188971 0.051820
H20   H     H_    0.490546 0.285690 0.720300 0.044859
C9    C     C_3   0.058857 0.085176 0.194656 -0.895189
C10   C     C_3   0.924487 0.812077 0.519655 -0.715928
C11   C     C_3   0.463645 0.615367 0.132211 -0.804741
C12   C     C_3   0.463771 0.387700 0.618329 -0.792385
H21   H     H_    0.404912 0.620314 0.162864 0.251999
H22   H     H_    0.407995 0.384456 0.661578 0.260911
H23   H     H_    0.025128 0.060521 0.277035 0.265351
H24   H     H_    0.918117 0.753670 0.507777 0.257558
H25   H     H_    0.064262 0.046608 0.096920 0.276506
H26   H     H_    0.923220 0.834413 0.397897 0.296611
H27   H     H_    0.462293 0.578168 0.028853 0.315896
H28   H     H_    0.454713 0.415053 0.499212 0.304130
C13   C     C_3   0.224739 0.452015 0.220188 0.307370
C14   C     C_3   0.223459 0.547799 0.724019 0.310160
C15   C     C_3   0.731846 0.962267 0.155988 0.237090
C16   C     C_3   0.733037 0.038807 0.664218 0.215352
H29   H     H_    0.200922 0.432770 0.324083 0.001320
H30   H     H_    0.200750 0.564904 0.830618 0.001004
H31   H     H_    0.680284 0.930879 0.175859 0.053592
H32   H     H_    0.681571 0.069168 0.688218 0.047608
H33   H     H_    0.179496 0.444140 0.108810 0.113591
H34   H     H_    0.177357 0.556839 0.614016 0.106544
H35   H     H_    0.724831 0.979190 0.028073 0.158779
H36   H     H_    0.725262 0.024543 0.534529 0.163855
C17   C     C_3   0.296737 0.406816 0.203769 0.244711
C18   C     C_3   0.294375 0.594085 0.707584 0.265844
C19   C     C_3   0.804845 0.917098 0.201160 0.211227
C20   C     C_3   0.806725 0.083750 0.712272 0.245745
H37   H     H_    0.329475 0.389388 0.325598 0.082285
H38   H     H_    0.326965 0.612330 0.829018 0.080066
H39   H     H_    0.817647 0.908604 0.334748 0.096632
H40   H     H_    0.821168 0.092318 0.846186 0.102016
H41   H     H_    0.276396 0.357473 0.136352 0.059719
H42   H     H_    0.273077 0.643065 0.639144 0.044005
H43   H     H_    0.794667 0.864606 0.140160 0.066605
H44   H     H_    0.796319 0.136555 0.652470 0.057357
Ba1   Ba    Ba6+2 0.000000 0.447380 0.844850 1.570283
Ba2   Ba    Ba6+2 0.000000 0.552620 0.344850 1.560728
Ba3   Ba    Ba6+2 0.500000 0.947380 0.844850 1.550814
Ba4   Ba    Ba6+2 0.500000 0.052620 0.344850 1.547673
C21   C     C_3   0.764866 0.536845 0.881502 0.393947
C22   C     C_3   0.771809 0.455179 0.423840 0.360534
C23   C     C_3   0.263369 0.034904 0.872693 0.393605
C24   C     C_3   0.270431 0.956167 0.422245 0.356073
H45   H     H_    0.735577 0.529148 0.751843 0.107411
H46   H     H_    0.768969 0.451037 0.291145 0.104364
H47   H     H_    0.223164 0.029995 0.751267 0.111547
H48   H     H_    0.268914 0.953536 0.289816 0.109946
C25   C     C_3   0.726838 0.600572 0.947828 -0.909482
C26   C     C_3   0.711767 0.404629 0.469985 -0.886429
C27   C     C_3   0.241177 0.101597 0.956192 -0.931415
C28   C     C_3   0.208782 0.905709 0.462363 -0.888000
H49   H     H_    0.670197 0.584970 0.979701 0.286318
H50   H     H_    0.651037 0.422544 0.415131 0.276043
H51   H     H_    0.190272 0.091285 0.013790 0.282991
H52   H     H_    0.148640 0.924995 0.406496 0.281283
H53   H     H_    0.715482 0.644103 0.856509 0.218478
H54   H     H_    0.721010 0.349638 0.428683 0.235750
H55   H     H_    0.225586 0.145794 0.867899 0.219236
H56   H     H_    0.217271 0.851162 0.417558 0.235737
H57   H     H_    0.766676 0.621455 0.058347 0.283427
H58   H     H_    0.717703 0.405129 0.603795 0.262734
H59   H     H_    0.292224 0.118712 0.050158 0.290283
H60   H     H_    0.213795 0.904298 0.596021 0.260474
O45   O     O_3   0.092100 0.536880 0.086720 -0.417479
O46   O     O_3   0.092100 0.463120 0.586720 -0.418715
O47   O     O_3   0.592100 0.036880 0.086720 -0.403288
O48   O     O_3   0.592100 0.963120 0.586720 -0.401704
P13   P     P_3+3 0.905706 0.739426 0.077406 0.452998
P14   P     P_3+3 0.905610 0.260793 0.583706 0.481545
P15   P     P_3+3 0.406383 0.240071 0.080704 0.466301
P16   P     P_3+3 0.404064 0.761934 0.584003 0.471512
C29   C     C_3   0.038182 0.195005 0.609553 0.570300
C30   C     C_3   0.040764 0.803340 0.113998 0.540381
C31   C     C_3   0.532249 0.690293 0.596160 0.526217
C32   C     C_3   0.540857 0.303842 0.110936 0.508561
H61   H     H_    0.034558 0.213539 0.482764 -0.021962
H62   H     H_    0.045651 0.765446 0.015389 0.017850
H63   H     H_    0.524592 0.707877 0.467250 -0.005997
H64   H     H_    0.541583 0.271519 0.000039 0.009773
H65   H     H_    0.507435 0.595899 0.239792 0.245737
H66   H     H_    0.508956 0.417480 0.706677 0.254632
H67   H     H_    0.118445 0.097807 0.266994 0.238471
H68   H     H_    0.874545 0.833464 0.567161 0.204135
C33   C     C_R   0.142499 0.675878 0.922220 -0.535170
C34   C     C_R   0.138886 0.321418 0.423021 -0.516056
C35   C     C_R   0.649212 0.170747 0.917308 -0.533768
C36   C     C_R   0.647136 0.828084 0.416272 -0.528681
C37   C     C_R   0.862936 0.322765 0.270930 -0.499138
C38   C     C_R   0.862293 0.677006 0.767593 -0.492567
C39   C     C_R   0.362783 0.823164 0.269989 -0.529800
C40   C     C_R   0.365430 0.178951 0.765813 -0.507916
C41   C     C_R   0.794999 0.212103 0.303739 -0.133027
C42   C     C_R   0.792403 0.786312 0.802352 -0.138899
C43   C     C_R   0.290216 0.715966 0.305710 -0.153418
C44   C     C_R   0.291243 0.285169 0.802616 -0.145459
C45   C     C_R   0.850502 0.264715 0.367952 0.186563
C46   C     C_R   0.848988 0.734321 0.864803 0.230055
C47   C     C_R   0.348514 0.766403 0.368315 0.213858
C48   C     C_R   0.350663 0.235478 0.864648 0.212897
C49   C     C_R   0.818307 0.332252 0.111799 0.273819
C50   C     C_R   0.816057 0.666533 0.610860 0.238645
C51   C     C_R   0.318057 0.832644 0.111040 0.266926
C52   C     C_R   0.318802 0.167962 0.608958 0.260851
C53   C     C_R   0.761273 0.277775 0.045778 -0.070148
C54   C     C_R   0.757557 0.719917 0.545641 -0.079464
C55   C     C_R   0.260030 0.778966 0.045430 -0.068291
C56   C     C_R   0.259452 0.220618 0.543855 -0.057761
C57   C     C_R   0.246242 0.719390 0.144556 -0.090994
C58   C     C_R   0.245792 0.280490 0.642578 -0.089350
C59   C     C_R   0.749253 0.217028 0.143711 -0.065504
C60   C     C_R   0.745611 0.780832 0.643551 -0.083110
C61   C     C_R   0.186736 0.666684 0.080424 0.276081
C62   C     C_R   0.185305 0.332481 0.579447 0.266413
C63   C     C_R   0.690623 0.163920 0.078164 0.265415
C64   C     C_R   0.688229 0.834835 0.577658 0.275051
C65   C     C_R   0.158411 0.730842 0.822940 0.200114
C66   C     C_R   0.154396 0.265778 0.323257 0.185708
C67   C     C_R   0.662761 0.227301 0.820229 0.221055
C68   C     C_R   0.660538 0.771094 0.319133 0.218525
C69   C     C_R   0.214612 0.783047 0.884836 -0.186976
C70   C     C_R   0.213554 0.215729 0.383402 -0.216798
C71   C     C_R   0.715853 0.281629 0.884987 -0.179164
C72   C     C_R   0.712843 0.716162 0.384207 -0.186973
H69   H     H_    0.277834 0.675179 0.385288 0.221703
H70   H     H_    0.279106 0.326266 0.881998 0.219588
H71   H     H_    0.787358 0.167869 0.380508 0.202744
H72   H     H_    0.786048 0.831273 0.878199 0.200978
H73   H     H_    0.720864 0.326426 0.808104 0.178180
H74   H     H_    0.718372 0.671401 0.306399 0.190531
H75   H     H_    0.221501 0.826684 0.806169 0.180625
H76   H     H_    0.223470 0.173948 0.301940 0.188855
H77   H     H_    0.096669 0.637766 0.872510 0.172745
H78   H     H_    0.092860 0.359483 0.373776 0.171975
H79   H     H_    0.605869 0.130834 0.865521 0.176736
H80   H     H_    0.604816 0.868753 0.363719 0.176692
H81   H     H_    0.906009 0.362833 0.322772 0.165873
H82   H     H_    0.907834 0.638623 0.817270 0.171389
H83   H     H_    0.407003 0.862439 0.320882 0.173965
H84   H     H_    0.410923 0.140555 0.815740 0.177552
S1    S     S_3+6 0.363131 0.453674 0.103089 0.002358
O49   O     O_2   0.328628 0.524056 0.041594 -0.319779
O50   O     O_2   0.439637 0.465196 0.223272 -0.345222
O51   O     O_3   0.381929 0.409892 0.942117 -0.505272
H85   H     H_    0.431002 0.432038 0.923759 0.394316
S2    S     S_3+6 0.361504 0.547653 0.608167 0.011082
O52   O     O_2   0.437259 0.535335 0.730345 -0.310860
O53   O     O_2   0.327263 0.477777 0.541983 -0.322528
O54   O     O_3   0.380728 0.592906 0.450247 -0.530046
H86   H     H_    0.412859 0.559410 0.401240 0.398776
S3    S     S_3+6 0.885521 0.961310 0.142953 -0.021878
O55   O     O_2   0.872707 0.040657 0.131848 -0.323247
O56   O     O_2   0.958814 0.945241 0.269319 -0.337471
O57   O     O_3   0.894272 0.930838 0.959786 -0.467587
H87   H     H_    0.947154 0.946783 0.948664 0.399456
S4    S     S_3+6 0.886600 0.040094 0.648911 -0.000299
O58   O     O_2   0.961392 0.051737 0.774363 -0.302318
O59   O     O_2   0.871765 0.961480 0.627434 -0.318458
O60   O     O_3   0.894257 0.074522 0.469152 -0.499731
H88   H     H_    0.936595 0.046108 0.438372 0.398521
H89   H     H_    0.828381 0.548632 0.889561 0.102084
H90   H     H_    0.830985 0.437849 0.492061 0.130251
H91   H     H_    0.324780 0.040647 0.854479 0.106158
H92   H     H_    0.328896 0.937694 0.491978 0.133045
H93   H     H_    0.540936 0.579223 0.524042 0.267069
H94   H     H_    0.565388 0.393609 0.966285 0.241329
H95   H     H_    0.055812 0.083503 0.551654 0.263912
H96   H     H_    0.066768 0.886792 0.952095 0.232989

loop_
_geom_bond_atom_site_label_1
_geom_bond_atom_site_label_2
_geom_bond_distance
_ccdc_geom_bond_type
C15   H31   1.111737 S    
C12   H28   1.103836 S    
P1    O17   1.750552 S    
C14   C18   1.534352 S    
O16   P15   1.548180 D    
C22   H90   1.109566 S    
C21   H89   1.109949 S    
O7    Ba4   2.842977 S    
C2    H10   1.100098 S    
C3    H93   1.104909 S    
C25   H49   1.109999 S    
C60   C64   1.441523 A    
O6    Ba1   2.842566 S    
C37   H81   1.081869 S    
C18   H42   1.102653 S    
P2    C50   1.897727 S    
C9    H23   1.098026 S    
C17   H41   1.100809 S    
Ba3   Ba4   4.634695 S    
C11   H65   1.108552 S    
O28   Ba4   2.896675 S    
C27   H51   1.109308 S    
C37   C49   1.402974 A    
C1    H7    1.105086 S    
C7    H15   1.110883 S    
O11   Ba3   2.823064 S    
P1    O1    1.535229 D    
C32   H64   1.111233 S    
O38   C13   1.403873 S    
P7    O27   1.535645 D    
C38   H82   1.081723 S    
C3    H5    1.108390 S    
C23   C27   1.519407 S    
O37   C14   1.403385 S    
P6    O38   1.747788 S    
P3    O3    1.535229 D    
C24   C28   1.517570 S    
P4    O20   1.749672 S    
C57   C61   1.445626 A    
O18   C22   1.402102 S    
C20   H40   1.108542 S    
C22   H46   1.105895 S    
O23   C31   1.409143 S    
O60   H88   0.983116 S    
P14   C45   1.857631 S    
O1    Ba1   2.893184 S    
O24   C32   1.409820 S    
S1    O51   1.668715 S    
P9    O29   1.751707 S    
Ba1   O46   2.965804 S    
P4    Ba4   3.454969 S    
S2    O54   1.665644 S    
C19   H43   1.104259 S    
P5    O46   1.598578 S    
C55   C69   1.408847 A    
C5    H17   1.110891 S    
O22   C30   1.409822 S    
C36   C68   1.390668 A    
C35   C63   1.391503 A    
C10   H26   1.099619 S    
Ba3   O48   2.965804 S    
P5    O37   1.743874 S    
C9    H25   1.110466 S    
C28   H52   1.106754 S    
C7    H19   1.114320 S    
C16   H32   1.110286 S    
C10   H24   1.101507 S    
C68   C72   1.400924 A    
P3    Ba3   3.456864 S    
C20   S4    1.781373 S    
C11   H27   1.107609 S    
O42   C6    1.403563 S    
O24   P15   1.750133 S    
C19   S3    1.780920 S    
S3    O55   1.501708 D    
C21   C25   1.522860 S    
O41   C5    1.401855 S    
C65   C69   1.399185 A    
P4    O8    1.593441 S    
C3    H11   1.106765 S    
O54   H86   0.983790 S    
C18   H38   1.107292 S    
C51   C55   1.444971 A    
C36   H80   1.082482 S    
P4    O4    1.536331 D    
C13   H33   1.093104 S    
C27   H55   1.104932 S    
C69   H75   1.073335 S    
Ba4   O48   2.842527 S    
C37   C45   1.402560 A    
P9    O41   1.746042 S    
C35   C67   1.386840 A    
O15   P16   1.545843 D    
S3    O56   1.499441 D    
C38   C46   1.395208 A    
P2    O2    1.536331 D    
P11   O43   1.734003 S    
C6    H18   1.108802 S    
O13   P14   1.547016 D    
C24   H48   1.106225 S    
P7    O39   1.737656 S    
O51   H85   0.987440 S    
P16   C47   1.859942 S    
C1    C29   1.518290 S    
C40   C52   1.403539 A    
C59   C63   1.443917 A    
P2    Ba2   3.454969 S    
C10   H68   1.101314 S    
O31   Ba3   2.824395 S    
C26   H58   1.104692 S    
O27   Ba3   2.893638 S    
C8    H20   1.114348 S    
O30   Ba2   2.822440 S    
C16   H36   1.099532 S    
P8    C63   1.886241 S    
C42   H72   1.074076 S    
P10   O30   1.757057 S    
C43   C47   1.400620 A    
P7    O48   1.598578 S    
P1    O5    1.594646 S    
P12   O36   1.541475 D    
O3    Ba3   2.893184 S    
C20   H44   1.105979 S    
C30   H62   1.105751 S    
P15   C48   1.863571 S    
O4    Ba4   2.890178 S    
P6    C61   1.898531 S    
H1    C29   1.111464 S    
C33   C65   1.388878 A    
P5    Ba1   3.457242 S    
P3    O19   1.748833 S    
C14   H30   1.097997 S    
C42   C60   1.406656 A    
P5    O25   1.535645 D    
S4    O60   1.671305 S    
P8    O40   1.731886 S    
C33   H77   1.082781 S    
C56   C58   1.441740 A    
C50   C54   1.443999 A    
C44   H70   1.066514 S    
C55   C57   1.442193 A    
P2    O18   1.750674 S    
P12   O44   1.733271 S    
C26   H54   1.108114 S    
O9    Ba1   2.823064 S    
C53   C59   1.444724 A    
C25   H57   1.101911 S    
C4    H94   1.103897 S    
Ba2   O46   2.842527 S    
H2    C30   1.108638 S    
C23   H91   1.111632 S    
C15   C19   1.499664 S    
P6    O26   1.534546 D    
O12   P15   1.728137 S    
S4    O59   1.498511 D    
S1    O49   1.492095 D    
Ba1   Ba2   4.634695 S    
P11   O35   1.542277 D    
O44   C8    1.398829 S    
C42   C46   1.400133 A    
C6    C10   1.511280 S    
S2    O53   1.493713 D    
C5    C9    1.519403 S    
O11   P16   1.725276 S    
C28   H60   1.105834 S    
O14   P13   1.547345 D    
O39   C16   1.387196 S    
C67   C71   1.401061 A    
C2    C30   1.525147 S    
C54   C72   1.410163 A    
Ba4   O47   2.964799 S    
C12   H22   1.103741 S    
C41   C59   1.407849 A    
C16   C20   1.510454 S    
C12   H66   1.106559 S    
C11   H21   1.104790 S    
O10   P13   1.729148 S    
O21   C29   1.408625 S    
P10   O34   1.540074 D    
S3    O57   1.674805 S    
C2    H8    1.104573 S    
P7    C64   1.891694 S    
C4    H12   1.104741 S    
C18   S2    1.792131 S    
O2    Ba2   2.890178 S    
C9    H67   1.105146 S    
O5    Ba2   2.842977 S    
P2    O6    1.593441 S    
C29   H61   1.107681 S    
C34   C62   1.399464 A    
C44   C58   1.405779 A    
P11   C68   1.837808 S    
P5    C62   1.906183 S    
C33   C61   1.393450 A    
C43   C57   1.403553 A    
P10   C65   1.838375 S    
C70   H76   1.075417 S    
O23   P16   1.748685 S    
C40   C48   1.400036 A    
C66   C70   1.399538 A    
C8    C12   1.490683 S    
P9    C66   1.852496 S    
C39   H83   1.081911 S    
C24   H92   1.110221 S    
C40   H84   1.081827 S    
P1    Ba1   3.456864 S    
O21   P14   1.746954 S    
C1    H95   1.100651 S    
C39   C47   1.400077 A    
C56   C70   1.411697 A    
Ba3   O47   2.842937 S    
O32   Ba4   2.822440 S    
C8    H16   1.112673 S    
C72   H74   1.078140 S    
O29   Ba1   2.824395 S    
P3    C51   1.905230 S    
C26   H50   1.105576 S    
C19   H39   1.106049 S    
C13   C17   1.535991 S    
C49   C53   1.445802 A    
P7    Ba3   3.457242 S    
C17   H37   1.106297 S    
C34   H78   1.082417 S    
C35   H79   1.082584 S    
C15   H35   1.100276 S    
C43   H69   1.066444 S    
O19   C23   1.401857 S    
C27   H59   1.098790 S    
C14   H34   1.096236 S    
C52   C56   1.443606 A    
P12   C67   1.837630 S    
C1    H9    1.106051 S    
P1    C49   1.913626 S    
P4    C52   1.900633 S    
C23   H47   1.107559 S    
C4    H6    1.107319 S    
Ba2   O45   2.964799 S    
P10   O42   1.744737 S    
O40   C15   1.385890 S    
C28   H56   1.108143 S    
C71   H73   1.073296 S    
O25   Ba1   2.893638 S    
C38   C50   1.398794 A    
O43   C7    1.400797 S    
C54   C60   1.444751 A    
P9    O33   1.537772 D    
C41   H71   1.075071 S    
C58   C62   1.444109 A    
O8    Ba3   2.842566 S    
P8    O28   1.534546 D    
C53   C71   1.410022 A    
C41   C45   1.401595 A    
O57   H87   0.986881 S    
S4    O58   1.499707 D    
S1    O50   1.498879 D    
Ba1   O45   2.842937 S    
C36   C64   1.393457 A    
C31   H63   1.110781 S    
O12   Ba4   2.825017 S    
S2    O52   1.499431 D    
H3    C31   1.111404 S    
O9    P14   1.724281 S    
C34   C66   1.396582 A    
C3    C31   1.520799 S    
P3    O7    1.594646 S    
C4    C32   1.521834 S    
C39   C51   1.402270 A    
C21   H45   1.106396 S    
O26   Ba2   2.896675 S    
P6    O45   1.599798 S    
P11   O31   1.753380 S    
P13   C46   1.844717 S    
C22   C26   1.517469 S    
P12   O32   1.756640 S    
P8    Ba4   3.459181 S    
C6    H14   1.109537 S    
P8    O47   1.599798 S    
O20   C24   1.401672 S    
O10   Ba2   2.825017 S    
C5    H13   1.108851 S    
P6    Ba2   3.459181 S    
O22   P13   1.750521 S    
C2    H96   1.106498 S    
C25   H53   1.107126 S    
H4    C32   1.108908 S    
O17   C21   1.401383 S    
C13   H29   1.101765 S    
C7    C11   1.490039 S    
C44   C48   1.401374 A    
C17   S1    1.795726 S    
