data_mof_unit_21133.cif
_audit_creation_date              2012-12-10T17:39:20-0500
_audit_creation_method            fapswitch 2.2
_symmetry_space_group_name_H-M    P1
_symmetry_Int_Tables_number       1
_space_group_crystal_system       triclinic
_cell_length_a                    12.440414
_cell_length_b                    13.090325
_cell_length_c                    27.428516
_cell_angle_alpha                 76.443621
_cell_angle_beta                  101.367406
_cell_angle_gamma                 116.704096
_cell_volume                      3857.3999016

loop_
_atom_site_label
_atom_site_type_symbol
_atom_type_description
_atom_site_fract_x
_atom_site_fract_y
_atom_site_fract_z
_atom_type_partial_charge
C1    C     C_R   0.854572 0.285556 0.505425 0.791960
C2    C     C_R   0.908347 0.515292 0.713737 0.418090
C3    C     C_R   0.998158 0.495987 0.749346 0.207147
C4    C     C_R   0.003298 0.466773 0.906012 -0.058140
C5    C     C_R   0.928423 0.372061 0.881402 -0.049645
C6    C     C_R   0.851616 0.269026 0.908717 -0.308165
C7    C     C_R   0.066704 0.576701 0.877153 -0.142967
C8    C     C_R   0.000728 0.501325 0.646522 -0.153045
C9    C     C_R   0.998486 0.493958 0.354680 -0.186098
C10   C     C_R   0.964423 0.328475 0.042196 -0.043751
C11   C     C_R   0.120852 0.529423 0.036528 0.020805
C12   C     C_R   0.000467 0.500683 0.592708 0.817172
C13   C     C_R   0.045168 0.425533 0.065364 -0.013238
C14   C     C_R   0.917938 0.219774 0.074844 0.470291
C15   C     C_R   0.913616 0.215255 0.126426 -0.155866
C16   C     C_R   0.979943 0.316690 0.148406 -0.141713
C17   C     C_R   0.055227 0.417417 0.118267 -0.065911
C18   C     C_R   0.147711 0.506497 0.142065 -0.047864
C19   C     C_R   0.149687 0.500080 0.193703 0.614145
C20   C     C_R   0.982372 0.322267 0.199927 0.577736
C21   C     C_R   0.911290 0.385203 0.285104 -0.032540
C22   C     C_R   0.905163 0.402502 0.332923 -0.365495
C23   C     C_R   0.144913 0.714169 0.493558 0.808394
C24   C     C_R   0.089091 0.578681 0.325258 0.308440
C25   C     C_R   0.089098 0.565803 0.276012 0.445844
C26   C     C_R   0.017340 0.456573 0.259809 0.058576
C27   C     C_R   0.945044 0.342008 0.988121 -0.010372
C28   C     C_R   0.014296 0.451465 0.959403 -0.046821
C29   C     C_R   0.092676 0.547234 0.983566 -0.069197
C30   C     C_R   0.853192 0.254295 0.961408 0.480695
C31   C     C_R   0.126340 0.674658 0.901820 -0.122348
C32   C     C_R   0.226112 0.607995 0.062126 -0.007968
C33   C     C_R   0.237309 0.596906 0.114427 -0.239319
C34   C     C_R   0.000171 0.500004 0.407525 0.849037
C35   C     C_R   0.129950 0.660128 0.954282 0.397696
C36   C     C_R   0.278278 0.030722 0.437310 -0.201191
C37   C     C_R   0.228623 0.837875 0.485387 -0.163883
C38   C     C_R   0.805421 0.075448 0.539114 0.428793
C39   C     C_R   0.732205 0.957941 0.536512 -0.123045
C40   C     C_R   0.612770 0.924627 0.515862 -0.249122
C41   C     C_R   0.566352 0.007858 0.495400 0.057944
C42   C     C_R   0.650300 0.124552 0.483135 0.012918
C43   C     C_R   0.440268 0.977876 0.483509 -0.008589
C44   C     C_R   0.401885 0.059358 0.450846 0.096752
C45   C     C_R   0.927034 0.384080 0.829152 0.584198
C46   C     C_R   0.487523 0.167819 0.431372 -0.214716
C47   C     C_R   0.609980 0.199993 0.447047 -0.159794
C48   C     C_R   0.351102 0.871133 0.504495 0.391316
C49   C     C_R   0.192264 0.919787 0.453585 -0.261769
C50   C     C_R   0.770924 0.160665 0.507638 -0.215996
C51   C     C_R   0.347712 0.327284 0.583743 -0.168614
C52   C     C_R   0.758312 0.650230 0.433355 0.130099
C53   C     C_R   0.670586 0.692057 0.423960 -0.427856
C54   C     C_R   0.570077 0.640525 0.451397 0.481224
C55   C     C_R   0.555174 0.538495 0.487203 -0.058841
C56   C     C_R   0.062627 0.584182 0.824462 0.613669
C57   C     C_R   0.654148 0.505272 0.498862 0.190668
C58   C     C_R   0.448746 0.472389 0.513919 -0.136367
C59   C     C_R   0.450772 0.386775 0.556603 -0.015412
C60   C     C_R   0.554246 0.362543 0.569545 -0.050128
C61   C     C_R   0.649472 0.417796 0.539908 -0.194331
C62   C     C_R   0.335237 0.480091 0.496732 0.661657
C63   C     C_R   0.253991 0.363783 0.572059 0.005372
C64   C     C_R   0.091957 0.484074 0.733611 0.425953
C65   C     C_R   0.091959 0.485682 0.682321 -0.312505
C66   C     C_R   0.910193 0.518207 0.662547 -0.287549
Cu1   Cu    Cu3+1 0.098270 0.475420 0.511360 1.003356
Cu2   Cu    Cu3+1 0.901730 0.524580 0.488640 0.932821
H1    H     H_    0.840667 0.533856 0.635563 0.194044
H2    H     H_    0.315246 0.660143 0.133374 0.192071
H3    H     H_    0.098059 0.897097 0.439907 0.193778
H4    H     H_    0.459693 0.228977 0.404546 0.140171
H5    H     H_    0.248393 0.092759 0.412465 0.147361
H6    H     H_    0.558425 0.833522 0.515023 0.251980
H7    H     H_    0.671819 0.283461 0.429337 0.171299
H8    H     H_    0.784894 0.202432 0.888065 0.190526
H9    H     H_    0.684765 0.768861 0.395930 0.168748
H10   H     H_    0.721652 0.391954 0.551466 0.203420
H11   H     H_    0.827710 0.344176 0.353401 0.166128
H12   H     H_    0.163114 0.474054 0.670758 0.175590
N1    N     N_R   0.994875 0.488324 0.802132 -0.420476
N2    N     N_R   0.047446 0.426634 0.217057 -0.439002
N3    N     N_R   0.246290 0.438210 0.528570 -0.251067
N4    N     N_R   0.754320 0.561170 0.471730 -0.216251
O1    O     O_R   0.972510 0.318140 0.514280 -0.537631
O2    O     O_2   0.930686 0.224579 0.232782 -0.535972
O3    O     O_2   0.126657 0.685149 0.795652 -0.545327
O4    O     O_2   0.253738 0.561216 0.220279 -0.506726
O5    O     O_R   0.806530 0.359640 0.495100 -0.616226
O6    O     O_R   0.082990 0.479270 0.579320 -0.588403
O7    O     O_R   0.917010 0.520770 0.560140 -0.595456
O8    O     O_R   0.193470 0.640360 0.504900 -0.509467
O9    O     O_R   0.027490 0.681860 0.485720 -0.584249
O10   O     O_R   0.082990 0.479230 0.439860 -0.536466
O11   O     O_R   0.917010 0.520730 0.420680 -0.594107
O12   O     O_2   0.859651 0.291882 0.805511 -0.578563
O13   O     O_3   0.178775 0.464079 0.769546 -0.593589
C67   C     C_3   0.294517 0.554134 0.760815 0.053934
H13   H     H_    0.292490 0.641077 0.750936 0.166771
H14   H     H_    0.329354 0.539775 0.729889 0.141981
C68   C     C_3   0.381185 0.553108 0.808660 -0.302845
H15   H     H_    0.345549 0.563506 0.840432 0.230626
H16   H     H_    0.387606 0.468532 0.818214 0.225430
C69   C     C_3   0.507189 0.650812 0.801859 -0.914305
H17   H     H_    0.544436 0.642510 0.770129 0.253752
H18   H     H_    0.568587 0.646425 0.836861 0.262074
H19   H     H_    0.503417 0.736395 0.794097 0.263821
C70   C     C_1   0.178055 0.792126 0.874574 0.390966
N5    N     N_1   0.219305 0.886205 0.853017 -0.260404
C71   C     C_1   0.331662 0.690375 0.037200 0.322985
N6    N     N_1   0.416560 0.756249 0.017516 -0.298190
O14   O     O_3   0.182437 0.672624 0.344322 -0.621664
C72   C     C_3   0.144240 0.760221 0.342175 0.076970
H20   H     H_    0.130172 0.758940 0.380992 0.169740
H21   H     H_    0.059104 0.749222 0.316751 0.150880
C73   C     C_3   0.243683 0.878763 0.324227 -0.356673
H22   H     H_    0.318624 0.903011 0.354969 0.215120
H23   H     H_    0.279537 0.874492 0.291106 0.246544
C74   C     C_3   0.196612 0.972476 0.309317 -0.871640
H24   H     H_    0.129495 0.955935 0.275429 0.253336
H25   H     H_    0.273008 0.058589 0.300432 0.256271
H26   H     H_    0.152974 0.974010 0.340553 0.270740
O15   O     O_3   0.151829 0.664238 0.243010 -0.556122
C75   C     C_3   0.074429 0.717511 0.217395 0.045101
H27   H     H_    0.123914 0.811703 0.218926 0.173352
H28   H     H_    0.988458 0.686307 0.234632 0.103662
C76   C     C_3   0.044436 0.701758 0.162043 -0.328594
H29   H     H_    0.129474 0.729814 0.145099 0.235905
H30   H     H_    0.987008 0.608844 0.159545 0.210434
C77   C     C_3   0.976883 0.772937 0.131988 -0.946121
H31   H     H_    0.891436 0.747031 0.148183 0.271207
H32   H     H_    0.954459 0.757956 0.092317 0.251618
H33   H     H_    0.034407 0.866694 0.132457 0.251497
O16   O     O_3   0.166409 0.757766 0.976210 -0.613648
C78   C     C_3   0.066192 0.758648 0.993126 0.045767
H34   H     H_    0.100209 0.801398 0.027032 0.168807
H35   H     H_    0.994883 0.670491 0.005181 0.139555
C79   C     C_3   0.010618 0.828724 0.952507 -0.336265
H36   H     H_    0.080364 0.918906 0.943367 0.238312
H37   H     H_    0.979283 0.789122 0.917736 0.218506
C80   C     C_3   0.902889 0.831664 0.969886 -0.927563
H38   H     H_    0.830305 0.742495 0.977437 0.261580
H39   H     H_    0.866187 0.884647 0.939959 0.259684
H40   H     H_    0.930740 0.870709 0.004660 0.254755
O17   O     O_3   0.825473 0.542390 0.728328 -0.597157
C81   C     C_3   0.715295 0.442423 0.735165 0.089917
H41   H     H_    0.708415 0.413292 0.776346 0.177239
H42   H     H_    0.706502 0.367933 0.718937 0.156961
C82   C     C_3   0.610435 0.474314 0.710927 -0.368662
H43   H     H_    0.623699 0.554740 0.723096 0.231911
H44   H     H_    0.609321 0.491137 0.669205 0.223437
C83   C     C_3   0.489126 0.377815 0.725804 -0.875381
H45   H     H_    0.484623 0.367450 0.766823 0.258540
H46   H     H_    0.476971 0.294590 0.716925 0.284888
H47   H     H_    0.414405 0.399841 0.704665 0.249803
O18   O     O_3   0.383654 0.797635 0.543011 -0.587203
C84   C     C_3   0.359167 0.806201 0.589652 0.103740
H48   H     H_    0.262403 0.749664 0.595141 0.133168
H49   H     H_    0.378893 0.896922 0.592318 0.108515
C85   C     C_3   0.438812 0.766517 0.632320 -0.349120
H50   H     H_    0.534695 0.831135 0.630706 0.210160
H51   H     H_    0.410886 0.762259 0.669088 0.167138
C86   C     C_3   0.429715 0.647847 0.629078 -0.740377
H52   H     H_    0.333885 0.583452 0.626432 0.238925
H53   H     H_    0.479081 0.618030 0.663313 0.207287
H54   H     H_    0.471011 0.653198 0.595620 0.277608
O19   O     O_3   0.906429 0.107057 0.574139 -0.594436
C87   C     C_3   0.868751 0.073984 0.623432 0.091600
H55   H     H_    0.947937 0.075745 0.650786 0.200923
H56   H     H_    0.799298 0.982960 0.630930 0.116142
C88   C     C_3   0.821338 0.156104 0.634073 -0.399255
H57   H     H_    0.876754 0.246954 0.617490 0.237579
H58   H     H_    0.726995 0.132518 0.616025 0.207428
C89   C     C_3   0.823505 0.149080 0.690600 -0.772115
H59   H     H_    0.762797 0.060281 0.707543 0.246389
H60   H     H_    0.792613 0.211792 0.697055 0.273111
H61   H     H_    0.916901 0.171532 0.709575 0.271030
C90   C     C_1   0.776257 0.870223 0.557909 0.275816
N7    N     N_1   0.811287 0.799718 0.574993 -0.272369
C91   C     C_1   0.166667 0.319685 0.607721 0.379096
N8    N     N_1   0.101145 0.283961 0.638340 -0.314294
C92   C     C_1   0.570225 0.282334 0.613487 0.213530
N9    N     N_1   0.583781 0.218291 0.648487 -0.304788
C93   C     C_1   0.330528 0.224650 0.621939 0.270979
N10   N     N_1   0.314610 0.142345 0.652140 -0.254392
O20   O     O_3   0.306953 0.511203 0.445833 -0.565875
C94   C     C_3   0.276570 0.416475 0.420872 0.037194
H62   H     H_    0.176823 0.365372 0.417577 0.181844
H63   H     H_    0.317531 0.355322 0.440716 0.103410
C95   C     C_3   0.319020 0.462104 0.368179 -0.338421
H64   H     H_    0.290534 0.531656 0.348699 0.265553
H65   H     H_    0.419430 0.499463 0.371568 0.202200
C96   C     C_3   0.267267 0.365793 0.336366 -0.854568
H66   H     H_    0.294549 0.294817 0.355060 0.231504
H67   H     H_    0.302240 0.401063 0.298898 0.285760
H68   H     H_    0.166925 0.330378 0.330706 0.269641
C97   C     C_1   0.855744 0.710391 0.402498 0.327347
N11   N     N_1   0.931485 0.762081 0.376270 -0.377129
O21   O     O_3   0.498797 0.698596 0.450325 -0.596385
C98   C     C_3   0.473244 0.753639 0.401202 0.137170
H69   H     H_    0.378398 0.741672 0.397842 0.221240
H70   H     H_    0.476779 0.712295 0.370690 0.144481
C99   C     C_3   0.553920 0.884961 0.393643 -0.448504
H71   H     H_    0.508483 0.929773 0.405367 0.216615
H72   H     H_    0.641894 0.904653 0.417415 0.246246
C100  C     C_3   0.578215 0.934973 0.338683 -0.831552
H73   H     H_    0.631210 0.897867 0.326515 0.262874
H74   H     H_    0.630921 0.030544 0.334558 0.267786
H75   H     H_    0.491987 0.915561 0.313794 0.259545
C101  C     C_1   0.799471 0.309244 0.260390 0.343433
N12   N     N_1   0.709301 0.248671 0.240734 -0.274749
C102  C     C_1   0.845481 0.103903 0.155639 0.400998
N13   N     N_1   0.790886 0.014628 0.178818 -0.255670
O22   O     O_3   0.886339 0.117411 0.057828 -0.602693
C103  C     C_3   0.984136 0.085088 0.069592 0.009161
H76   H     H_    0.944690 0.988921 0.076021 0.174871
H77   H     H_    0.042265 0.112502 0.104980 0.133827
C104  C     C_3   0.061221 0.131032 0.025406 -0.361021
H78   H     H_    0.003041 0.099511 0.990887 0.224362
H79   H     H_    0.102116 0.227285 0.018206 0.219727
C105  C     C_3   0.162931 0.091302 0.036535 -0.883511
H80   H     H_    0.225405 0.126833 0.069513 0.260519
H81   H     H_    0.214851 0.122996 0.003328 0.264158
H82   H     H_    0.125646 0.995235 0.044624 0.251554
O23   O     O_3   0.753823 0.168321 0.985433 -0.574425
C106  C     C_3   0.710687 0.058874 0.970055 0.118674
H83   H     H_    0.695621 0.991470 0.004442 0.201435
H84   H     H_    0.777174 0.050507 0.951069 0.114407
C107  C     C_3   0.588391 0.030862 0.937764 -0.365980
H85   H     H_    0.517115 0.008071 0.962403 0.246096
H86   H     H_    0.590551 0.107626 0.909418 0.225589
C108  C     C_3   0.555136 0.929937 0.910404 -0.852017
H87   H     H_    0.620733 0.954634 0.882826 0.251064
H88   H     H_    0.463377 0.907193 0.889743 0.276012
H89   H     H_    0.555604 0.852661 0.937702 0.266503

loop_
_geom_bond_atom_site_label_1
_geom_bond_atom_site_label_2
_ccdc_geom_bond_type
C10   C27   A    
C58   C62   A    
C78   C79   S    
C59   C60   A    
C62   N3    A    
Cu1   N3    S    
C84   H48   S    
C20   N2    A    
O15   C75   S    
C31   C70   S    
C54   C55   A    
C12   O7    A    
C53   H9    S    
C86   H52   S    
C24   O14   S    
C21   C26   A    
C69   H18   S    
O17   C81   S    
C56   N1    A    
C53   C54   A    
C21   C101  S    
C2    O17   S    
C8    C66   A    
C88   H58   S    
C68   H15   S    
C32   C71   S    
C12   O6    A    
C28   C29   A    
C86   H53   S    
C22   H11   S    
C81   H41   S    
C107  C108  S    
C82   H44   S    
C5    C6    A    
C100  H74   S    
C9    C22   A    
C99   H72   S    
C66   H1    S    
C15   C16   A    
C67   H13   S    
Cu2   O7    S    
C70   N5    T    
C14   O22   S    
C17   C18   A    
C18   C19   A    
C41   C42   A    
C52   N4    A    
C106  C107  S    
C89   H59   S    
C108  H87   S    
C94   C95   S    
C14   C15   A    
C95   C96   S    
C92   N9    T    
C87   H55   S    
C87   C88   S    
C40   H6    S    
C16   C17   A    
C96   H67   S    
C20   O2    S    
C3    N1    S    
Cu1   O10   S    
C95   H65   S    
C19   N2    A    
C43   C48   A    
C46   H4    S    
C96   H66   S    
C8    C12   S    
C62   O20   S    
C72   C73   S    
C87   H56   S    
C48   O18   S    
C93   N10   T    
O21   C98   S    
C68   H16   S    
C65   H12   S    
C21   C22   A    
C27   C30   A    
C1    O1    A    
C41   C43   A    
C30   O23   S    
C7    C56   A    
C4    C7    A    
C35   O16   S    
C69   H17   S    
C4    C28   A    
C107  H85   S    
C44   C46   A    
O13   C67   S    
C81   H42   S    
C74   H25   S    
C60   C92   S    
C38   O19   S    
C88   C89   S    
Cu1   O1    S    
Cu2   O11   S    
C7    C31   A    
Cu1   Cu2   S    
Cu2   N4    S    
C85   C86   S    
C90   N7    T    
C99   C100  S    
C78   H34   S    
C86   H54   S    
C51   C63   A    
C24   C25   A    
C19   O4    S    
C10   C14   A    
C82   C83   S    
O19   C87   S    
C100  H73   S    
C98   H69   S    
C56   O3    S    
C58   C59   A    
C23   C37   S    
C5    C45   A    
C79   C80   S    
C108  H89   S    
C63   C91   S    
C71   N6    T    
C63   N3    A    
C60   C61   A    
C80   H39   S    
C85   H51   S    
C77   H32   S    
C103  H76   S    
C76   H30   S    
C95   H64   S    
C105  H80   S    
C81   C82   S    
C37   C49   A    
C104  H79   S    
C89   H61   S    
C83   H47   S    
C61   H10   S    
C16   C20   A    
C96   H68   S    
C52   C97   S    
C108  H88   S    
O23   C106  S    
C57   N4    A    
C106  H83   S    
C34   O11   A    
C37   C48   A    
C57   C61   A    
C25   O15   S    
C88   H57   S    
C26   N2    S    
C79   H37   S    
C33   H2    S    
C42   C50   A    
C75   C76   S    
C38   C50   A    
C98   H70   S    
C64   O13   S    
C6    C30   A    
C83   H46   S    
C11   C32   A    
C51   C93   S    
C84   C85   S    
C106  H84   S    
C55   C57   A    
C43   C44   A    
C9    C34   S    
C31   C35   A    
C103  C104  S    
C77   H33   S    
C51   C59   A    
C36   C49   A    
C76   H29   S    
C15   C102  S    
C39   C40   A    
C39   C90   S    
C52   C53   A    
C104  C105  S    
C75   H28   S    
C72   H20   S    
C1    C50   S    
C74   H26   S    
C78   H35   S    
C46   C47   A    
O18   C84   S    
C1    O5    A    
O22   C103  S    
C45   N1    A    
C34   O10   A    
C4    C5    A    
C2    C66   A    
C10   C13   A    
C74   H24   S    
C9    C24   A    
C6    H8    S    
O16   C78   S    
C80   H40   S    
C105  H82   S    
C67   C68   S    
C29   C35   A    
C67   H14   S    
Cu2   O9    S    
C73   C74   S    
C13   C17   A    
C105  H81   S    
C85   H50   S    
C103  H77   S    
C2    C3    A    
C25   C26   A    
C76   C77   S    
C47   H7    S    
C94   H62   S    
C107  H86   S    
C82   H43   S    
C32   C33   A    
C11   C13   A    
C100  H75   S    
C104  H78   S    
C38   C39   A    
C98   C99   S    
C64   C65   A    
Cu1   O8    S    
C73   H23   S    
C73   H22   S    
C77   H31   S    
O14   C72   S    
C42   C47   A    
Cu1   O6    S    
C3    C64   A    
C97   N11   T    
C18   C33   A    
C89   H60   S    
C94   H63   S    
C36   C44   A    
C79   H36   S    
C54   O21   S    
C23   O9    A    
C8    C65   A    
C83   H45   S    
C11   C29   A    
C84   H49   S    
C101  N12   T    
C49   H3    S    
C55   C58   A    
C27   C28   A    
C23   O8    A    
C40   C41   A    
C68   C69   S    
C99   H71   S    
Cu2   O5    S    
O20   C94   S    
C80   H38   S    
C45   O12   S    
C36   H5    S    
C69   H19   S    
C91   N8    T    
C102  N13   T    
C75   H27   S    
C72   H21   S    
