data_mof_unit_12662.cif
_audit_creation_date              2012-12-10T19:14:54-0500
_audit_creation_method            fapswitch 2.2
_symmetry_space_group_name_H-M    P1
_symmetry_Int_Tables_number       1
_space_group_crystal_system       triclinic
_cell_length_a                    16.006048
_cell_length_b                    14.741651
_cell_length_c                    10.947161
_cell_angle_alpha                 89.864589
_cell_angle_beta                  90.011086
_cell_angle_gamma                 89.994316
_cell_volume                      2583.03637703

loop_
_atom_site_label
_atom_site_type_symbol
_atom_type_description
_atom_site_fract_x
_atom_site_fract_y
_atom_site_fract_z
_atom_type_partial_charge
C1    C     C_1   0.251875 0.499706 0.499217 -0.174744
C2    C     C_1   0.747959 0.499291 0.505589 -0.183285
C3    C     C_R   0.503517 0.499556 0.873062 -0.129846
C4    C     C_R   0.502004 0.501340 0.128108 -0.124970
C5    C     C_R   0.499709 0.902817 0.496829 -0.099747
C6    C     C_R   0.499467 0.097079 0.498490 -0.105434
C7    C     C_R   0.576266 0.951757 0.494646 -0.049062
C8    C     C_R   0.423080 0.048498 0.497784 -0.040843
C9    C     C_R   0.423038 0.951524 0.499763 -0.026539
C10   C     C_R   0.576026 0.048650 0.498821 -0.058817
C11   C     C_R   0.956860 0.536858 0.604284 0.164912
C12   C     C_R   0.042748 0.454809 0.407682 0.158375
C13   C     C_R   0.044900 0.540975 0.598861 0.147151
C14   C     C_R   0.954756 0.450635 0.413145 0.153932
C15   C     C_R   0.340862 0.499958 0.499683 0.829299
C16   C     C_R   0.659086 0.499933 0.501601 0.836367
C17   C     C_R   0.500102 0.500370 0.261725 0.877487
C18   C     C_R   0.501190 0.499793 0.738715 0.850186
C19   C     C_R   0.912548 0.493635 0.509829 0.001640
C20   C     C_R   0.087070 0.499583 0.500861 -0.005553
C21   C     C_1   0.499874 0.802533 0.498468 0.298579
C22   C     C_1   0.499457 0.197467 0.499508 0.054782
C23   C     C_1   0.822837 0.497167 0.508452 0.071553
C24   C     C_1   0.176907 0.499441 0.499292 0.076519
C25   C     C_R   0.445005 0.661271 0.107667 0.230558
C26   C     C_R   0.482469 0.328933 0.895768 0.245451
C27   C     C_R   0.541482 0.666416 0.893223 0.228602
C28   C     C_R   0.574387 0.349913 0.112523 0.240735
C29   C     C_R   0.464394 0.745766 0.053219 0.137239
C30   C     C_R   0.520929 0.252508 0.950464 0.133941
C31   C     C_R   0.519442 0.748205 0.952294 0.136597
C32   C     C_R   0.571276 0.264101 0.055377 0.151087
C33   C     C_R   0.509176 0.582943 0.938813 -0.060744
C34   C     C_R   0.526204 0.422223 0.063416 -0.065346
C35   C     C_R   0.482806 0.581338 0.060342 -0.067268
C36   C     C_R   0.501849 0.416735 0.941423 -0.068557
Cu1   Cu    Cu3+1 0.500000 0.589220 0.500000 1.027659
Cu2   Cu    Cu3+1 0.500000 0.410780 0.500000 0.982412
N1    N     N_1   0.500000 0.276710 0.500000 -0.159580
N2    N     N_1   0.500000 0.723290 0.500000 -0.137810
O1    O     O_R   0.380310 0.575320 0.500020 -0.554834
O2    O     O_R   0.619690 0.424680 0.499980 -0.579534
O3    O     O_R   0.619690 0.575320 0.499980 -0.548099
O4    O     O_R   0.380310 0.424680 0.500020 -0.567963
O5    O     O_R   0.499990 0.575350 0.319650 -0.562430
O6    O     O_R   0.500010 0.424650 0.680350 -0.558442
O7    O     O_R   0.500010 0.575350 0.680350 -0.564199
O8    O     O_R   0.499990 0.424650 0.319650 -0.566431
N3    N     N_2   0.091869 0.583579 0.693521 -0.431445
H1    H     H_    0.067624 0.576278 0.780186 0.257414
C37   C     C_3   0.117512 0.675610 0.666650 -0.660004
H2    H     H_    0.061987 0.720378 0.657795 0.221027
H3    H     H_    0.154271 0.678263 0.580673 0.252982
H4    H     H_    0.157496 0.701269 0.741922 0.224334
N4    N     N_2   0.907916 0.405961 0.320079 -0.441206
H5    H     H_    0.932572 0.410325 0.233368 0.259767
C38   C     C_3   0.880910 0.315155 0.351363 -0.680010
H6    H     H_    0.935833 0.270002 0.363992 0.229949
H7    H     H_    0.841456 0.287706 0.276631 0.232836
H8    H     H_    0.843130 0.315628 0.436441 0.245665
N5    N     N_2   0.912218 0.577693 0.702613 -0.416851
H9    H     H_    0.937846 0.636969 0.735369 0.265619
C39   C     C_3   0.888640 0.515212 0.798778 -0.720582
H10   H     H_    0.945081 0.484280 0.840826 0.221495
H11   H     H_    0.847791 0.460770 0.762183 0.242796
H12   H     H_    0.853644 0.552083 0.870737 0.227622
N6    N     N_2   0.087538 0.412018 0.311094 -0.412259
H13   H     H_    0.063348 0.350703 0.283072 0.266399
C40   C     C_3   0.108303 0.471452 0.210234 -0.700828
H14   H     H_    0.051078 0.490702 0.158990 0.214014
H15   H     H_    0.151797 0.436130 0.147272 0.232219
H16   H     H_    0.139158 0.533954 0.243793 0.235896
N7    N     N_2   0.619645 0.190758 0.102436 -0.437713
H17   H     H_    0.644813 0.148468 0.037409 0.268564
C41   C     C_3   0.580651 0.141464 0.201395 -0.718285
H18   H     H_    0.625281 0.090754 0.238433 0.222248
H19   H     H_    0.523852 0.105482 0.169364 0.228405
H20   H     H_    0.562969 0.188645 0.275373 0.241187
N8    N     N_2   0.554299 0.831689 0.911037 -0.426714
H21   H     H_    0.578612 0.873392 0.977573 0.250691
C42   C     C_3   0.508348 0.878654 0.816349 -0.683596
H22   H     H_    0.468531 0.932261 0.857205 0.218002
H23   H     H_    0.468549 0.831311 0.762925 0.226162
H24   H     H_    0.553424 0.911304 0.753235 0.252963
N9    N     N_2   0.509011 0.164816 0.899003 -0.455795
H25   H     H_    0.505368 0.112334 0.961000 0.264387
C43   C     C_3   0.563604 0.144647 0.797520 -0.669814
H26   H     H_    0.542298 0.081373 0.752838 0.236995
H27   H     H_    0.628802 0.134852 0.829347 0.236117
H28   H     H_    0.562557 0.200620 0.729692 0.244273
N10   N     N_2   0.430651 0.827334 0.102760 -0.424798
H29   H     H_    0.470584 0.882073 0.103850 0.255129
C44   C     C_3   0.348394 0.850670 0.057735 -0.644638
H30   H     H_    0.350245 0.863241 0.957748 0.216968
H31   H     H_    0.326047 0.913029 0.104120 0.241764
H32   H     H_    0.303239 0.795403 0.077018 0.237604
C45   C     C_2   0.655584 0.101116 0.507603 0.290457
H33   H     H_    0.660170 0.168324 0.467537 0.093649
O9    O     O_2   0.715511 0.071833 0.564333 -0.543432
C46   C     C_2   0.342274 0.901802 0.511343 0.398883
H34   H     H_    0.291709 0.930599 0.564629 0.099876
O10   O     O_2   0.330624 0.829453 0.460021 -0.559771
C47   C     C_2   0.343447 0.100970 0.493111 0.319462
H35   H     H_    0.339161 0.166777 0.536908 0.092239
O11   O     O_2   0.283072 0.073290 0.436122 -0.540681
C48   C     C_2   0.657223 0.902477 0.482984 0.415691
H36   H     H_    0.707815 0.932115 0.430404 0.103983
O12   O     O_2   0.669066 0.829705 0.533587 -0.554562
N11   N     N_2   0.385061 0.656633 0.204218 -0.376278
H37   H     H_    0.372495 0.716256 0.249591 0.314849
C49   C     C_3   0.311505 0.602699 0.179753 -0.697003
H38   H     H_    0.270759 0.602952 0.261658 0.229047
H39   H     H_    0.328701 0.531327 0.159700 0.224219
H40   H     H_    0.276252 0.631467 0.101321 0.217498
N12   N     N_2   0.416712 0.316099 0.808813 -0.378825
H41   H     H_    0.412211 0.252610 0.770200 0.277011
C50   C     C_3   0.336219 0.353150 0.842621 -0.674542
H42   H     H_    0.290796 0.341417 0.767594 0.225825
H43   H     H_    0.340435 0.427429 0.857842 0.224860
H44   H     H_    0.312886 0.319449 0.926862 0.222901
N13   N     N_2   0.604694 0.667342 0.801009 -0.373942
H45   H     H_    0.612441 0.727681 0.754670 0.313486
C51   C     C_3   0.683026 0.625456 0.835152 -0.670336
H46   H     H_    0.726170 0.626552 0.755741 0.256267
H47   H     H_    0.673439 0.553628 0.862520 0.215756
H48   H     H_    0.712140 0.663316 0.911790 0.223720
N14   N     N_2   0.634383 0.367135 0.206438 -0.393381
H49   H     H_    0.655030 0.311396 0.254620 0.282112
C52   C     C_3   0.702132 0.426627 0.170843 -0.707125
H50   H     H_    0.742650 0.439937 0.250929 0.250266
H51   H     H_    0.677929 0.492828 0.137621 0.226802
H52   H     H_    0.740229 0.394346 0.098060 0.229079

loop_
_geom_bond_atom_site_label_1
_geom_bond_atom_site_label_2
_ccdc_geom_bond_type
C7    C10   A    
N4    H5    S    
C39   H11   S    
C44   H30   S    
C10   C45   S    
N7    H17   S    
C49   H38   S    
C17   O8    A    
C29   N10   S    
C43   H26   S    
C18   O7    A    
C45   H33   S    
C27   N13   S    
C51   H46   S    
N9    H25   S    
C27   C33   A    
Cu2   O4    S    
C11   C19   A    
C17   O5    A    
C15   O4    A    
Cu2   O2    S    
Cu1   N2    S    
N11   C49   S    
Cu2   N1    S    
C51   H47   S    
C48   H36   S    
C3    C33   A    
N12   H41   S    
C6    C22   S    
C3    C18   S    
N5    C39   S    
C40   H15   S    
C26   N12   S    
C47   H35   S    
C42   H23   S    
C20   C24   S    
C8    C9    A    
N3    C37   S    
C1    C15   S    
Cu1   O7    S    
C2    C16   S    
Cu2   O8    S    
C28   N14   S    
C25   N11   S    
C52   H52   S    
C14   N4    S    
C39   H12   S    
C28   C34   A    
C44   H31   S    
N7    C41   S    
N5    H9    S    
C18   O6    A    
C45   O9    D    
C42   H22   S    
N9    C43   S    
C25   C29   A    
C12   N6    S    
C4    C34   A    
Cu2   O6    S    
C27   C31   A    
N6    H13   S    
C28   C32   A    
C15   O1    A    
C47   O11   D    
C50   H44   S    
N10   H29   S    
N8    C42   S    
C38   H8    S    
C6    C8    A    
N12   C50   S    
C37   H2    S    
C37   H3    S    
Cu1   O3    S    
C40   H16   S    
C19   C23   S    
C41   H18   S    
N14   C52   S    
C5    C9    A    
Cu1   Cu2   S    
N10   C44   S    
C12   C20   A    
C46   O10   D    
C7    C48   S    
C49   H39   S    
N4    C38   S    
C8    C47   S    
C30   N9    S    
C41   H19   S    
C16   O3    A    
N13   H45   S    
C25   C35   A    
C13   N3    S    
C4    C17   S    
C26   C36   A    
C12   C14   A    
C26   C30   A    
C44   H32   S    
C43   H27   S    
Cu1   O5    S    
N14   H49   S    
C16   O2    A    
C32   N7    S    
C42   H24   S    
C5    C7    A    
C52   H50   S    
C4    C35   A    
C13   C20   A    
C14   C19   A    
C39   H10   S    
C11   N5    S    
C6    C10   A    
C51   H48   S    
C31   N8    S    
C9    C46   S    
C37   H4    S    
C50   H43   S    
C29   C31   A    
C50   H42   S    
C30   C32   A    
C11   C13   A    
C38   H6    S    
C21   N2    T    
C48   O12   D    
C3    C36   A    
C22   N1    T    
C46   H34   S    
C33   C35   A    
C49   H40   S    
C34   C36   A    
Cu1   O1    S    
C40   H14   S    
C41   H20   S    
N13   C51   S    
C38   H7    S    
N8    H21   S    
C5    C21   S    
C1    C24   T    
N3    H1    S    
C43   H28   S    
C2    C23   T    
N6    C40   S    
N11   H37   S    
C52   H51   S    
