data_mof_unit_34273.cif
_audit_creation_date              2013-03-05T15:52:29-0500
_audit_creation_method            fapswitch 2.2
_symmetry_space_group_name_H-M    P1
_symmetry_Int_Tables_number       1
_space_group_crystal_system       triclinic
_cell_length_a                    11.110406
_cell_length_b                    11.221879
_cell_length_c                    18.732094
_cell_angle_alpha                 90.274902
_cell_angle_beta                  90.265914
_cell_angle_gamma                 59.070021
_cell_volume                      2003.36233925

loop_
_atom_site_label
_atom_site_type_symbol
_atom_site_description
_atom_site_fract_x
_atom_site_fract_y
_atom_site_fract_z
_atom_type_partial_charge
O1    O     O_R   0.748670 0.497520 0.427970 -0.517397
O2    O     O_R   0.476470 0.723930 0.429450 -0.495383
C1    C     C_R   0.354503 0.778915 0.400337 0.549274
O3    O     O_R   0.264730 0.744140 0.416740 -0.499382
O4    O     O_R   0.309440 0.472410 0.418220 -0.492992
C2    C     C_R   0.381477 0.351355 0.390490 0.528508
O5    O     O_R   0.501630 0.260530 0.414310 -0.538555
O6    O     O_R   0.727920 0.305730 0.428950 -0.499101
C3    C     C_R   0.778019 0.378379 0.403713 0.547082
O7    O     O_R   0.738670 0.496020 0.588600 -0.471712
O8    O     O_R   0.467190 0.722540 0.578350 -0.506045
C4    C     C_R   0.371104 0.709111 0.610983 0.541691
O9    O     O_R   0.254720 0.742640 0.577370 -0.468119
O10   O     O_R   0.300170 0.471020 0.567120 -0.503761
C5    C     C_R   0.369146 0.351102 0.595107 0.542833
O11   O     O_R   0.491630 0.259030 0.574940 -0.508242
O12   O     O_R   0.718640 0.304340 0.577850 -0.438048
C6    C     C_R   0.704212 0.409914 0.615887 0.519123
Cr1   Cr    Cr6+3 0.601740 0.606840 0.505840 1.049185
Cr2   Cr    Cr6+3 0.291500 0.601560 0.495070 1.056458
Cr3   Cr    Cr6+3 0.606780 0.291630 0.499130 1.051822
O13   O     O_3   0.500010 0.500010 0.500020 -0.322799
C7    C     C_R   0.784852 0.797767 0.119690 -0.121847
C8    C     C_R   0.831306 0.879601 0.150825 0.061129
C9    C     C_R   0.736063 0.999660 0.189431 -0.135052
C10   C     C_R   0.589052 0.055170 0.184881 -0.001739
H1    H     H_    0.514795 0.114306 0.317688 0.137844
C11   C     C_R   0.358031 0.307096 0.169783 0.002696
C12   C     C_R   0.443873 0.203399 0.285394 -0.150437
C13   C     C_R   0.467589 0.195180 0.212375 -0.029819
C14   C     C_R   0.113214 0.703686 0.287421 -0.057769
C15   C     C_R   0.011447 0.827740 0.319989 -0.075948
C16   C     C_R   0.553085 0.963476 0.160975 -0.028644
C17   C     C_R   0.645978 0.837193 0.127254 -0.103862
C18   C     C_R   0.253135 0.428519 0.203444 -0.173593
C19   C     C_R   0.246168 0.442458 0.277320 -0.043696
C20   C     C_R   0.929357 0.825228 0.375329 -0.107314
C21   C     C_R   0.951629 0.698430 0.399866 -0.090964
C22   C     C_R   0.054094 0.574764 0.368009 -0.062275
C23   C     C_R   0.133409 0.575655 0.309844 0.029623
C24   C     C_R   0.346465 0.329257 0.318429 0.002627
H2    H     H_    0.610904 0.772154 0.104356 0.155931
H3    H     H_    0.997097 0.926243 0.303310 0.150523
H4    H     H_    0.855208 0.703416 0.090772 0.169546
H5    H     H_    0.782225 0.045195 0.220283 0.137734
H6    H     H_    0.179508 0.706715 0.246337 0.142135
H7    H     H_    0.447058 0.002704 0.168505 0.135056
H8    H     H_    0.171060 0.511220 0.172080 0.167020
H9    H     H_    0.850908 0.921268 0.400223 0.119932
H10   H     H_    0.891233 0.695550 0.444296 0.145945
H11   H     H_    0.075727 0.476889 0.390500 0.116383
C25   C     C_R   0.878417 0.337313 0.186271 0.009607
C26   C     C_R   0.822775 0.265022 0.215784 0.031259
C27   C     C_R   0.811049 0.260320 0.289348 -0.008409
C28   C     C_R   0.894163 0.418197 0.303112 -0.174092
C29   C     C_R   0.916645 0.413947 0.230236 -0.168903
C30   C     C_3   0.676649 0.301475 0.202709 -0.284056
C31   C     C_3   0.668344 0.281756 0.282301 -0.240832
C32   C     C_R   0.844312 0.338808 0.334163 -0.001027
H12   H     H_    0.895650 0.497728 0.333333 0.147336
H13   H     H_    0.957803 0.474963 0.208301 0.150944
H14   H     H_    0.669066 0.234906 0.162408 0.158599
H15   H     H_    0.610391 0.407979 0.184500 0.134315
H16   H     H_    0.586758 0.374099 0.310605 0.149453
H17   H     H_    0.674520 0.186280 0.301305 0.149060
C33   C     C_R   0.292653 0.928265 0.187875 0.022829
C34   C     C_R   0.412194 0.808337 0.209348 0.001837
C35   C     C_R   0.436817 0.771471 0.280162 0.025548
C36   C     C_R   0.221045 0.976159 0.313223 -0.158010
C37   C     C_R   0.200636 0.017764 0.241015 -0.129932
C38   C     C_3   0.465767 0.664909 0.184311 -0.275521
C39   C     C_3   0.493957 0.623853 0.262037 -0.281804
C40   C     C_R   0.338305 0.847651 0.332266 0.020994
H18   H     H_    0.143322 0.040048 0.352752 0.126639
H19   H     H_    0.110687 0.115425 0.226270 0.135188
H20   H     H_    0.563155 0.622964 0.152454 0.135611
H21   H     H_    0.383010 0.649525 0.160394 0.142968
H22   H     H_    0.426902 0.585128 0.282899 0.133912
H23   H     H_    0.606868 0.562854 0.275543 0.158805
C41   C     C_R   0.315717 0.311553 0.812792 0.002230
C42   C     C_R   0.394684 0.195045 0.769104 0.033540
C43   C     C_R   0.401684 0.206697 0.696921 0.017260
C44   C     C_R   0.257503 0.454473 0.709052 -0.132074
C45   C     C_R   0.251928 0.443297 0.782862 -0.191655
C46   C     C_3   0.389343 0.065389 0.762046 -0.238273
C47   C     C_3   0.394547 0.079808 0.682047 -0.254431
C48   C     C_R   0.327543 0.335830 0.665266 0.030311
H24   H     H_    0.210876 0.554890 0.685635 0.148929
H25   H     H_    0.194390 0.535198 0.815624 0.119712
H26   H     H_    0.289336 0.076806 0.781002 0.160120
H27   H     H_    0.485979 0.975678 0.783846 0.206248
H28   H     H_    0.492697 0.995332 0.657568 0.187209
H29   H     H_    0.296060 0.103339 0.654291 0.177225
C49   C     C_R   0.808268 0.346549 0.837209 0.078814
C50   C     C_R   0.849013 0.417137 0.791384 0.029432
C51   C     C_R   0.815162 0.434619 0.721192 0.056862
C52   C     C_R   0.675960 0.329444 0.737375 -0.114860
C53   C     C_R   0.711068 0.311634 0.811072 -0.078829
C54   C     C_3   0.989446 0.400023 0.778421 -0.214726
C55   C     C_3   0.953516 0.414944 0.699519 0.109700
C56   C     C_R   0.736978 0.383518 0.691302 0.007140
H30   H     H_    0.604818 0.298973 0.716434 0.143926
H31   H     H_    0.667159 0.267198 0.845972 0.161509
H32   H     H_    0.076114 0.294712 0.792977 0.130913
H33   H     H_    0.994877 0.487953 0.802130 0.177029
H34   H     H_    0.018890 0.318630 0.667781 0.152988
C57   C     C_R   0.322700 0.800143 0.835589 0.006031
C58   C     C_R   0.223557 0.785967 0.795439 -0.051693
C59   C     C_R   0.237742 0.766725 0.723415 -0.045209
C60   C     C_R   0.472815 0.719299 0.729633 -0.176909
C61   C     C_R   0.457191 0.747217 0.804117 -0.003549
C62   C     C_3   0.066969 0.848015 0.788829 0.118832
C63   C     C_3   0.084278 0.832635 0.707521 0.117169
C64   C     C_R   0.358770 0.736849 0.687577 0.001293
H35   H     H_    0.572376 0.687144 0.704470 0.188812
H36   H     H_    0.031317 0.780366 0.812176 0.096745
H37   H     H_    0.050303 0.764126 0.683917 0.132547
O14   O     O_R   0.186620 0.923750 0.087000 -0.461130
O15   O     O_R   0.957350 0.194160 0.084660 -0.497049
C65   C     C_R   0.917441 0.314732 0.112717 0.525655
O16   O     O_R   0.935120 0.407280 0.085350 -0.535323
O17   O     O_R   0.203800 0.365060 0.067090 -0.493926
C66   C     C_R   0.327836 0.287380 0.095249 0.532983
O18   O     O_R   0.417470 0.174910 0.067830 -0.518322
O19   O     O_R   0.375160 0.946380 0.070880 -0.528915
C67   C     C_R   0.268763 0.963018 0.111881 0.530771
O20   O     O_R   0.160500 0.919670 0.926690 -0.461281
O21   O     O_R   0.933140 0.190380 0.936050 -0.429942
C68   C     C_R   0.876319 0.313789 0.907374 0.578265
O22   O     O_R   0.909010 0.403210 0.925030 -0.516102
O23   O     O_R   0.179590 0.361290 0.918480 -0.508019
C69   C     C_R   0.296602 0.286892 0.885820 0.543063
O24   O     O_R   0.391360 0.170840 0.907510 -0.501336
O25   O     O_R   0.350950 0.942600 0.922260 -0.481940
C70   C     C_R   0.279002 0.887825 0.900126 0.589449
Cr4   Cr    Cr6+3 0.062440 0.063060 0.008240 1.113633
Cr5   Cr    Cr6+3 0.062950 0.375000 0.998920 1.029257
Cr6   Cr    Cr6+3 0.374550 0.061770 0.992470 1.056076
O26   O     O_3   0.166650 0.166610 0.999880 -0.306187
N1    N     N_R   0.940418 0.539603 0.667101 0.081767
O27   O     O_R   0.866028 0.661053 0.697042 -0.325198
O28   O     O_R   0.996175 0.530558 0.604921 -0.345964
C71   C     C_2   0.580966 0.720954 0.847158 0.561081
O29   O     O_2   0.590488 0.686411 0.909731 -0.514602
O30   O     O_R   0.688326 0.732728 0.815975 -0.675289
H38   H     H_    0.766727 0.712304 0.850812 0.349503
N2    N     N_R   0.984733 0.990566 0.813197 0.132514
O31   O     O_R   0.877771 0.025413 0.854402 -0.344823
O32   O     O_R   0.024756 0.078551 0.799553 -0.352794
N3    N     N_R   0.023483 0.965207 0.669314 0.142181
O33   O     O_R   0.890237 0.032250 0.654233 -0.294751
O34   O     O_R   0.100235 0.015214 0.648220 -0.326925
C72   C     C_2   0.977048 0.843306 0.140788 0.556034
O35   O     O_2   0.017878 0.913771 0.169588 -0.538957
O36   O     O_R   0.067564 0.730207 0.097767 -0.723186
H39   H     H_    0.166941 0.711366 0.097464 0.341480

loop_
_geom_bond_atom_site_label_1
_geom_bond_atom_site_label_2
_geom_bond_distance
_ccdc_geom_bond_type
C51   C56   1.378910 A    
C22   H11   1.083400 S    
C28   C29   1.385118 A    
O11   Cr3   2.071282 S    
C41   C69   1.435200 S    
C28   C32   1.397843 A    
H1    C12   1.085344 S    
C44   C48   1.407584 A    
C50   C51   1.353059 A    
C17   H2    1.075334 S    
C62   H36   1.112828 S    
C41   C45   1.389066 A    
O21   C68   1.307758 A    
C52   C53   1.419654 A    
C46   H27   1.105325 S    
C11   C66   1.476412 S    
C66   O18   1.246980 A    
O4    Cr2   1.974396 S    
C33   C37   1.410359 A    
C46   C47   1.512584 S    
C14   C23   1.401615 A    
Cr5   O26   2.006732 S    
O8    Cr1   1.942180 S    
C12   C13   1.387775 A    
O18   Cr6   2.105011 S    
N2    O32   1.301051 A    
O20   C70   1.276510 A    
C39   H23   1.105569 S    
O21   Cr4   1.955585 S    
O4    C2    1.278756 A    
C50   C54   1.491753 S    
C49   C53   1.409856 A    
C71   O29   1.223261 D    
C58   C59   1.362317 A    
O16   Cr5   2.063096 S    
C60   C61   1.420251 A    
C39   H22   1.110735 S    
C55   N1    1.464571 S    
N2    O31   1.299550 A    
C11   C18   1.406631 A    
C69   O24   1.249466 A    
C2    C24   1.458090 S    
C57   C70   1.472513 S    
C57   C58   1.405556 A    
C8    C9    1.410706 A    
C36   C40   1.404813 A    
C72   O36   1.399023 S    
C60   C64   1.414431 A    
C52   H30   1.081305 S    
C59   C63   1.497969 S    
C44   H24   1.064494 S    
O24   Cr6   2.078999 S    
C28   H12   1.061847 S    
C19   C24   1.412345 A    
C49   C50   1.395704 A    
Cr4   O26   2.025304 S    
C18   H8    1.080881 S    
C31   H17   1.098749 S    
C62   C63   1.533807 S    
O30   H38   1.013934 S    
O36   H39   1.011876 S    
C4    C64   1.458730 S    
C27   C32   1.393454 A    
C31   H16   1.100081 S    
C54   H33   1.109631 S    
O1    Cr1   2.060056 S    
C49   C68   1.464237 S    
C5    O11   1.271919 A    
C34   C35   1.375187 A    
O10   Cr2   1.962011 S    
C30   H14   1.092594 S    
Cr1   O13   2.029060 S    
O1    C3    1.283633 A    
N1    O27   1.301598 A    
O17   Cr5   1.973670 S    
C22   C23   1.407792 A    
C26   C30   1.475698 S    
O6    C3    1.292511 A    
C9    C10   1.420004 A    
C43   C47   1.491147 S    
C14   H6    1.080370 S    
C42   C43   1.365483 A    
C7    H4    1.083115 S    
C33   C67   1.464369 S    
C3    C32   1.450560 S    
C6    C56   1.450625 S    
C20   C21   1.392999 A    
O23   Cr5   1.945376 S    
C47   H29   1.111944 S    
C20   H9    1.082580 S    
C10   C16   1.354850 A    
C44   C45   1.393416 A    
O10   C5    1.271202 A    
C19   C23   1.499415 S    
O7    Cr1   2.077524 S    
C35   C39   1.475806 S    
C7    C17   1.377019 A    
C52   C56   1.416327 A    
O12   C6    1.317083 A    
C36   H18   1.082779 S    
C15   C20   1.393823 A    
O20   Cr4   2.073518 S    
O15   C65   1.296979 A    
O25   C70   1.299351 A    
C59   C64   1.383468 A    
C63   H37   1.105687 S    
C25   C65   1.428242 S    
Cr2   O13   1.989771 S    
C10   C13   1.540809 S    
O19   C67   1.342498 A    
C16   H7    1.034031 S    
N3    O34   1.302069 A    
C45   H25   1.081075 S    
C1    O3    1.282830 A    
C9    H5    1.059242 S    
C38   H20   1.108227 S    
C38   H21   1.111101 S    
O14   Cr4   2.076085 S    
C8    C72   1.465380 S    
C5    C48   1.435077 S    
C68   O22   1.272250 A    
C27   C31   1.481694 S    
C71   O30   1.396666 S    
C54   H32   1.108620 S    
O9    Cr2   2.089860 S    
C12   C24   1.405527 A    
O2    Cr1   1.957251 S    
C29   H13   1.083089 S    
C57   C61   1.423234 A    
C63   N3    1.467812 S    
C14   C15   1.403126 A    
C30   H15   1.088041 S    
N1    O28   1.300641 A    
C41   C42   1.402175 A    
O23   C69   1.283810 A    
O6    Cr3   1.949893 S    
O25   Cr6   1.981726 S    
C46   H26   1.110840 S    
C26   C27   1.388558 A    
C2    O5    1.272848 A    
C21   H10   1.082455 S    
C61   C71   1.484396 S    
O19   Cr6   1.960423 S    
C55   H34   1.113561 S    
O15   Cr4   1.950991 S    
N3    O33   1.300265 A    
C62   N2    1.447951 S    
C11   C13   1.457602 A    
O2    C1    1.285013 A    
C35   C40   1.386152 A    
C38   C39   1.511326 S    
O5    Cr3   2.099448 S    
C54   C55   1.516604 S    
C30   C31   1.518486 S    
C21   C22   1.397243 A    
C25   C29   1.401291 A    
O7    C6    1.314672 A    
C51   C55   1.494151 S    
C15   H3    1.080088 S    
C16   C17   1.402289 A    
C33   C34   1.378321 A    
C34   C38   1.474907 S    
C36   C37   1.411851 A    
C1    C40   1.455299 S    
O12   Cr3   1.975481 S    
Cr6   O26   1.986623 S    
C7    C8    1.388950 A    
O3    Cr2   2.081036 S    
C58   C62   1.510127 S    
C43   C48   1.380841 A    
C4    O9    1.305620 A    
C37   H19   1.072639 S    
O17   C66   1.303847 A    
C65   O16   1.263225 A    
C47   H28   1.111701 S    
C18   C19   1.389945 A    
O14   C67   1.285227 A    
C72   O35   1.218394 D    
Cr3   O13   2.005967 S    
O22   Cr5   2.089708 S    
C60   H35   1.081140 S    
C42   C46   1.491572 S    
C53   H31   1.081754 S    
O8    C4    1.307052 A    
C25   C26   1.367090 A    
