data_mof_unit_27828.cif
_audit_creation_date              2012-12-10T17:50:46-0500
_audit_creation_method            fapswitch 2.2
_symmetry_space_group_name_H-M    P1
_symmetry_Int_Tables_number       1
_space_group_crystal_system       triclinic
_cell_length_a                    14.716599
_cell_length_b                    14.739668
_cell_length_c                    15.854107
_cell_angle_alpha                 76.810484
_cell_angle_beta                  103.006746
_cell_angle_gamma                 114.949304
_cell_volume                      3003.36012191

loop_
_atom_site_label
_atom_site_type_symbol
_atom_type_description
_atom_site_fract_x
_atom_site_fract_y
_atom_site_fract_z
_atom_type_partial_charge
C1    C     C_R   0.879784 0.312209 0.512200 0.808053
C2    C     C_R   0.120011 0.687744 0.486219 0.831808
C3    C     C_R   0.785834 0.027247 0.569208 0.014905
C4    C     C_R   0.216692 0.963527 0.510362 0.023249
C5    C     C_R   0.849634 0.129836 0.557485 -0.332418
C6    C     C_R   0.151992 0.863328 0.501369 -0.355475
C7    C     C_R   0.705225 0.174681 0.493821 0.179629
C8    C     C_R   0.291899 0.826394 0.484172 0.197599
C9    C     C_R   0.639204 0.075528 0.522780 0.018449
C10   C     C_R   0.360705 0.921499 0.507674 0.011904
C11   C     C_R   0.679275 0.999478 0.555244 0.083731
C12   C     C_R   0.322365 0.994201 0.511324 0.086234
C13   C     C_R   0.533638 0.049686 0.518496 0.090115
C14   C     C_R   0.466879 0.947092 0.525267 0.089960
C15   C     C_R   0.507736 0.873077 0.558785 -0.227051
C16   C     C_R   0.493944 0.122399 0.515979 -0.210104
C17   C     C_R   0.611722 0.898969 0.575694 -0.181665
C18   C     C_R   0.390902 0.095010 0.514242 -0.185852
C19   C     C_R   0.710953 0.663276 0.348469 0.103954
C20   C     C_R   0.288071 0.334790 0.649646 0.135029
C21   C     C_R   0.794712 0.635411 0.374031 0.419306
C22   C     C_R   0.205737 0.364899 0.626194 0.417171
C23   C     C_R   0.999866 0.500118 0.660076 0.829052
C24   C     C_R   0.000197 0.500013 0.339905 0.825813
C25   C     C_R   0.715287 0.511025 0.488539 -0.082010
C26   C     C_R   0.282579 0.485931 0.508930 -0.091809
C27   C     C_R   0.626159 0.532104 0.463670 -0.052615
C28   C     C_R   0.368433 0.459487 0.529152 -0.065109
C29   C     C_R   0.625462 0.610122 0.392422 0.072850
C30   C     C_R   0.368789 0.380701 0.599719 0.072550
C31   C     C_R   0.538411 0.479082 0.507301 0.117237
C32   C     C_R   0.453549 0.508403 0.482010 0.114537
C33   C     C_R   0.456429 0.585338 0.410153 -0.235419
C34   C     C_R   0.531970 0.396508 0.574322 -0.250847
C35   C     C_R   0.539330 0.633528 0.365885 -0.181634
C36   C     C_R   0.449195 0.348423 0.618831 -0.172229
C37   C     C_3   0.962775 0.403880 0.040575 -0.159975
C38   C     C_3   0.037386 0.595854 0.959487 -0.153572
C39   C     C_3   0.904694 0.451816 0.962416 -0.157873
C40   C     C_3   0.095470 0.547920 0.037641 -0.157970
C41   C     C_1   0.999572 0.500225 0.749805 -0.189637
C42   C     C_1   0.000465 0.499873 0.250175 -0.187348
C43   C     C_3   0.057899 0.452037 0.993922 -0.161380
C44   C     C_3   0.942263 0.547697 0.006122 -0.156732
C45   C     C_3   0.999815 0.499976 0.917306 0.193090
C46   C     C_3   0.000341 0.499769 0.082752 0.192099
C47   C     C_1   0.999593 0.500134 0.825461 -0.077614
C48   C     C_1   0.000497 0.499787 0.174559 -0.078820
C49   C     C_R   0.810757 0.204268 0.520697 -0.102003
C50   C     C_R   0.188316 0.794863 0.487839 -0.100949
Cu1   Cu    Cu3+1 0.081740 0.475690 0.522610 0.958161
Cu2   Cu    Cu3+1 0.918260 0.524310 0.477390 0.954667
H1    H     H_    0.826387 0.412389 0.930183 0.129634
H2    H     H_    0.173775 0.587348 0.069880 0.128349
H3    H     H_    0.274599 0.542255 0.454778 0.155602
H4    H     H_    0.723155 0.455199 0.543411 0.146529
H5    H     H_    0.394992 0.609985 0.385167 0.137482
H6    H     H_    0.589489 0.365783 0.593704 0.125265
H7    H     H_    0.932166 0.325084 0.075217 0.128655
H8    H     H_    0.067990 0.674653 0.924849 0.133474
H9    H     H_    0.894803 0.586961 0.012487 0.130068
H10   H     H_    0.105333 0.412774 0.987480 0.127842
H11   H     H_    0.637630 0.839095 0.606297 0.200116
H12   H     H_    0.366414 0.154905 0.512664 0.202894
H13   H     H_    0.072630 0.838006 0.506737 0.168396
H14   H     H_    0.930775 0.151281 0.573504 0.161885
H15   H     H_    0.459997 0.795372 0.579114 0.152082
H16   H     H_    0.542473 0.200181 0.522234 0.149315
H17   H     H_    0.534391 0.690107 0.310175 0.144993
H18   H     H_    0.449686 0.285075 0.668931 0.155668
N1    N     N_R   0.795440 0.560790 0.443380 -0.209864
N2    N     N_R   0.204560 0.439210 0.556620 -0.212201
O1    O     O_R   0.977900 0.338120 0.529810 -0.561462
O2    O     O_R   0.022100 0.661880 0.470190 -0.556910
O3    O     O_R   0.839850 0.379180 0.491620 -0.596114
O4    O     O_R   0.160150 0.620820 0.508380 -0.584229
O5    O     O_R   0.069010 0.479460 0.640020 -0.552350
O6    O     O_R   0.930990 0.520540 0.359980 -0.561898
O7    O     O_R   0.930960 0.520530 0.601820 -0.575430
O8    O     O_R   0.069040 0.479470 0.398180 -0.577172
N3    N     N_2   0.118538 0.310573 0.668975 -0.365494
H19   H     H_    0.085622 0.234759 0.663087 0.235825
C51   C     C_3   0.127981 0.327202 0.757724 -0.637115
H20   H     H_    0.151667 0.270534 0.805500 0.223854
H21   H     H_    0.052967 0.317280 0.770434 0.217958
H22   H     H_    0.182874 0.404906 0.768055 0.222299
N4    N     N_2   0.874845 0.678062 0.322578 -0.366984
H23   H     H_    0.852458 0.660392 0.259842 0.233227
C52   C     C_3   0.940686 0.783466 0.325377 -0.621644
H24   H     H_    0.915698 0.832327 0.269105 0.220225
H25   H     H_    0.018819 0.794786 0.320193 0.221310
H26   H     H_    0.942042 0.806941 0.387536 0.217569
N5    N     N_2   0.713475 0.742841 0.277092 -0.447062
H27   H     H_    0.653914 0.722943 0.226925 0.242661
C53   C     C_3   0.735522 0.839738 0.301680 -0.661542
H28   H     H_    0.671138 0.837877 0.328340 0.228752
H29   H     H_    0.749799 0.899040 0.243148 0.214410
H30   H     H_    0.803825 0.860877 0.351946 0.247949
N6    N     N_2   0.287242 0.257638 0.722883 -0.425840
H31   H     H_    0.294975 0.196381 0.709253 0.291524
C54   C     C_3   0.350296 0.293600 0.802560 -0.730933
H32   H     H_    0.431803 0.321580 0.796998 0.225138
H33   H     H_    0.333101 0.230570 0.858139 0.231377
H34   H     H_    0.335525 0.355940 0.817122 0.235545
N7    N     N_2   0.323186 0.768153 0.445007 -0.430833
H35   H     H_    0.341221 0.710174 0.483925 0.254439
C55   C     C_3   0.369200 0.814637 0.365989 -0.690664
H36   H     H_    0.451472 0.830683 0.380726 0.234505
H37   H     H_    0.358486 0.886208 0.336833 0.234710
H38   H     H_    0.333551 0.761630 0.317208 0.218937
N8    N     N_2   0.665506 0.236731 0.426524 -0.431635
H39   H     H_    0.668765 0.302020 0.442506 0.265760
C56   C     C_3   0.688743 0.247216 0.340022 -0.639383
H40   H     H_    0.645790 0.287555 0.291624 0.217246
H41   H     H_    0.666260 0.171410 0.321719 0.227437
H42   H     H_    0.770943 0.291380 0.337658 0.215829
C57   C     C_2   0.835447 0.953734 0.596136 0.317315
H43   H     H_    0.910104 0.975374 0.635082 0.077182
O9    O     O_2   0.797511 0.871719 0.570560 -0.559994
C58   C     C_2   0.169148 0.029715 0.522911 0.326870
H44   H     H_    0.090780 0.015180 0.494680 0.076475
O10   O     O_2   0.213488 0.096240 0.568773 -0.590867

loop_
_geom_bond_atom_site_label_1
_geom_bond_atom_site_label_2
_ccdc_geom_bond_type
N4    H23   S    
C21   N4    S    
N5    H27   S    
C27   C29   A    
C26   N2    A    
C53   H28   S    
C25   H4    S    
Cu2   O3    S    
C26   H3    S    
N3    H19   S    
C53   H30   S    
C20   C30   A    
C40   C46   S    
N7    C55   S    
C54   H32   S    
C21   N1    A    
C19   C21   A    
Cu2   O2    S    
C57   O9    D    
C24   C42   S    
C15   C17   A    
C9    C13   A    
Cu1   O8    S    
C38   C45   S    
C2    C50   S    
C24   O8    A    
C6    H13   S    
C51   H20   S    
C44   C46   S    
C55   H36   S    
C16   H16   S    
C4    C12   A    
Cu2   O7    S    
C3    C57   S    
C19   N5    S    
C39   C45   S    
C56   H42   S    
N5    C53   S    
C13   C14   A    
C8    N7    S    
C55   H37   S    
C5    C49   A    
Cu2   O6    S    
C22   N2    A    
N3    C51   S    
C36   H18   S    
C45   C47   S    
C46   C48   S    
C27   C31   A    
Cu1   Cu2   S    
C1    O3    A    
C22   N3    S    
C28   C32   A    
Cu1   O4    S    
C7    C49   A    
C4    C6    A    
C10   C14   A    
C23   O5    A    
C37   C43   S    
Cu1   O5    S    
C38   C44   S    
C9    C11   A    
C31   C32   A    
C15   H15   S    
C40   C43   S    
C41   C47   T    
C31   C34   A    
N8    C56   S    
C16   C18   A    
C42   C48   T    
C25   N1    A    
C6    C50   A    
C52   H26   S    
C43   C45   S    
C37   H7    S    
C10   C12   A    
C38   H8    S    
C24   O6    A    
C51   H21   S    
C20   C22   A    
C54   H34   S    
C40   H2    S    
N4    C52   S    
C55   H38   S    
C52   H25   S    
Cu1   N2    S    
C19   C29   A    
C8    C50   A    
C2    O4    A    
C58   H44   S    
C58   O10   D    
C56   H40   S    
C7    C9    A    
C11   C17   A    
C33   H5    S    
N8    H39   S    
N6    C54   S    
C8    C10   A    
Cu1   O1    S    
C5    H14   S    
C3    C5    A    
C2    O2    A    
C53   H29   S    
C39   C44   S    
C44   H9    S    
C25   C27   A    
N7    H35   S    
C29   C35   A    
C26   C28   A    
C23   C41   S    
N6    H31   S    
C30   C36   A    
C1    O1    A    
C32   C33   A    
C28   C30   A    
C52   H24   S    
C37   C39   S    
Cu2   N1    S    
C57   H43   S    
C17   H11   S    
C38   C40   S    
C18   H12   S    
C39   H1    S    
C20   N6    S    
C33   C35   A    
C7    N8    S    
C34   C36   A    
C3    C11   A    
C51   H22   S    
C35   H17   S    
C54   H33   S    
C13   C16   A    
C12   C18   A    
C34   H6    S    
C14   C15   A    
C4    C58   S    
C23   O7    A    
C37   C46   S    
C1    C49   S    
C43   H10   S    
C56   H41   S    
