data_mof_unit_35325.cif
_audit_creation_date              2012-12-10T19:12:17-0500
_audit_creation_method            fapswitch 2.2
_symmetry_space_group_name_H-M    P1
_symmetry_Int_Tables_number       1
_space_group_crystal_system       triclinic
_cell_length_a                    7.874766
_cell_length_b                    9.099854
_cell_length_c                    17.018355
_cell_angle_alpha                 89.743082
_cell_angle_beta                  91.861054
_cell_angle_gamma                 89.802475
_cell_volume                      1218.85865846

loop_
_atom_site_label
_atom_site_type_symbol
_atom_type_description
_atom_site_fract_x
_atom_site_fract_y
_atom_site_fract_z
_atom_type_partial_charge
C1    C     C_R   0.500057 0.220390 0.498709 0.840079
C2    C     C_R   0.499712 0.779611 0.498072 0.818089
C3    C     C_R   0.517460 0.503178 0.651500 0.845129
C4    C     C_R   0.479705 0.523762 0.349773 0.814674
C5    C     C_R   0.515889 0.513823 0.738667 -0.154883
C6    C     C_R   0.461770 0.572296 0.265523 -0.161006
C7    C     C_R   0.401505 0.614919 0.773433 0.056870
C8    C     C_R   0.604703 0.606584 0.221433 0.001340
C9    C     C_R   0.379127 0.612198 0.855612 0.160198
C10   C     C_R   0.587686 0.597962 0.138377 0.194158
C11   C     C_R   0.477465 0.512776 0.903679 0.200876
C12   C     C_R   0.424680 0.607923 0.102973 0.267598
C13   C     C_R   0.596646 0.419434 0.869496 0.188255
C14   C     C_R   0.290167 0.646005 0.149516 0.171745
C15   C     C_R   0.616057 0.417116 0.787029 0.010409
C16   C     C_R   0.301771 0.617512 0.231394 0.043573
C17   C     C_1   0.500116 0.065441 0.497974 -0.186176
C18   C     C_1   0.499645 0.934571 0.497673 -0.179724
Cu1   Cu    Cu3+1 0.669080 0.500010 0.500000 0.971969
Cu2   Cu    Cu3+1 0.330920 0.499990 0.500000 0.969131
N1    N     N_1   0.076820 0.499970 0.500010 -0.063231
N2    N     N_1   0.923180 0.500030 0.499990 -0.067764
N3    N     N_2   0.475230 0.507172 0.987598 -0.170215
N4    N     N_2   0.399645 0.609129 0.020244 -0.214178
O1    O     O_R   0.642760 0.288400 0.500000 -0.567332
O2    O     O_R   0.357240 0.711600 0.500000 -0.585773
O3    O     O_R   0.357190 0.288380 0.500000 -0.570967
O4    O     O_R   0.642810 0.711620 0.500000 -0.579709
O5    O     O_R   0.658410 0.498660 0.613920 -0.582993
O6    O     O_R   0.341590 0.501340 0.386080 -0.579013
O7    O     O_R   0.372840 0.498650 0.613930 -0.590344
O8    O     O_R   0.627160 0.501350 0.386070 -0.593487
C19   C     C_3   0.719651 0.725411 0.254639 -0.389627
C20   C     C_3   0.626093 0.872400 0.261018 -0.840671
H1    H     H_    0.569280 0.905507 0.202957 0.252912
H2    H     H_    0.524222 0.864739 0.304482 0.244099
H3    H     H_    0.716987 0.958640 0.280899 0.242047
H4    H     H_    0.772542 0.696098 0.313567 0.234758
H5    H     H_    0.824116 0.743812 0.214856 0.210217
C21   C     C_3   0.309226 0.732924 0.723643 -0.337480
C22   C     C_3   0.435217 0.847878 0.696662 -0.861017
H6    H     H_    0.509474 0.890011 0.748099 0.245805
H7    H     H_    0.526462 0.799771 0.655889 0.247784
H8    H     H_    0.366412 0.940085 0.666686 0.249029
H9    H     H_    0.236555 0.687307 0.672936 0.224924
H10   H     H_    0.208863 0.790490 0.755639 0.224899
N5    N     N_2   0.732155 0.593990 0.090227 -0.396512
H11   H     H_    0.836416 0.540374 0.114343 0.237532
C23   C     C_3   0.766717 0.726156 0.045302 -0.671053
H12   H     H_    0.880407 0.708281 0.009620 0.237944
H13   H     H_    0.788341 0.821171 0.084926 0.211225
H14   H     H_    0.660850 0.754188 0.003758 0.242512
N6    N     N_2   0.249682 0.702669 0.887481 -0.420577
H15   H     H_    0.169815 0.651698 0.925837 0.278251
C24   C     C_3   0.297173 0.852033 0.908130 -0.659286
H16   H     H_    0.340449 0.913782 0.856437 0.223971
H17   H     H_    0.401148 0.853604 0.953402 0.231240
H18   H     H_    0.185315 0.910630 0.930950 0.221158
N7    N     N_2   0.700555 0.330743 0.921226 -0.392076
H19   H     H_    0.829491 0.333947 0.912880 0.241853
C25   C     C_3   0.633651 0.187179 0.939608 -0.679809
H20   H     H_    0.711713 0.136812 0.988174 0.219444
H21   H     H_    0.638045 0.114210 0.887699 0.218666
H22   H     H_    0.500586 0.196276 0.958926 0.236645
N8    N     N_2   0.151782 0.723383 0.113582 -0.421498
H23   H     H_    0.037410 0.695929 0.135485 0.259513
C26   C     C_3   0.176649 0.880866 0.110194 -0.723649
H24   H     H_    0.177841 0.928274 0.170259 0.220141
H25   H     H_    0.071895 0.932537 0.074604 0.224666
H26   H     H_    0.298589 0.907462 0.082492 0.238011
C27   C     C_3   0.734164 0.304459 0.750891 -0.359424
C28   C     C_3   0.633312 0.179476 0.712801 -0.825583
H27   H     H_    0.538956 0.137928 0.754340 0.242945
H28   H     H_    0.564312 0.216459 0.658698 0.246177
H29   H     H_    0.720562 0.088824 0.697160 0.243887
H30   H     H_    0.818228 0.356767 0.708071 0.224011
H31   H     H_    0.823352 0.253751 0.794598 0.197070
C29   C     C_3   0.149313 0.646349 0.281051 -0.356976
C30   C     C_3   0.041440 0.506743 0.286595 -0.758805
H32   H     H_    0.962618 0.492238 0.232332 0.213882
H33   H     H_    0.121448 0.406658 0.293986 0.258831
H34   H     H_    0.958382 0.512922 0.337669 0.252464
H35   H     H_    0.185623 0.690486 0.339704 0.219536
H36   H     H_    0.075743 0.740811 0.258457 0.168697

loop_
_geom_bond_atom_site_label_1
_geom_bond_atom_site_label_2
_ccdc_geom_bond_type
C24   H16   S    
C2    C18   S    
C20   H3    S    
C22   H6    S    
Cu1   Cu2   S    
N5    C23   S    
Cu2   O6    S    
N6    H15   S    
C21   H10   S    
C19   H5    S    
C27   H30   S    
C25   H21   S    
C20   H1    S    
C3    O5    A    
C29   H35   S    
C23   H13   S    
C7    C21   S    
C16   C29   S    
N7    H19   S    
N1    N2    T    
C1    O1    A    
C22   H7    S    
C28   H29   S    
Cu1   O8    S    
C19   C20   S    
N6    C24   S    
C21   H9    S    
N7    C25   S    
C26   H24   S    
Cu1   N2    S    
C28   H28   S    
C5    C7    A    
C29   C30   S    
C6    C8    A    
N8    C26   S    
C26   H25   S    
C25   H22   S    
N5    H11   S    
N3    N4    D    
C23   H14   S    
C17   C18   T    
C2    O2    A    
C3    O7    A    
Cu1   O4    S    
C9    C11   A    
C4    O8    A    
C10   C12   A    
C4    C6    S    
C21   C22   S    
C12   C14   A    
N8    H23   S    
C13   C15   A    
C22   H8    S    
C14   C16   A    
C9    N6    S    
Cu1   O5    S    
C27   H31   S    
C30   H33   S    
C7    C9    A    
C28   H27   S    
C3    C5    S    
C30   H34   S    
C13   N7    S    
Cu2   O3    S    
C15   C27   S    
C12   N4    S    
C1    C17   S    
C19   H4    S    
C26   H26   S    
C24   H17   S    
C27   C28   S    
C11   C13   A    
Cu2   O2    S    
C11   N3    S    
C14   N8    S    
C20   H2    S    
C8    C19   S    
C25   H20   S    
Cu1   O1    S    
C5    C15   A    
C6    C16   A    
C30   H32   S    
C29   H36   S    
Cu2   N1    S    
C8    C10   A    
C23   H12   S    
C24   H18   S    
C10   N5    S    
C1    O3    A    
C2    O4    A    
C4    O6    A    
Cu2   O7    S    
