data_mof_unit_53546.cif
_audit_creation_date              2012-12-10T18:05:12-0500
_audit_creation_method            fapswitch 2.2
_symmetry_space_group_name_H-M    P1
_symmetry_Int_Tables_number       1
_space_group_crystal_system       triclinic
_cell_length_a                    9.577148
_cell_length_b                    10.847782
_cell_length_c                    17.094744
_cell_angle_alpha                 88.25841
_cell_angle_beta                  95.082401
_cell_angle_gamma                 87.959953
_cell_volume                      1766.87892742

loop_
_atom_site_label
_atom_site_type_symbol
_atom_type_description
_atom_site_fract_x
_atom_site_fract_y
_atom_site_fract_z
_atom_type_partial_charge
C1    C     C_R   0.502630 0.262129 0.499551 0.858865
C2    C     C_R   0.498229 0.737298 0.499665 0.875581
C3    C     C_R   0.434271 0.940100 0.433018 0.200833
C4    C     C_R   0.592131 0.056385 0.554229 0.200712
C5    C     C_R   0.497487 0.870990 0.498700 -0.214561
C6    C     C_R   0.509060 0.127678 0.495990 -0.197497
C7    C     C_R   0.087703 0.447499 0.561020 -0.105272
C8    C     C_R   0.912734 0.551427 0.438752 -0.144516
C9    C     C_R   0.939118 0.449218 0.562786 0.349557
C10   C     C_R   0.060824 0.554642 0.439133 0.352162
C11   C     C_R   0.518485 0.498515 0.650886 0.784704
C12   C     C_R   0.481449 0.502784 0.349075 0.794288
C13   C     C_R   0.529152 0.499152 0.736941 -0.019982
C14   C     C_R   0.470642 0.505958 0.262892 -0.029843
C15   C     C_R   0.411024 0.473323 0.776749 -0.238512
C16   C     C_R   0.589855 0.529739 0.223529 -0.249334
C17   C     C_R   0.417599 0.477344 0.858083 -0.159777
C18   C     C_R   0.582829 0.529753 0.142052 -0.157923
C19   C     C_R   0.543218 0.507733 0.901383 0.386223
C20   C     C_R   0.455651 0.505526 0.098165 0.386657
C21   C     C_R   0.661333 0.532042 0.861622 -0.201774
C22   C     C_R   0.336409 0.483814 0.137468 -0.206197
C23   C     C_R   0.654587 0.528178 0.779918 -0.228745
C24   C     C_R   0.343494 0.483985 0.219269 -0.232471
C25   C     C_R   0.432973 0.069570 0.433843 0.142450
C26   C     C_R   0.576590 0.928579 0.559485 0.141600
Cu1   Cu    Cu3+1 0.640660 0.500020 0.500000 0.932336
Cu2   Cu    Cu3+1 0.359340 0.499980 0.500000 0.957905
H1    H     H_    0.689126 0.548199 0.255637 0.152337
H2    H     H_    0.313020 0.449960 0.745087 0.152722
H3    H     H_    0.677200 0.547916 0.113865 0.149430
H4    H     H_    0.324247 0.456807 0.886637 0.150682
N1    N     N_2   0.555494 0.514342 0.984445 -0.269949
N2    N     N_2   0.443369 0.500373 0.015042 -0.269844
N3    N     N_R   0.852070 0.500030 0.499980 -0.205338
N4    N     N_R   0.147930 0.499970 0.500020 -0.195272
O1    O     O_R   0.618740 0.319660 0.500000 -0.577635
O2    O     O_R   0.381260 0.680340 0.500000 -0.549399
O3    O     O_R   0.381170 0.319630 0.500010 -0.598032
O4    O     O_R   0.618830 0.680370 0.499990 -0.581370
O5    O     O_R   0.631780 0.498870 0.613920 -0.575372
O6    O     O_R   0.368220 0.501130 0.386080 -0.546101
O7    O     O_R   0.394210 0.498840 0.613930 -0.597645
O8    O     O_R   0.605790 0.501160 0.386070 -0.605022
H5    H     H_    0.758582 0.555231 0.894136 0.138929
H6    H     H_    0.238067 0.464990 0.104497 0.138340
H7    H     H_    0.746577 0.549751 0.750492 0.176415
H8    H     H_    0.250670 0.463781 0.248229 0.153059
N5    N     N_2   0.362330 0.139718 0.369328 -0.444310
H9    H     H_    0.292633 0.207310 0.384723 0.268886
C27   C     C_3   0.452009 0.182122 0.311092 -0.667604
H10   H     H_    0.526851 0.248941 0.336556 0.217493
H11   H     H_    0.386734 0.227315 0.260702 0.229146
H12   H     H_    0.512323 0.103804 0.288800 0.233548
N6    N     N_2   0.633633 0.859837 0.628364 -0.432518
H13   H     H_    0.565534 0.798830 0.650442 0.237753
C28   C     C_3   0.775535 0.808563 0.627925 -0.609537
H14   H     H_    0.780045 0.709630 0.646977 0.228896
H15   H     H_    0.846535 0.858468 0.669769 0.217607
H16   H     H_    0.813838 0.814505 0.568480 0.229793
N7    N     N_2   0.370838 0.879591 0.366726 -0.417892
H17   H     H_    0.290948 0.930545 0.335090 0.274673
C29   C     C_3   0.467364 0.824626 0.315925 -0.659661
H18   H     H_    0.525482 0.896646 0.286689 0.213065
H19   H     H_    0.407577 0.772778 0.269932 0.228706
H20   H     H_    0.544258 0.759744 0.349214 0.222332
N8    N     N_2   0.694809 0.112077 0.605601 -0.422200
H21   H     H_    0.698061 0.079987 0.663165 0.275091
C30   C     C_3   0.832741 0.109953 0.576392 -0.688625
H22   H     H_    0.865198 0.016387 0.559404 0.225936
H23   H     H_    0.912056 0.139230 0.622640 0.219897
H24   H     H_    0.833221 0.172787 0.523985 0.247488
H25   H     H_    0.155896 0.403842 0.608205 0.157603
H26   H     H_    0.846522 0.591910 0.389470 0.145038
N9    N     N_2   0.879702 0.398020 0.629497 -0.404701
H27   H     H_    0.801904 0.337158 0.617380 0.313658
C31   C     C_3   0.964454 0.374182 0.703261 -0.803688
H28   H     H_    0.039696 0.295140 0.698390 0.221029
H29   H     H_    0.895460 0.350066 0.749850 0.249133
H30   H     H_    0.021354 0.457850 0.720894 0.235698
N10   N     N_2   0.117584 0.611618 0.374050 -0.370594
H31   H     H_    0.090543 0.566860 0.322893 0.217353
C32   C     C_3   0.085868 0.742774 0.364177 -0.679180
H32   H     H_    0.132639 0.778150 0.311288 0.229608
H33   H     H_    0.129084 0.791368 0.416696 0.255370
H34   H     H_    0.970962 0.762643 0.354712 0.187308

loop_
_geom_bond_atom_site_label_1
_geom_bond_atom_site_label_2
_ccdc_geom_bond_type
N6    H13   S    
C29   H19   S    
C7    N4    A    
C26   N6    S    
N10   H31   S    
C7    H25   S    
C31   H28   S    
C19   C21   A    
C28   H15   S    
C6    C25   A    
C13   C23   A    
C30   H23   S    
C14   C24   A    
N7    C29   S    
C2    O2    A    
C12   O6    A    
Cu1   O8    S    
N5    C27   S    
C11   O7    A    
C14   C16   A    
C1    O1    A    
C20   N2    S    
C31   H29   S    
C29   H20   S    
C30   H22   S    
N10   C32   S    
C21   H5    S    
C3    N7    S    
C21   C23   A    
C23   H7    S    
N8    H21   S    
C24   H8    S    
C3    C25   A    
C4    C6    A    
C19   N1    S    
C28   H16   S    
Cu2   O3    S    
Cu1   N3    S    
C16   H1    S    
C1    C6    S    
C27   H11   S    
C8    N3    A    
C30   H24   S    
N9    H27   S    
Cu1   O5    S    
C32   H32   S    
Cu2   O2    S    
Cu1   O4    S    
C8    H26   S    
N1    N2    D    
N9    C31   S    
C16   C18   A    
C32   H33   S    
C12   C14   S    
C13   C15   A    
C22   C24   A    
C2    C5    S    
C15   H2    S    
C31   H30   S    
C7    C9    A    
Cu2   O7    S    
C22   H6    S    
C20   C22   A    
C29   H18   S    
C3    C5    A    
C4    N8    S    
C4    C26   A    
C15   C17   A    
C10   N10   S    
C27   H12   S    
N6    C28   S    
C27   H10   S    
C12   O8    A    
C11   C13   S    
C28   H14   S    
Cu1   O1    S    
Cu2   O6    S    
C17   C19   A    
C11   O5    A    
C18   C20   A    
N7    H17   S    
C25   N5    S    
C1    O3    A    
C5    C26   A    
C2    O4    A    
C32   H34   S    
Cu2   N4    S    
C8    C10   A    
N5    H9    S    
Cu1   Cu2   S    
C9    N3    A    
C17   H4    S    
C10   N4    A    
C18   H3    S    
C9    N9    S    
N8    C30   S    
