data_mof_unit_58358.cif
_audit_creation_date              2012-10-26T20:58:20-0400
_audit_creation_method            fapswitch 2.2
_symmetry_space_group_name_H-M    P1
_symmetry_Int_Tables_number       1
_space_group_crystal_system       triclinic
_cell_length_a                    10.611097
_cell_length_b                    14.693154
_cell_length_c                    14.719434
_cell_angle_alpha                 65.116239
_cell_angle_beta                  103.132287
_cell_angle_gamma                 102.664219
_cell_volume                      2007.46492797

loop_
_atom_site_label
_atom_site_type_symbol
_atom_type_description
_atom_site_fract_x
_atom_site_fract_y
_atom_site_fract_z
_atom_type_partial_charge
C1    C     C_R   0.476487 0.119732 0.312303 0.544020
C2    C     C_R   0.459121 0.532680 0.946478 0.030682
C3    C     C_R   0.424914 0.490087 0.872386 -0.141719
C4    C     C_R   0.476426 0.508985 0.123107 -0.140585
C5    C     C_R   0.403002 0.386005 0.899561 -0.136301
C6    C     C_R   0.495493 0.613062 0.095824 -0.137516
C7    C     C_R   0.720286 0.282436 0.670857 -0.013458
C8    C     C_R   0.283774 0.719485 0.326233 -0.014301
C9    C     C_R   0.683605 0.201602 0.638607 0.064534
C10   C     C_R   0.318726 0.799499 0.359699 0.064558
C11   C     C_R   0.519858 0.285568 0.509732 0.023826
C12   C     C_R   0.520622 0.880282 0.687701 0.543043
C13   C     C_R   0.479542 0.714143 0.490696 0.023190
C14   C     C_R   0.550743 0.371249 0.535986 -0.009475
C15   C     C_R   0.450245 0.629197 0.463312 -0.009739
C16   C     C_R   0.259568 0.000538 0.500067 0.553135
C17   C     C_R   0.740439 0.999452 0.499953 0.553823
C18   C     C_R   0.651521 0.367846 0.619230 0.037786
C19   C     C_R   0.351189 0.633410 0.378848 0.036969
C20   C     C_R   0.484307 0.459081 0.483199 0.024809
C21   C     C_R   0.516878 0.541449 0.515979 0.023684
C22   C     C_R   0.615065 0.533335 0.600447 -0.144733
C23   C     C_R   0.471624 0.291921 0.178892 -0.138757
C24   C     C_R   0.387007 0.467573 0.398159 -0.146889
C25   C     C_R   0.680958 0.449610 0.649814 -0.133363
C26   C     C_R   0.322254 0.551853 0.347960 -0.138231
C27   C     C_3   0.016674 0.010458 0.408174 -0.126287
C28   C     C_3   0.983359 0.989529 0.591875 -0.126868
C29   C     C_3   0.961874 0.087422 0.429688 -0.122769
C30   C     C_3   0.038163 0.912564 0.570363 -0.122944
C31   C     C_3   0.877097 0.998760 0.499735 0.044579
C32   C     C_3   0.122931 0.001225 0.500312 0.044985
C33   C     C_3   0.929582 0.921750 0.478213 -0.113679
C34   C     C_R   0.502097 0.707966 0.820987 -0.135711
C35   C     C_3   0.070454 0.078235 0.521836 -0.113723
C36   C     C_R   0.456027 0.187383 0.204772 -0.004848
C37   C     C_R   0.522446 0.812628 0.794959 -0.005157
C38   C     C_R   0.400846 0.215662 0.027149 -0.137696
C39   C     C_R   0.527915 0.783720 0.970073 -0.137810
C40   C     C_R   0.419090 0.149329 0.128450 -0.141773
C41   C     C_R   0.536056 0.850412 0.870072 -0.141691
C42   C     C_3   0.830486 0.278876 0.759107 -0.296237
C43   C     C_3   0.900062 0.184791 0.807123 -0.459480
C44   C     C_3   0.177312 0.724859 0.235317 -0.296736
C45   C     C_R   0.449371 0.360160 0.077608 0.030474
C46   C     C_3   0.110989 0.820616 0.184859 -0.458340
C47   C     C_R   0.487344 0.639242 0.920171 0.031326
C48   C     C_R   0.417357 0.320584 0.001153 0.050328
C49   C     C_R   0.503745 0.678683 0.995672 0.049292
C50   C     C_R   0.462480 0.466595 0.050317 0.031087
Cu1   Cu    Cu3+1 0.465750 0.918270 0.475680 0.919158
Cu2   Cu    Cu3+1 0.534250 0.081730 0.524320 0.918905
H1    H     H_    0.927322 0.158812 0.372078 0.113365
H2    H     H_    0.966362 0.980864 0.666973 0.104800
H3    H     H_    0.869232 0.857655 0.460404 0.120928
H4    H     H_    0.130807 0.142327 0.539649 0.120233
H5    H     H_    0.376760 0.356590 0.840417 0.110339
H6    H     H_    0.505210 0.642323 0.153907 0.113456
H7    H     H_    0.500014 0.681812 0.762427 0.116999
H8    H     H_    0.505108 0.318721 0.239153 0.121336
H9    H     H_    0.551786 0.931224 0.851489 0.126220
H10   H     H_    0.405712 0.068612 0.146881 0.123500
H11   H     H_    0.374647 0.184978 0.968996 0.103038
H12   H     H_    0.072744 0.841184 0.627976 0.113592
H13   H     H_    0.539347 0.814263 0.027348 0.104456
H14   H     H_    0.410101 0.535056 0.792161 0.106333
H15   H     H_    0.468861 0.463687 0.201776 0.101542
H16   H     H_    0.755451 0.450162 0.713418 0.105121
H17   H     H_    0.248931 0.551813 0.283575 0.105485
H18   H     H_    0.830597 0.115617 0.840586 0.141810
H19   H     H_    0.945606 0.177383 0.750094 0.145261
H20   H     H_    0.978792 0.192129 0.868871 0.145397
H21   H     H_    0.905938 0.345754 0.732082 0.148910
H22   H     H_    0.790127 0.284031 0.819906 0.146881
H23   H     H_    0.555291 0.719005 0.551499 0.121221
H24   H     H_    0.061793 0.828763 0.239544 0.145956
H25   H     H_    0.183356 0.888693 0.154252 0.139617
H26   H     H_    0.035554 0.814943 0.120686 0.146042
H27   H     H_    0.220673 0.718826 0.176390 0.145123
H28   H     H_    0.099621 0.659168 0.260040 0.149937
H29   H     H_    0.442346 0.279901 0.450233 0.121250
H30   H     H_    0.271940 0.866932 0.322346 0.136033
H31   H     H_    0.731154 0.134533 0.675416 0.136614
H32   H     H_    0.644396 0.590822 0.631188 0.090553
H33   H     H_    0.358313 0.410296 0.367121 0.087725
H34   H     H_    0.033696 0.019139 0.333077 0.105652
N1    N     N_R   0.585750 0.204560 0.560800 -0.249684
N2    N     N_R   0.414250 0.795440 0.439200 -0.249475
O1    O     O_R   0.454850 0.022100 0.338110 -0.510047
O2    O     O_R   0.545150 0.977900 0.661890 -0.510034
O3    O     O_R   0.512700 0.160150 0.379180 -0.510505
O4    O     O_R   0.487300 0.839850 0.620820 -0.510670
O5    O     O_R   0.287930 0.931000 0.479440 -0.504473
O6    O     O_R   0.712070 0.069000 0.520560 -0.504468
O7    O     O_R   0.345780 0.069050 0.520520 -0.506950
O8    O     O_R   0.654220 0.930950 0.479480 -0.505795

loop_
_geom_bond_atom_site_label_1
_geom_bond_atom_site_label_2
_ccdc_geom_bond_type
C33   H3    S    
C38   C40   A    
C43   H20   S    
C23   C45   A    
C30   H12   S    
C27   C29   S    
C34   C37   A    
C14   C18   A    
Cu2   O2    S    
C41   H9    S    
C46   H24   S    
C47   C49   A    
C27   C33   S    
C15   C19   A    
C25   H16   S    
C10   N2    A    
C16   O5    A    
C12   O2    A    
C24   C26   A    
C11   C14   A    
Cu2   N1    S    
C40   H10   S    
Cu2   O7    S    
C7    C42   S    
C12   C37   S    
C19   C26   A    
C6    H6    S    
C2    C50   A    
C13   H23   S    
C28   C35   S    
C11   N1    A    
C42   H21   S    
C22   C25   A    
C1    O1    A    
C31   C33   S    
Cu2   O6    S    
C24   H33   S    
C38   C48   A    
Cu1   O8    S    
C35   H4    S    
C1    O3    A    
C21   C22   A    
C39   H13   S    
C18   C25   A    
C44   C46   S    
C44   H27   S    
C23   H8    S    
C5    C48   A    
C42   H22   S    
C8    C19   A    
Cu1   Cu2   S    
C32   C35   S    
C14   C20   A    
C44   H28   S    
C39   C41   A    
C46   H26   S    
C28   H2    S    
C10   H30   S    
C11   H29   S    
C4    C50   A    
C22   H32   S    
C27   H34   S    
Cu1   O4    S    
C46   H25   S    
C36   C40   A    
C7    C18   A    
C17   O8    A    
Cu1   O5    S    
C4    C6    A    
C39   C49   A    
C9    H31   S    
C43   H18   S    
C13   C15   A    
C34   H7    S    
C17   C31   S    
C3    H14   S    
C42   C43   S    
C38   H11   S    
C45   C48   A    
C7    C9    A    
C16   O7    A    
C43   H19   S    
C30   C33   S    
C27   C32   S    
C12   O4    A    
C28   C31   S    
C8    C44   S    
C3    C5    A    
Cu1   N2    S    
C4    H15   S    
C17   O6    A    
C2    C47   A    
C16   C32   S    
C29   C35   S    
C5    H5    S    
C28   C30   S    
C2    C3    A    
C29   C31   S    
Cu1   O1    S    
C30   C32   S    
C29   H1    S    
C45   C50   A    
C13   N2    A    
C6    C49   A    
C37   C41   A    
C15   C21   A    
C20   C21   A    
C8    C10   A    
C23   C36   A    
C26   H17   S    
Cu2   O3    S    
C34   C47   A    
C20   C24   A    
C9    N1    A    
C1    C36   S    
