data_mof_unit_48855.cif
_audit_creation_date              2013-03-05T15:45:39-0500
_audit_creation_method            fapswitch 2.2
_symmetry_space_group_name_H-M    P1
_symmetry_Int_Tables_number       1
_space_group_crystal_system       triclinic
_cell_length_a                    26.051912
_cell_length_b                    25.844219
_cell_length_c                    18.420997
_cell_angle_alpha                 89.945445
_cell_angle_beta                  134.919956
_cell_angle_gamma                 90.575093
_cell_volume                      8781.50279841

loop_
_atom_site_label
_atom_site_type_symbol
_atom_site_description
_atom_site_fract_x
_atom_site_fract_y
_atom_site_fract_z
_atom_type_partial_charge
Zn1   Zn    Zn3+2 0.663270 0.706640 0.413250 1.062118
Zn2   Zn    Zn3+2 0.663270 0.293360 0.413250 1.075460
Zn3   Zn    Zn3+2 0.163270 0.206640 0.413250 1.065089
Zn4   Zn    Zn3+2 0.163270 0.793360 0.413250 1.075902
Zn5   Zn    Zn3+2 0.836780 0.706640 0.586750 1.071820
Zn6   Zn    Zn3+2 0.836780 0.293360 0.586750 1.069330
Zn7   Zn    Zn3+2 0.336780 0.206640 0.586750 1.070030
Zn8   Zn    Zn3+2 0.336780 0.793360 0.586750 1.065553
Zn9   Zn    Zn3+2 0.750020 0.793390 0.413240 1.088680
Zn10  Zn    Zn3+2 0.750020 0.206610 0.413240 1.047069
Zn11  Zn    Zn3+2 0.250020 0.293390 0.413240 1.092243
Zn12  Zn    Zn3+2 0.250020 0.706610 0.413240 1.038491
Zn13  Zn    Zn3+2 0.750010 0.793400 0.586760 1.115505
Zn14  Zn    Zn3+2 0.750010 0.206600 0.586760 1.133745
Zn15  Zn    Zn3+2 0.250010 0.293400 0.586760 1.106818
Zn16  Zn    Zn3+2 0.250010 0.706600 0.586760 1.149091
O1    O     O_3   0.750020 0.750020 0.500000 -0.529177
O2    O     O_3   0.750020 0.249980 0.500000 -0.539562
O3    O     O_3   0.250020 0.250020 0.500000 -0.530341
O4    O     O_3   0.250020 0.749980 0.500000 -0.538105
O5    O     O_R   0.835450 0.780390 0.731600 -0.573693
O6    O     O_R   0.835450 0.219610 0.731600 -0.592033
O7    O     O_R   0.335450 0.280390 0.731600 -0.582616
O8    O     O_R   0.335450 0.719610 0.731600 -0.592776
O9    O     O_R   0.603870 0.719650 0.268400 -0.628049
O10   O     O_R   0.603870 0.280350 0.268400 -0.620975
O11   O     O_R   0.103870 0.219650 0.268400 -0.629677
O12   O     O_R   0.103870 0.780350 0.268400 -0.619189
O13   O     O_R   0.810750 0.634210 0.560720 -0.602158
O14   O     O_R   0.810750 0.365790 0.560720 -0.594466
O15   O     O_R   0.310750 0.134210 0.560720 -0.603098
O16   O     O_R   0.310750 0.865790 0.560720 -0.588738
O17   O     O_R   0.750010 0.865820 0.439280 -0.648279
O18   O     O_R   0.750010 0.134180 0.439280 -0.631481
O19   O     O_R   0.250010 0.365820 0.439280 -0.634889
O20   O     O_R   0.250010 0.634180 0.439280 -0.654931
O21   O     O_R   0.896180 0.719650 0.560720 -0.627896
O22   O     O_R   0.896180 0.280350 0.560720 -0.604858
O23   O     O_R   0.396180 0.219650 0.560720 -0.636369
O24   O     O_R   0.396180 0.780350 0.560720 -0.612181
O25   O     O_R   0.664570 0.780390 0.560720 -0.615886
O26   O     O_R   0.664570 0.219610 0.560720 -0.605437
O27   O     O_R   0.164570 0.280390 0.560720 -0.620975
O28   O     O_R   0.164570 0.719610 0.560720 -0.586615
O29   O     O_R   0.835460 0.780370 0.439280 -0.602985
O30   O     O_R   0.835460 0.219630 0.439280 -0.624219
O31   O     O_R   0.335460 0.280370 0.439280 -0.605150
O32   O     O_R   0.335460 0.719630 0.439280 -0.638270
O33   O     O_R   0.603860 0.719660 0.439280 -0.651032
O34   O     O_R   0.603860 0.280340 0.439280 -0.590423
O35   O     O_R   0.103860 0.219660 0.439280 -0.638787
O36   O     O_R   0.103860 0.780340 0.439280 -0.587522
O37   O     O_R   0.689310 0.634210 0.439280 -0.641759
O38   O     O_R   0.689310 0.365790 0.439280 -0.637717
O39   O     O_R   0.189310 0.134210 0.439280 -0.642491
O40   O     O_R   0.189310 0.865790 0.439280 -0.645230
O41   O     O_R   0.750010 0.865830 0.560720 -0.579475
O42   O     O_R   0.750010 0.134170 0.560720 -0.551898
O43   O     O_R   0.250010 0.365830 0.560720 -0.590841
O44   O     O_R   0.250010 0.634170 0.560720 -0.542294
O45   O     O_R   0.896180 0.719660 0.731600 -0.665957
O46   O     O_R   0.896180 0.280340 0.731600 -0.634022
O47   O     O_R   0.396180 0.219660 0.731600 -0.667059
O48   O     O_R   0.396180 0.780340 0.731600 -0.646901
O49   O     O_R   0.664580 0.780370 0.268400 -0.624320
O50   O     O_R   0.664580 0.219630 0.268400 -0.653174
O51   O     O_R   0.164580 0.280370 0.268400 -0.618805
O52   O     O_R   0.164580 0.719630 0.268400 -0.651329
C1    C     C_R   0.891732 0.751370 0.780596 0.882802
C2    C     C_R   0.889304 0.250333 0.780558 0.807743
C3    C     C_R   0.391828 0.251403 0.780481 0.892051
C4    C     C_R   0.387370 0.752428 0.780319 0.836204
C5    C     C_R   0.610395 0.749899 0.219470 0.875155
C6    C     C_R   0.607649 0.247452 0.219962 0.829232
C7    C     C_R   0.110357 0.250006 0.219897 0.864347
C8    C     C_R   0.107539 0.747252 0.219990 0.834245
C9    C     C_R   0.748955 0.609876 0.501959 0.884240
C10   C     C_R   0.750231 0.389937 0.501518 0.785690
C11   C     C_R   0.249215 0.109930 0.502006 0.869132
C12   C     C_R   0.250274 0.889780 0.501179 0.798024
C13   C     C_R   0.750678 0.889849 0.500637 0.899173
C14   C     C_R   0.746537 0.110026 0.496110 0.898362
C15   C     C_R   0.251060 0.389811 0.501163 0.906787
C16   C     C_R   0.246269 0.609987 0.496010 0.893767
C17   C     C_R   0.889851 0.750598 0.500089 0.857541
C18   C     C_R   0.888935 0.252473 0.497351 0.826308
C19   C     C_R   0.389774 0.250251 0.499788 0.865755
C20   C     C_R   0.387062 0.753502 0.494050 0.838812
C21   C     C_R   0.610138 0.748970 0.501015 0.865177
C22   C     C_R   0.609626 0.249158 0.499175 0.862479
C23   C     C_R   0.110116 0.249178 0.500477 0.871097
C24   C     C_R   0.109071 0.748599 0.498202 0.878601
C25   C     C_R   0.633928 0.776689 0.682308 0.235532
C26   C     C_R   0.548137 0.149659 0.496346 0.270968
C27   C     C_R   0.140586 0.247972 0.690721 0.237019
C28   C     C_R   0.032455 0.649242 0.468505 0.265406
C29   C     C_R   0.642922 0.812605 0.748575 0.189109
C30   C     C_R   0.533257 0.105031 0.523240 0.209448
C31   C     C_R   0.157631 0.268429 0.776761 0.187590
C32   C     C_R   0.002993 0.603663 0.470037 0.211880
C33   C     C_R   0.583750 0.842647 0.711866 -0.267712
C34   C     C_R   0.476540 0.105915 0.516680 -0.254171
C35   C     C_R   0.107913 0.300969 0.761852 -0.281395
C36   C     C_R   0.942358 0.606760 0.454594 -0.253547
C37   C     C_R   0.513566 0.830711 0.615717 0.271536
C38   C     C_R   0.436814 0.151569 0.485175 0.241211
C39   C     C_R   0.037207 0.305909 0.662778 0.256840
C40   C     C_R   0.914298 0.655409 0.443849 0.237608
C41   C     C_R   0.504268 0.787750 0.559207 -0.049949
C42   C     C_R   0.468029 0.199664 0.493068 -0.047246
C43   C     C_R   0.015973 0.274299 0.581759 -0.043091
C44   C     C_R   0.956789 0.700938 0.472398 -0.047639
C45   C     C_R   0.564516 0.770397 0.580540 -0.097416
C46   C     C_R   0.523839 0.198910 0.496129 -0.077524
C47   C     C_R   0.070803 0.256245 0.590814 -0.097441
C48   C     C_R   0.014558 0.698811 0.479251 -0.072926
C49   C     C_R   0.552069 0.748404 0.498412 -0.057901
C50   C     C_R   0.551297 0.246977 0.495256 -0.049264
C51   C     C_R   0.053176 0.247579 0.499340 -0.056592
C52   C     C_R   0.050473 0.746325 0.494096 -0.045668
C53   C     C_R   0.480319 0.732851 0.407138 -0.068941
C54   C     C_R   0.523976 0.294500 0.493120 -0.056542
C55   C     C_R   0.979482 0.243380 0.404396 -0.069297
C56   C     C_R   0.030265 0.793746 0.505563 -0.053362
C57   C     C_R   0.424364 0.735909 0.402534 -0.059971
C58   C     C_R   0.469583 0.295006 0.491329 -0.082813
C59   C     C_R   0.924872 0.245196 0.402692 -0.056648
C60   C     C_R   0.976535 0.794699 0.505124 -0.080261
C61   C     C_R   0.437635 0.760768 0.482763 -0.062226
C62   C     C_R   0.442439 0.248068 0.493028 -0.066995
C63   C     C_R   0.943094 0.259010 0.492764 -0.062391
C64   C     C_R   0.941403 0.748581 0.491436 -0.066702
C65   C     C_R   0.537029 0.656479 0.080464 0.202945
C66   C     C_R   0.462377 0.298890 0.093079 0.247006
C67   C     C_R   0.071473 0.158521 0.087770 0.187481
C68   C     C_R   0.959285 0.794025 0.092809 0.235773
C69   C     C_R   0.485111 0.615451 0.029736 0.202464
C70   C     C_R   0.424143 0.345826 0.051482 0.220498
C71   C     C_R   0.038297 0.111784 0.031309 0.201515
C72   C     C_R   0.919490 0.840204 0.052247 0.216552
C73   C     C_R   0.410550 0.628049 0.954511 -0.259923
C74   C     C_R   0.405006 0.366227 0.964306 -0.262207
C75   C     C_R   0.962577 0.110163 0.945319 -0.275423
C76   C     C_R   0.902592 0.863329 0.968337 -0.240607
C77   C     C_R   0.389583 0.678261 0.912174 0.268807
C78   C     C_R   0.419409 0.338390 0.914485 0.255855
C79   C     C_R   0.923085 0.156652 0.906865 0.228859
C80   C     C_R   0.917389 0.837060 0.917391 0.261993
C81   C     C_R   0.444522 0.714938 0.949373 -0.037331
C82   C     C_R   0.451795 0.288971 0.951898 -0.041800
C83   C     C_R   0.962074 0.204418 0.949318 -0.026853
C84   C     C_R   0.949969 0.787497 0.952660 -0.031633
C85   C     C_R   0.512666 0.707705 0.047954 -0.106023
C86   C     C_R   0.486887 0.276144 0.051909 -0.086111
C87   C     C_R   0.029820 0.203979 0.050881 -0.094510
C88   C     C_R   0.984992 0.773560 0.052065 -0.089628
C89   C     C_R   0.554777 0.751971 0.106539 -0.064413
C90   C     C_R   0.546076 0.241719 0.107348 -0.056248
C91   C     C_R   0.056210 0.250597 0.107609 -0.059086
C92   C     C_R   0.045566 0.740622 0.107566 -0.061220
C93   C     C_R   0.538524 0.799464 0.055366 -0.064240
C94   C     C_R   0.550089 0.206522 0.052846 -0.055622
C95   C     C_R   0.030432 0.298162 0.055289 -0.069973
C96   C     C_R   0.050273 0.706235 0.052926 -0.052438
C97   C     C_R   0.484347 0.800293 0.947610 -0.057936
C98   C     C_R   0.500912 0.210179 0.946268 -0.061179
C99   C     C_R   0.979217 0.297920 0.947995 -0.068480
C100  C     C_R   0.000685 0.709958 0.946274 -0.062403
C101  C     C_R   0.436988 0.757064 0.892867 -0.062466
C102  C     C_R   0.450654 0.251632 0.894097 -0.061989
C103  C     C_R   0.941917 0.251248 0.893413 -0.072787
C104  C     C_R   0.949970 0.751231 0.894372 -0.063246
C105  C     C_R   0.608681 0.942765 0.367987 -0.131001
C106  C     C_R   0.607386 0.049186 0.338334 -0.130148
C107  C     C_R   0.108372 0.441859 0.357425 -0.132642
C108  C     C_R   0.108026 0.548575 0.330410 -0.141059
C109  C     C_R   0.542783 0.969527 0.302742 0.242458
C110  C     C_R   0.542021 0.022294 0.286126 0.234323
C111  C     C_R   0.042313 0.467925 0.284736 0.250868
C112  C     C_R   0.042142 0.520774 0.269318 0.231124
C113  C     C_R   0.675713 0.025200 0.418824 0.002531
C114  C     C_R   0.676747 0.970399 0.428446 -0.016255
C115  C     C_R   0.175623 0.524838 0.414656 0.005407
C116  C     C_R   0.176461 0.469939 0.422958 -0.017428
C117  C     C_R   0.745657 0.945658 0.495704 -0.184464
C118  C     C_R   0.742995 0.053576 0.489710 -0.178239
C119  C     C_R   0.245388 0.445515 0.496086 -0.185589
C120  C     C_R   0.242385 0.553425 0.490848 -0.179862
C121  C     C_R   0.811162 0.974241 0.555146 0.211018
C122  C     C_R   0.809677 0.028128 0.556177 0.203065
C123  C     C_R   0.310616 0.474219 0.566972 0.204700
C124  C     C_R   0.308575 0.528046 0.565617 0.196357
C125  C     C_R   0.811562 0.554000 0.694814 -0.173454
C126  C     C_R   0.804776 0.445202 0.689962 -0.157467
C127  C     C_R   0.314014 0.052973 0.695033 -0.184733
C128  C     C_R   0.305078 0.944536 0.688474 -0.162703
C129  C     C_R   0.844072 0.526424 0.784130 0.224548
C130  C     C_R   0.839819 0.472352 0.781535 0.216131
C131  C     C_R   0.347540 0.025117 0.784605 0.229366
C132  C     C_R   0.342271 0.971168 0.781108 0.223146
C133  C     C_R   0.780124 0.471982 0.601943 0.021578
C134  C     C_R   0.781602 0.527410 0.603453 -0.005435
C135  C     C_R   0.279871 0.971583 0.600146 0.018577
C136  C     C_R   0.282013 0.026904 0.602054 -0.002190
C137  C     C_R   0.744181 0.553608 0.509125 -0.119621
C138  C     C_R   0.748318 0.445997 0.508825 -0.067458
C139  C     C_R   0.245744 0.053508 0.507957 -0.096076
C140  C     C_R   0.248861 0.945667 0.507700 -0.056809
C141  C     C_R   0.693980 0.525599 0.416650 -0.072992
C142  C     C_R   0.703074 0.473144 0.415869 -0.095920
C143  C     C_R   0.201028 0.025731 0.414660 -0.071158
C144  C     C_R   0.208140 0.972725 0.415367 -0.088746
C145  C     C_1   0.462537 0.713880 0.317134 0.264094
N1    N     N_1   0.448102 0.698807 0.245274 -0.142373
C146  C     C_1   0.554573 0.343612 0.498555 0.265738
N2    N     N_1   0.578886 0.382636 0.502924 -0.131628
C147  C     C_1   0.959144 0.237775 0.308231 0.260366
N3    N     N_1   0.942865 0.233382 0.231583 -0.123681
C148  C     C_1   0.067461 0.841876 0.523326 0.258560
N4    N     N_1   0.096957 0.880147 0.537400 -0.135285
C149  C     C_1   0.355829 0.590479 0.920773 0.447266
N5    N     N_1   0.311171 0.561153 0.893498 -0.093217
C150  C     C_1   0.370418 0.415892 0.926164 0.480343
N6    N     N_1   0.342066 0.455424 0.894643 -0.084355
C151  C     C_1   0.926475 0.061571 0.893164 0.476729
N7    N     N_1   0.897674 0.022712 0.850966 -0.067034
C152  C     C_1   0.867539 0.913038 0.933016 0.479885
N8    N     N_1   0.838986 0.952630 0.905034 -0.093963
N9    N     N_R   0.315306 0.694476 0.845303 0.225448
O53   O     O_R   0.301229 0.741640 0.850982 -0.353082
O54   O     O_R   0.261669 0.663713 0.774263 -0.339465
N10   N     N_R   0.412482 0.363511 0.838057 0.227249
O55   O     O_R   0.462342 0.357913 0.838584 -0.339005
O56   O     O_R   0.356755 0.392049 0.767951 -0.346100
N11   N     N_R   0.846242 0.155192 0.844788 0.239820
O57   O     O_R   0.818100 0.189434 0.859733 -0.336353
O58   O     O_R   0.803754 0.120796 0.772289 -0.323070
N12   N     N_R   0.911847 0.863964 0.843668 0.223809
O59   O     O_R   0.963296 0.859857 0.847147 -0.330086
O60   O     O_R   0.857478 0.894033 0.775779 -0.335730
C153  C     C_1   0.476819 0.845981 0.894946 0.286147
N13   N     N_1   0.471346 0.882287 0.853149 -0.127269
C154  C     C_1   0.505178 0.171491 0.893275 0.304786
N14   N     N_1   0.508875 0.140600 0.851677 -0.136981
C155  C     C_1   0.967531 0.345258 0.895860 0.296449
N15   N     N_1   0.959574 0.382815 0.854795 -0.114973
C156  C     C_1   0.004824 0.671361 0.893017 0.302026
N16   N     N_1   0.008411 0.640512 0.851247 -0.132784
N17   N     N_R   0.879420 0.949024 0.610618 0.233726
O61   O     O_R   0.896419 0.906990 0.662046 -0.315953
O62   O     O_R   0.925542 0.968518 0.610352 -0.278428
N18   N     N_R   0.876789 0.057286 0.625178 0.224587
O63   O     O_R   0.926516 0.045917 0.722083 -0.308644
O64   O     O_R   0.891315 0.091608 0.589855 -0.352540
N19   N     N_R   0.379329 0.448741 0.643620 0.254902
O65   O     O_R   0.426131 0.464930 0.738381 -0.210944
O66   O     O_R   0.396963 0.410906 0.618491 -0.368662
N20   N     N_R   0.375187 0.557384 0.636638 0.224266
O67   O     O_R   0.388787 0.586118 0.706689 -0.341103
O68   O     O_R   0.424100 0.552976 0.635058 -0.299254
C157  C     C_1   0.602118 0.886844 0.365456 0.250702
N21   N     N_1   0.595676 0.842260 0.361795 -0.211299
C158  C     C_1   0.601115 0.100635 0.302934 0.357493
N22   N     N_1   0.594100 0.141710 0.272567 -0.120785
C159  C     C_1   0.102246 0.386143 0.359678 0.251874
N23   N     N_1   0.096167 0.341715 0.359892 -0.215139
C160  C     C_1   0.103078 0.600744 0.299420 0.364517
N24   N     N_1   0.096776 0.642392 0.271827 -0.115631
N25   N     N_R   0.475255 0.942155 0.246788 0.236532
O69   O     O_R   0.422962 0.945682 0.147473 -0.242229
O70   O     O_R   0.465827 0.913800 0.295111 -0.304022
N26   N     N_R   0.474098 0.049049 0.217641 0.260711
O71   O     O_R   0.452757 0.073297 0.138376 -0.238909
O72   O     O_R   0.432247 0.047697 0.232699 -0.226216
N27   N     N_R   0.974523 0.439825 0.221127 0.235947
O73   O     O_R   0.958346 0.412771 0.262486 -0.309037
O74   O     O_R   0.928409 0.441822 0.121732 -0.238504
N28   N     N_R   0.974009 0.546663 0.192293 0.259489
O75   O     O_R   0.961038 0.573337 0.120961 -0.253050
O76   O     O_R   0.923968 0.542576 0.191846 -0.220454
C161  C     C_1   0.624705 0.547542 0.328245 0.369201
N29   N     N_1   0.568651 0.564910 0.259598 -0.102514
C162  C     C_1   0.663165 0.447291 0.317929 0.292375
N30   N     N_1   0.631353 0.426798 0.240017 -0.114809
C163  C     C_1   0.142038 0.050367 0.317347 0.352344
N31   N     N_1   0.093540 0.069542 0.240192 -0.125118
C164  C     C_1   0.172325 0.945994 0.319561 0.281190
N32   N     N_1   0.143854 0.924771 0.243497 -0.110403
C165  C     C_1   0.798022 0.608171 0.695522 0.280789
N33   N     N_1   0.786857 0.651229 0.696732 -0.134567
C166  C     C_1   0.787413 0.391129 0.685941 0.270079
N34   N     N_1   0.773222 0.348104 0.683179 -0.207714
C167  C     C_1   0.304262 0.107404 0.698990 0.312216
N35   N     N_1   0.296423 0.150876 0.702841 -0.107816
C168  C     C_1   0.287390 0.890584 0.684797 0.270934
N36   N     N_1   0.272992 0.847675 0.682403 -0.194251
N37   N     N_R   0.872663 0.553667 0.874599 0.254384
O77   O     O_R   0.845009 0.545421 0.910999 -0.213167
O78   O     O_R   0.921727 0.589804 0.915232 -0.357371
N38   N     N_R   0.869155 0.445235 0.872336 0.231016
O79   O     O_R   0.828040 0.414795 0.870272 -0.310065
O80   O     O_R   0.935007 0.455242 0.959771 -0.317774
N39   N     N_R   0.379590 0.052044 0.877197 0.250288
O81   O     O_R   0.355853 0.043481 0.918988 -0.209698
O82   O     O_R   0.430308 0.086702 0.917385 -0.369367
N40   N     N_R   0.373411 0.943546 0.872354 0.227866
O83   O     O_R   0.332992 0.913966 0.872947 -0.300086
O84   O     O_R   0.440534 0.952268 0.957949 -0.330478
N41   N     N_R   0.692169 0.742737 0.721516 0.237856
O85   O     O_R   0.758642 0.759954 0.784008 -0.332453
O86   O     O_R   0.679001 0.693789 0.697282 -0.363445
N42   N     N_R   0.572264 0.142686 0.447488 0.196928
O87   O     O_R   0.622276 0.109450 0.483150 -0.366073
O88   O     O_R   0.535283 0.162588 0.357538 -0.353914
N43   N     N_R   0.190903 0.214308 0.705946 0.222423
O89   O     O_R   0.259615 0.226233 0.772502 -0.342415
O90   O     O_R   0.168937 0.169352 0.660304 -0.375930
N44   N     N_R   0.068631 0.644640 0.436679 0.188586
O91   O     O_R   0.119975 0.611295 0.479947 -0.364276
O92   O     O_R   0.040403 0.666247 0.351596 -0.368562
N45   N     N_R   0.711661 0.818313 0.852880 0.239333
O93   O     O_R   0.741335 0.778657 0.913668 -0.254109
O94   O     O_R   0.741549 0.863874 0.889611 -0.373066
N46   N     N_R   0.568860 0.057221 0.543304 0.238797
O95   O     O_R   0.532150 0.017620 0.482083 -0.315471
O96   O     O_R   0.637980 0.052919 0.624546 -0.288369
N47   N     N_R   0.224916 0.255724 0.878592 0.246704
O97   O     O_R   0.241831 0.207556 0.905818 -0.227459
O98   O     O_R   0.269140 0.292042 0.944660 -0.330472
N48   N     N_R   0.029668 0.553930 0.475562 0.238604
O99   O     O_R   0.987752 0.521049 0.399863 -0.309065
O100  O     O_R   0.093715 0.539644 0.560465 -0.303205
C169  C     C_1   0.129200 0.328007 0.848611 0.442344
N49   N     N_1   0.146309 0.349572 0.918141 -0.092985
C170  C     C_1   0.906209 0.559708 0.442523 0.461983
N50   N     N_1   0.877401 0.522066 0.432993 -0.091164
C171  C     C_1   0.595001 0.884033 0.774916 0.445406
N51   N     N_1   0.604081 0.917116 0.825448 -0.105130
C172  C     C_1   0.455624 0.058726 0.533188 0.440474
N52   N     N_1   0.439069 0.020962 0.546554 -0.081198
N53   N     N_R   0.454348 0.865715 0.568816 0.231625
O101  O     O_R   0.406422 0.873124 0.470264 -0.351552
O102  O     O_R   0.446928 0.889586 0.623072 -0.365067
N54   N     N_R   0.360345 0.147898 0.423243 0.226391
O103  O     O_R   0.333437 0.112702 0.439416 -0.371273
O104  O     O_R   0.316501 0.174344 0.339151 -0.278081
N55   N     N_R   0.993415 0.349330 0.639969 0.240976
O105  O     O_R   0.954886 0.373163 0.552948 -0.344955
O106  O     O_R   0.989376 0.364120 0.703322 -0.360380
N56   N     N_R   0.838979 0.659206 0.388211 0.211148
O107  O     O_R   0.809994 0.628457 0.407359 -0.381791
O108  O     O_R   0.797442 0.690324 0.310598 -0.299476
C173  C     C_1   0.352258 0.716968 0.311580 0.263364
N57   N     N_1   0.294882 0.701929 0.238994 -0.148143
C174  C     C_1   0.443376 0.344539 0.490997 0.261835
N58   N     N_1   0.422567 0.384079 0.490251 -0.075019
C175  C     C_1   0.849730 0.236844 0.306544 0.252300
N59   N     N_1   0.789884 0.230214 0.229897 -0.150881
C176  C     C_1   0.958283 0.843539 0.520746 0.238723
N60   N     N_1   0.943634 0.882498 0.532787 -0.057935
C177  C     C_1   0.576734 0.847247 0.111636 0.282815
N61   N     N_1   0.606977 0.885391 0.156308 -0.128127
C178  C     C_1   0.601598 0.164302 0.104083 0.296592
N62   N     N_1   0.642337 0.130610 0.144347 -0.132272
C179  C     C_1   0.057924 0.347156 0.110780 0.275789
N63   N     N_1   0.079751 0.386240 0.154772 -0.136708
C180  C     C_1   0.102869 0.664721 0.104050 0.292001
N64   N     N_1   0.144437 0.631564 0.144196 -0.136955
N65   N     N_R   0.613197 0.646532 0.149633 0.241916
O109  O     O_R   0.645094 0.612990 0.222638 -0.329585
O110  O     O_R   0.650623 0.670098 0.136759 -0.279867
N66   N     N_R   0.465193 0.269599 0.162807 0.256279
O111  O     O_R   0.461947 0.292040 0.222615 -0.275165
O112  O     O_R   0.464519 0.219256 0.159970 -0.279950
N67   N     N_R   0.148796 0.162406 0.169545 0.229672
O113  O     O_R   0.185552 0.128465 0.242416 -0.305692
O114  O     O_R   0.182877 0.197268 0.165103 -0.296198
N68   N     N_R   0.966061 0.764436 0.165444 0.252716
O115  O     O_R   0.977304 0.787011 0.238774 -0.291294
O116  O     O_R   0.959902 0.714251 0.157215 -0.272614
N69   N     N_R   0.507662 0.562307 0.049155 0.240873
O117  O     O_R   0.474450 0.526598 0.053655 -0.387550
O118  O     O_R   0.556729 0.548497 0.051543 -0.252126
N70   N     N_R   0.409083 0.374570 0.101273 0.256215
O119  O     O_R   0.343111 0.388197 0.050365 -0.309671
O120  O     O_R   0.462525 0.394587 0.191725 -0.325749
N71   N     N_R   0.081568 0.067090 0.059296 0.248960
O121  O     O_R   0.062957 0.021683 0.065602 -0.362917
O122  O     O_R   0.137548 0.071174 0.072505 -0.224260
N72   N     N_R   0.898743 0.864663 0.098296 0.256469
O123  O     O_R   0.855984 0.840868 0.101211 -0.220111
O124  O     O_R   0.921582 0.911326 0.135852 -0.359476

loop_
_geom_bond_atom_site_label_1
_geom_bond_atom_site_label_2
_geom_bond_distance
_ccdc_geom_bond_type
C31   C35   1.406925 A    
N19   O66   1.300645 A    
C65   C69   1.419541 A    
C175  N59   1.157577 T    
Zn5   O21   1.942890 S    
C38   N54   1.437358 S    
C74   C78   1.411969 A    
C166  N34   1.157992 T    
C143  C163  1.451717 S    
O23   C19   1.284349 A    
C68   C72   1.409467 A    
C171  N51   1.157571 T    
N39   O82   1.300883 A    
C129  N37   1.437540 S    
C169  N49   1.157552 T    
C67   C71   1.414092 A    
C80   N12   1.439410 S    
C19   C62   1.464235 S    
C86   C90   1.419194 A    
O42   C14   1.289290 A    
C27   C31   1.411279 A    
C32   C36   1.396611 A    
C54   C146  1.457282 S    
O46   C2    1.292630 A    
C81   C85   1.391927 A    
C78   C82   1.420139 A    
O34   C22   1.286845 A    
C84   C88   1.400417 A    
N26   O71   1.301019 A    
C133  C138  1.436564 A    
Zn3   O3    1.941755 S    
C83   C87   1.397308 A    
Zn16  O28   1.950521 S    
C58   C174  1.454831 S    
O28   C24   1.283220 A    
C73   C77   1.414681 A    
Zn10  O50   1.952628 S    
C131  C132  1.396728 A    
C155  N15   1.156923 T    
Zn4   O40   1.926390 S    
C98   C154  1.456801 S    
O11   C7    1.285135 A    
C97   C101  1.415884 A    
N12   O60   1.301058 A    
N43   O90   1.301282 A    
N48   O99   1.300860 A    
C123  C124  1.392188 A    
C96   C100  1.398502 A    
C112  N28   1.441118 S    
C36   C170  1.448049 S    
C125  C165  1.449508 S    
N72   O124  1.301094 A    
C113  C114  1.425315 A    
C126  C133  1.434094 A    
C32   N48   1.436356 S    
C1    C104  1.484571 S    
C53   C145  1.454698 S    
C118  C122  1.402532 A    
C115  C116  1.425638 A    
N9    O53   1.301771 A    
C9    C137  1.472001 S    
O16   C12   1.283580 A    
C152  N8    1.157071 T    
C111  N27   1.439709 S    
Zn16  O4    1.951494 S    
C68   N68   1.439931 S    
Zn12  O4    1.952949 S    
N10   O56   1.300520 A    
N40   O83   1.301292 A    
C3    C102  1.482961 S    
Zn13  O5    1.952581 S    
C128  C132  1.406511 A    
Zn2   O10   1.946138 S    
C70   N70   1.436127 S    
Zn6   O14   1.938648 S    
O47   C3    1.282225 A    
C105  C114  1.442879 A    
Zn7   O3    1.966193 S    
N25   O70   1.301401 A    
N69   O117  1.300893 A    
C97   C153  1.451767 S    
N71   O121  1.301357 A    
C67   N67   1.431065 S    
N38   O79   1.301263 A    
C31   N47   1.437347 S    
C130  N38   1.440892 S    
C105  C157  1.450525 S    
N70   O120  1.301285 A    
N67   O113  1.299101 A    
C51   C55   1.418008 A    
O24   C20   1.277686 A    
Zn11  O19   1.932873 S    
C115  C120  1.438577 A    
C66   N66   1.447236 S    
C82   C102  1.422146 A    
Zn10  O2    1.952949 S    
C11   C139  1.468854 S    
N56   O107  1.299882 A    
Zn9   O49   1.945792 S    
C170  N50   1.157609 T    
Zn4   O4    1.966040 S    
C128  C168  1.450619 S    
C57   C61   1.411464 A    
C59   C175  1.453090 S    
N45   O93   1.301186 A    
C176  N60   1.155993 T    
C58   C62   1.409456 A    
C28   C48   1.428476 A    
C35   C39   1.413074 A    
Zn8   O24   1.948417 S    
N68   O115  1.300066 A    
C179  N63   1.157402 T    
C93   C97   1.405927 A    
C73   C149  1.443425 S    
N18   O63   1.300742 A    
O25   C21   1.286834 A    
O29   C17   1.278011 A    
C132  N40   1.441039 S    
N66   O111  1.300405 A    
Zn12  O52   1.952628 S    
N17   O61   1.299591 A    
C149  N5    1.156687 T    
O22   C18   1.266897 A    
C81   C101  1.421592 A    
C142  C162  1.456601 S    
C124  N20   1.437778 S    
C157  N21   1.157878 T    
C84   C104  1.425931 A    
Zn13  O41   1.931940 S    
O50   C6    1.290031 A    
C5    C89   1.474611 S    
C83   C103  1.430991 A    
N42   O87   1.295972 A    
C153  N13   1.157490 T    
Zn16  O44   1.932825 S    
Zn1   O37   1.938696 S    
N44   O92   1.299222 A    
Zn2   O34   1.943188 S    
C71   C75   1.409911 A    
N42   O88   1.300831 A    
Zn6   O22   1.948417 S    
C137  C141  1.404756 A    
C40   N56   1.440082 S    
C42   C46   1.415027 A    
C139  C143  1.408625 A    
N37   O78   1.300975 A    
C20   C61   1.481968 S    
C75   C151  1.444705 S    
C144  C164  1.458202 S    
C141  C142  1.380401 A    
C127  C131  1.406681 A    
N41   O86   1.301286 A    
C87   C91   1.409750 A    
C88   C92   1.416697 A    
N47   O98   1.299924 A    
N46   O95   1.301273 A    
C147  N3    1.157576 T    
C48   C52   1.440276 A    
O5    C1    1.295711 A    
O26   C22   1.282919 A    
C71   N71   1.440496 S    
C79   C83   1.422015 A    
C53   C57   1.402175 A    
C167  N35   1.155085 T    
C138  C142  1.406286 A    
C55   C59   1.401981 A    
C178  N62   1.157734 T    
C165  N33   1.157203 T    
Zn5   O45   1.946180 S    
Zn7   O47   1.946180 S    
Zn8   O48   1.950668 S    
C45   C49   1.422012 A    
C43   C63   1.427925 A    
C12   C140  1.452448 S    
C21   C49   1.479259 S    
C98   C102  1.426459 A    
C47   C51   1.416435 A    
C41   C61   1.417045 A    
C23   C51   1.468839 S    
O51   C7    1.267372 A    
C25   C29   1.414370 A    
C74   C150  1.442396 S    
C44   C48   1.420324 A    
O8    C4    1.272195 A    
Zn9   O1    1.951201 S    
C148  N4    1.157536 T    
C37   C41   1.419774 A    
Zn7   O23   1.942890 S    
C39   C43   1.424122 A    
C69   N69   1.441517 S    
C80   C84   1.422936 A    
N71   O122  1.301184 A    
C109  N25   1.439904 S    
C113  C118  1.434926 A    
C117  C121  1.412164 A    
O52   C8    1.289085 A    
C135  C140  1.431660 A    
Zn1   O1    1.941755 S    
O40   C12   1.277140 A    
C116  C119  1.429184 A    
Zn13  O1    1.953245 S    
C120  C124  1.402707 A    
C4    C101  1.481982 S    
Zn14  O6    1.945749 S    
Zn3   O11   1.950621 S    
N20   O67   1.301170 A    
C24   C52   1.474711 S    
Zn15  O27   1.942961 S    
C168  N36   1.157941 T    
C126  C130  1.409211 A    
C28   C32   1.410626 A    
N66   O112  1.301611 A    
C91   C95   1.411125 A    
C2    C103  1.475271 S    
C129  C130  1.398934 A    
O41   C13   1.279183 A    
C34   C172  1.448009 S    
C108  C112  1.406296 A    
C100  C156  1.456880 S    
O13   C9    1.295720 A    
N54   O103  1.299683 A    
N46   O96   1.300977 A    
C162  N30   1.157588 T    
N28   O75   1.300723 A    
O18   C14   1.274827 A    
O6    C2    1.266601 A    
N65   O110  1.300850 A    
Zn9   O29   1.950565 S    
Zn11  O31   1.950565 S    
N27   O73   1.301338 A    
Zn12  O32   1.943000 S    
Zn13  O25   1.942961 S    
C173  N57   1.157577 T    
C158  N22   1.153946 T    
C72   N72   1.437591 S    
C145  N1    1.157782 T    
Zn15  O3    1.953245 S    
Zn11  O3    1.951201 S    
N48   O100  1.300894 A    
C14   C118  1.460492 S    
C92   C96   1.412840 A    
O43   C15   1.276412 A    
Zn5   O1    1.966193 S    
C26   C30   1.409654 A    
C7    C91   1.465722 S    
C154  N14   1.157918 T    
C22   C50   1.470011 S    
C121  N17   1.444619 S    
N37   O77   1.301107 A    
C77   N9    1.444462 S    
O35   C23   1.272413 A    
C106  C158  1.439504 S    
C94   C98   1.398103 A    
C110  N26   1.439162 S    
C134  C137  1.430682 A    
N40   O84   1.301444 A    
N11   O57   1.301929 A    
O32   C20   1.286099 A    
C76   C152  1.445881 S    
C106  C110  1.404431 A    
C76   C80   1.416900 A    
C56   C60   1.394541 A    
C127  C167  1.443021 S    
C55   C147  1.453685 S    
C56   C148  1.456726 S    
N43   O89   1.301052 A    
N25   O69   1.301389 A    
Zn9   O17   1.932873 S    
C39   N55   1.444034 S    
C94   C178  1.456338 S    
N38   O80   1.301487 A    
Zn14  O42   1.932825 S    
C6    C90   1.481507 S    
O7    C3    1.297046 A    
C150  N6    1.155381 T    
Zn2   O38   1.926390 S    
N55   O105  1.301839 A    
Zn3   O35   1.948718 S    
C127  C136  1.434190 A    
N53   O101  1.301686 A    
C25   N41   1.439340 S    
C123  N19   1.443630 S    
C125  C134  1.431835 A    
C35   C169  1.446617 S    
C57   C173  1.453911 S    
O37   C9    1.275793 A    
C10   C138  1.459789 S    
C163  N31   1.156366 T    
O39   C11   1.279097 A    
C172  N52   1.157672 T    
C136  C139  1.438015 A    
C160  N24   1.152622 T    
C25   C45   1.420575 A    
C44   C64   1.417396 A    
C128  C135  1.437135 A    
N56   O108  1.300855 A    
O17   C13   1.279365 A    
C70   C74   1.406550 A    
O36   C24   1.289136 A    
C37   N53   1.445370 S    
C28   N44   1.424339 S    
O12   C8    1.288223 A    
C89   C93   1.420913 A    
C36   C40   1.402863 A    
C93   C177  1.452910 S    
O31   C19   1.282029 A    
N18   O64   1.301256 A    
C69   C73   1.417712 A    
N12   O59   1.301339 A    
O19   C15   1.281256 A    
Zn15  O43   1.931940 S    
C72   C76   1.408089 A    
C99   C103  1.417436 A    
N72   O123  1.301028 A    
Zn6   O46   1.950668 S    
C59   C63   1.411094 A    
C27   N43   1.434273 S    
N47   O97   1.301193 A    
N9    O54   1.301714 A    
C30   C34   1.395305 A    
C66   C86   1.421506 A    
N10   O55   1.301641 A    
C131  N39   1.438760 S    
C42   C62   1.423179 A    
C85   C89   1.407875 A    
C121  C122  1.394109 A    
C111  C112  1.394197 A    
C40   C44   1.428069 A    
C100  C104  1.428262 A    
C109  C110  1.394635 A    
N69   O118  1.301163 A    
C114  C117  1.430798 A    
C77   C81   1.416137 A    
C107  C116  1.442976 A    
O38   C10   1.278505 A    
C79   N11   1.443020 S    
C108  C115  1.430482 A    
C135  C136  1.429746 A    
Zn2   O2    1.966040 S    
C133  C134  1.432380 A    
Zn14  O2    1.951494 S    
C180  N64   1.157735 T    
C146  N2    1.157648 T    
N70   O119  1.301034 A    
C107  C159  1.450945 S    
C26   C46   1.426002 A    
O49   C5    1.267842 A    
C78   N10   1.441531 S    
N41   O85   1.300885 A    
C75   C79   1.413435 A    
Zn8   O4    1.941907 S    
C26   N42   1.427970 S    
Zn4   O36   1.943188 S    
C65   C85   1.411663 A    
O21   C17   1.286555 A    
N27   O74   1.301153 A    
C17   C64   1.461356 S    
C50   C54   1.412263 A    
C68   C88   1.417489 A    
C18   C63   1.479851 S    
C67   C87   1.415009 A    
C49   C53   1.424887 A    
C108  C160  1.434709 S    
N53   O102  1.301257 A    
C174  N58   1.157099 T    
C27   C47   1.421199 A    
N45   O94   1.299868 A    
Zn10  O30   1.943000 S    
Zn12  O20   1.931983 S    
C159  N23   1.157891 T    
O9    C5    1.290280 A    
C140  C144  1.404212 A    
Zn14  O26   1.950521 S    
Zn15  O7    1.952581 S    
C30   N46   1.435844 S    
Zn16  O8    1.945749 S    
N39   O81   1.301246 A    
Zn1   O9    1.950621 S    
N11   O58   1.301484 A    
C15   C119  1.444862 S    
Zn3   O39   1.938696 S    
C60   C64   1.405213 A    
C106  C113  1.429816 A    
C13   C117  1.446530 S    
Zn4   O12   1.946138 S    
Zn11  O51   1.945792 S    
C126  C166  1.450256 S    
C60   C176  1.451949 S    
Zn5   O13   1.926346 S    
N67   O114  1.301220 A    
C33   C37   1.411231 A    
Zn6   O2    1.941907 S    
N17   O62   1.301455 A    
Zn7   O15   1.926346 S    
Zn8   O16   1.938648 S    
C29   N45   1.434024 S    
C107  C111  1.405581 A    
C161  N29   1.156396 T    
C99   C155  1.450552 S    
O27   C23   1.284581 A    
C54   C58   1.394141 A    
C95   C99   1.400823 A    
C143  C144  1.383032 A    
N44   O91   1.297431 A    
N55   O106  1.301611 A    
C95   C179  1.453096 S    
C105  C109  1.406578 A    
C122  N18   1.441278 S    
C151  N7    1.156943 T    
Zn10  O18   1.931983 S    
C46   C50   1.433032 A    
N26   O72   1.301231 A    
N54   O104  1.298565 A    
C141  C161  1.448754 S    
C164  N32   1.157544 T    
N28   O76   1.301088 A    
N19   O65   1.301603 A    
N20   O68   1.301110 A    
N65   O109  1.297913 A    
C38   C42   1.428461 A    
O45   C1    1.284787 A    
C8    C92   1.482598 S    
C33   C171  1.447142 S    
C119  C123  1.409234 A    
O33   C21   1.276834 A    
C66   C70   1.412550 A    
C156  N16   1.157873 T    
O15   C11   1.290710 A    
C41   C45   1.400663 A    
C177  N61   1.157607 T    
C96   C180  1.456265 S    
O44   C16   1.287302 A    
Zn1   O33   1.948718 S    
O20   C16   1.278240 A    
C125  C129  1.405046 A    
O10   C6    1.286824 A    
C34   C38   1.405345 A    
O48   C4    1.290258 A    
C16   C120  1.462820 S    
C90   C94   1.413591 A    
O14   C10   1.286375 A    
C82   C86   1.402180 A    
C43   C47   1.400952 A    
C65   N65   1.437390 S    
N68   O116  1.301076 A    
C29   C33   1.409718 A    
C52   C56   1.412182 A    
O30   C18   1.295760 A    
