data_mof_unit_10175.cif
_audit_creation_date              2012-12-11T14:08:44-0500
_audit_creation_method            fapswitch 2.2
_symmetry_space_group_name_H-M    P1
_symmetry_Int_Tables_number       1
_space_group_crystal_system       triclinic
_cell_length_a                    28.28933
_cell_length_b                    7.179296
_cell_length_c                    17.246133
_cell_angle_alpha                 89.999781
_cell_angle_beta                  102.380752
_cell_angle_gamma                 90.000059
_cell_volume                      3421.18977379

loop_
_atom_site_label
_atom_site_type_symbol
_atom_type_description
_atom_site_fract_x
_atom_site_fract_y
_atom_site_fract_z
_atom_type_partial_charge
O1    O     O_R   0.000700 0.436510 0.857920 -0.521452
O2    O     O_R   0.999300 0.563490 0.142080 -0.521465
O3    O     O_R   0.999300 0.936510 0.642080 -0.521589
O4    O     O_R   0.000700 0.063490 0.357920 -0.521604
O5    O     O_R   0.930080 0.766380 0.721890 -0.553501
O6    O     O_R   0.069920 0.233620 0.278110 -0.553507
O7    O     O_R   0.069920 0.266380 0.778110 -0.553503
O8    O     O_R   0.930080 0.733620 0.221890 -0.553539
C1    C     C_R   0.910539 0.597427 0.707879 0.734981
C2    C     C_R   0.089461 0.402573 0.292121 0.735040
C3    C     C_R   0.089462 0.097425 0.792114 0.734880
C4    C     C_R   0.910539 0.902573 0.207879 0.734863
O9    O     O_R   0.996180 0.766230 0.862310 -0.527549
O10   O     O_R   0.003820 0.233770 0.137690 -0.527343
O11   O     O_R   0.003820 0.266230 0.637690 -0.527390
O12   O     O_R   0.996180 0.733770 0.362310 -0.527391
O13   O     O_R   0.065870 0.936460 0.783500 -0.505556
O14   O     O_R   0.934130 0.063540 0.216500 -0.505500
O15   O     O_R   0.934130 0.436460 0.716500 -0.505478
O16   O     O_R   0.065870 0.563540 0.283500 -0.505487
C5    C     C_R   0.998890 0.595984 0.894412 0.682591
C6    C     C_R   0.001123 0.404019 0.105593 0.683222
C7    C     C_R   0.001120 0.095983 0.605592 0.683083
C8    C     C_R   0.998880 0.904017 0.394408 0.683067
O17   O     O_3   0.022790 0.603020 0.723980 -0.370887
O18   O     O_3   0.977210 0.396980 0.276020 -0.370924
O19   O     O_3   0.977210 0.103020 0.776020 -0.370856
O20   O     O_3   0.022790 0.896980 0.223980 -0.370868
V1    V     V_3+5 0.995770 0.877900 0.754830 1.507629
V2    V     V_3+5 0.004230 0.122100 0.245170 1.507825
V3    V     V_3+5 0.004230 0.377900 0.745170 1.507866
V4    V     V_3+5 0.995770 0.622100 0.254830 1.507855
C9    C     C_2   0.995558 0.081687 0.518157 0.120106
C10   C     C_2   0.004441 0.918313 0.481842 0.120116
C11   C     C_2   0.004477 0.581677 0.981856 0.120291
C12   C     C_2   0.995559 0.418330 0.018158 0.120183
C13   C     C_R   0.682306 0.925562 0.022205 0.629144
C14   C     C_R   0.317698 0.074479 0.977755 0.629164
C15   C     C_R   0.317696 0.425575 0.477786 0.629139
C16   C     C_R   0.682304 0.574443 0.522214 0.629140
O21   O     O_2   0.710708 0.900578 0.969387 -0.510743
O22   O     O_2   0.289296 0.099466 0.030572 -0.510741
O23   O     O_2   0.289296 0.400594 0.530606 -0.510740
O24   O     O_2   0.710704 0.599429 0.469394 -0.510745
N1    N     N_R   0.702810 0.931981 0.101620 -0.531896
N2    N     N_R   0.297194 0.068051 0.898340 -0.531897
N3    N     N_R   0.297190 0.431990 0.398371 -0.531899
N4    N     N_R   0.702810 0.568016 0.601628 -0.531896
C17   C     C_R   0.674973 0.961256 0.156250 0.632643
C18   C     C_R   0.325031 0.038772 0.843710 0.632616
C19   C     C_R   0.325026 0.461262 0.343738 0.632656
C20   C     C_R   0.674973 0.538739 0.656260 0.632646
C21   C     C_R   0.777380 0.759036 0.161819 0.421222
C22   C     C_R   0.222619 0.240996 0.838169 0.421210
C23   C     C_R   0.222621 0.259046 0.338171 0.421225
C24   C     C_R   0.777380 0.740958 0.661828 0.421223
C25   C     C_R   0.828196 0.755150 0.187738 -0.384057
C26   C     C_R   0.171802 0.244874 0.812258 -0.384039
C27   C     C_R   0.171804 0.255157 0.312254 -0.384009
C28   C     C_R   0.828196 0.744845 0.687745 -0.384042
C29   C     C_R   0.833385 0.076439 0.145221 0.325871
C30   C     C_R   0.166624 0.923534 0.854719 0.325750
C31   C     C_R   0.166614 0.576435 0.354784 0.325868
C32   C     C_R   0.833385 0.423566 0.645216 0.325886
C33   C     C_R   0.782656 0.078872 0.119517 -0.277570
C34   C     C_R   0.217353 0.921116 0.880419 -0.277527
C35   C     C_R   0.217343 0.578871 0.380484 -0.277554
C36   C     C_R   0.782656 0.421131 0.619516 -0.277568
C37   C     C_R   0.754735 0.922303 0.127650 0.335429
C38   C     C_R   0.245269 0.077715 0.872312 0.335458
C39   C     C_R   0.245265 0.422309 0.372344 0.335418
C40   C     C_R   0.754735 0.577695 0.627655 0.335424
C41   C     C_R   0.602304 0.969454 0.050420 -0.049797
C42   C     C_R   0.397700 0.030584 0.949540 -0.049797
C43   C     C_R   0.397697 0.469458 0.449564 -0.049798
C44   C     C_R   0.602303 0.530558 0.550434 -0.049798
C45   C     C_R   0.631793 0.945863 0.995265 -0.088879
C46   C     C_R   0.368211 0.054181 0.004694 -0.088885
C47   C     C_R   0.368209 0.445873 0.504722 -0.088876
C48   C     C_R   0.631791 0.554149 0.495277 -0.088880
C49   C     C_R   0.611061 0.955930 0.914424 -0.217556
C50   C     C_R   0.388943 0.044119 0.085536 -0.217553
C51   C     C_R   0.388943 0.455943 0.585562 -0.217559
C52   C     C_R   0.611057 0.544090 0.414436 -0.217556
C53   C     C_R   0.624482 0.982267 0.131633 -0.033337
C54   C     C_R   0.375522 0.017763 0.868327 -0.033337
C55   C     C_R   0.375517 0.482270 0.368352 -0.033341
C56   C     C_R   0.624482 0.517736 0.631645 -0.033344
C57   C     C_R   0.856730 0.912492 0.180171 -0.110444
C58   C     C_R   0.143273 0.087506 0.819806 -0.110407
C59   C     C_R   0.143270 0.412492 0.319829 -0.110427
C60   C     C_R   0.856730 0.587509 0.680171 -0.110473
H1    H     H_    0.764506 0.203552 0.092953 0.150075
H2    H     H_    0.235507 0.796422 0.906960 0.150069
H3    H     H_    0.235493 0.703549 0.407051 0.150075
H4    H     H_    0.764506 0.296454 0.592948 0.150074
H5    H     H_    0.634820 0.956590 0.873017 0.172265
H6    H     H_    0.365184 0.043464 0.126943 0.172266
H7    H     H_    0.365186 0.456608 0.626971 0.172264
H8    H     H_    0.634815 0.543430 0.373027 0.172266
C61   C     C_R   0.477852 0.985980 0.917990 0.055110
C62   C     C_R   0.522152 0.014055 0.081971 0.055117
C63   C     C_R   0.522151 0.485969 0.581988 0.055108
C64   C     C_R   0.477848 0.514048 0.418009 0.055118
C65   C     C_R   0.470458 0.018755 0.058065 -0.043421
C66   C     C_R   0.529546 0.981284 0.941895 -0.043429
C67   C     C_R   0.529543 0.518740 0.441912 -0.043419
C68   C     C_R   0.470457 0.481283 0.558085 -0.043423
C69   C     C_R   0.448962 0.013938 0.975398 0.009947
C70   C     C_R   0.551042 0.986099 0.024562 0.009951
C71   C     C_R   0.551041 0.513921 0.524578 0.009945
C72   C     C_R   0.448959 0.486098 0.475419 0.009950
C73   C     C_R   0.453392 0.952082 0.838662 -0.146141
C74   C     C_R   0.546612 0.047946 0.161299 -0.146161
C75   C     C_R   0.546612 0.452069 0.661315 -0.146145
C76   C     C_R   0.453387 0.547941 0.338681 -0.146167
C77   C     C_R   0.403719 0.973353 0.813957 -0.184418
C78   C     C_R   0.596285 0.026670 0.186004 -0.184408
C79   C     C_R   0.596286 0.473333 0.686017 -0.184411
C80   C     C_R   0.403713 0.526670 0.313979 -0.184405
O25   O     O_2   0.303875 0.027519 0.765893 -0.508776
O26   O     O_2   0.696129 0.972503 0.234068 -0.508776
O27   O     O_2   0.696131 0.527484 0.734077 -0.508774
O28   O     O_2   0.303869 0.472509 0.265921 -0.508766
C81   C     C_R   0.560814 0.980196 0.886358 0.377203
C82   C     C_R   0.439190 0.019848 0.113602 0.377206
C83   C     C_R   0.439191 0.480204 0.613626 0.377206
C84   C     C_R   0.560809 0.519829 0.386372 0.377207
H9    H     H_    0.154626 0.371168 0.785644 0.160900
H10   H     H_    0.845369 0.628871 0.214376 0.160885
H11   H     H_    0.845369 0.871121 0.714386 0.160880
H12   H     H_    0.154632 0.128881 0.285613 0.160832
H13   H     H_    0.387357 0.949638 0.751954 0.174669
H14   H     H_    0.612646 0.050379 0.248007 0.174666
H15   H     H_    0.612648 0.449617 0.748020 0.174670
H16   H     H_    0.387351 0.550378 0.251976 0.174668
H17   H     H_    0.471199 0.898696 0.794418 0.198309
H18   H     H_    0.528805 0.101327 0.205544 0.198297
H19   H     H_    0.528805 0.398687 0.705561 0.198310
H20   H     H_    0.471193 0.601320 0.294434 0.198295
O29   O     O_3   0.979999 0.239877 0.473682 -0.543704
C85   C     C_3   0.929409 0.257764 0.466053 0.122941
H21   H     H_    0.918464 0.244167 0.524148 0.131713
H22   H     H_    0.910191 0.149971 0.424565 0.098719
C86   C     C_3   0.913186 0.449301 0.433001 -0.621052
H23   H     H_    0.920773 0.466493 0.372970 0.228006
H24   H     H_    0.873659 0.465321 0.428669 0.167649
H25   H     H_    0.932482 0.559302 0.472854 0.231358
O30   O     O_3   0.019999 0.760122 0.526317 -0.543702
C87   C     C_3   0.070591 0.742243 0.533953 0.122947
H26   H     H_    0.089805 0.850016 0.575454 0.098735
H27   H     H_    0.081540 0.755876 0.475864 0.131685
C88   C     C_3   0.086811 0.550690 0.566989 -0.621029
H28   H     H_    0.067520 0.440708 0.527120 0.231344
H29   H     H_    0.126340 0.534681 0.571331 0.167650
H30   H     H_    0.079218 0.533459 0.627013 0.228020
O31   O     O_3   0.020083 0.739782 0.026369 -0.543700
C89   C     C_3   0.070635 0.758048 0.033610 0.122601
H31   H     H_    0.081329 0.746256 0.975259 0.132635
H32   H     H_    0.090004 0.649301 0.074421 0.098407
C90   C     C_3   0.086946 0.948823 0.067478 -0.621183
H33   H     H_    0.079696 0.964059 0.127815 0.227767
H34   H     H_    0.126416 0.965314 0.071334 0.167722
H35   H     H_    0.067449 0.059756 0.028409 0.231436
O32   O     O_3   0.979982 0.260172 0.973669 -0.543732
C91   C     C_3   0.929399 0.242238 0.966112 0.122762
H36   H     H_    0.910157 0.350153 0.924715 0.098740
H37   H     H_    0.918495 0.255602 0.024247 0.131828
C92   C     C_3   0.913164 0.050796 0.932959 -0.621065
H38   H     H_    0.932493 0.940678 0.972706 0.231283
H39   H     H_    0.873646 0.034707 0.928705 0.167689
H40   H     H_    0.920698 0.033862 0.872881 0.227978
O33   O     O_3   0.860427 0.231693 0.135552 -0.646803
H41   H     H_    0.838550 0.332525 0.110057 0.280614
O34   O     O_3   0.139588 0.768236 0.864351 -0.646914
H42   H     H_    0.161469 0.667401 0.889834 0.280611
O35   O     O_3   0.139571 0.731680 0.364462 -0.646803
H43   H     H_    0.161448 0.832512 0.389957 0.280614
O36   O     O_3   0.860428 0.268321 0.635538 -0.646781
H44   H     H_    0.838551 0.167489 0.610042 0.280620
O37   O     O_3   0.250840 0.394313 0.831073 -0.627355
H45   H     H_    0.229571 0.497377 0.806136 0.292953
O38   O     O_3   0.749155 0.605742 0.168932 -0.627345
H46   H     H_    0.770421 0.502680 0.193878 0.292969
O39   O     O_3   0.749155 0.894248 0.668946 -0.627345
H47   H     H_    0.770421 0.997309 0.693893 0.292973
O40   O     O_3   0.250846 0.105757 0.331052 -0.627343
H48   H     H_    0.229580 0.002695 0.306106 0.292973
O41   O     O_3   0.543157 0.037077 0.808095 -0.576092
C93   C     C_3   0.563199 0.934538 0.752710 0.063181
H49   H     H_    0.569386 0.785771 0.770453 0.142517
H50   H     H_    0.597775 0.999746 0.746210 0.155345
C94   C     C_3   0.528853 0.939848 0.671551 -0.679213
H51   H     H_    0.518946 0.085129 0.653639 0.216948
H52   H     H_    0.546626 0.876255 0.626509 0.196612
H53   H     H_    0.495314 0.861320 0.672730 0.242903
O42   O     O_3   0.456845 0.962964 0.191864 -0.576089
C95   C     C_3   0.436807 0.065516 0.247250 0.063179
H54   H     H_    0.402228 0.000332 0.253747 0.155346
H55   H     H_    0.430627 0.214288 0.229509 0.142510
C96   C     C_3   0.471151 0.060182 0.328410 -0.679204
H56   H     H_    0.504695 0.138688 0.327234 0.242901
H57   H     H_    0.453381 0.123786 0.373452 0.196618
H58   H     H_    0.481052 0.914894 0.346320 0.216943
O43   O     O_3   0.456850 0.537088 0.691887 -0.576093
C97   C     C_3   0.436807 0.434564 0.747276 0.063180
H59   H     H_    0.430615 0.285798 0.729534 0.142517
H60   H     H_    0.402234 0.499789 0.753777 0.155343
C98   C     C_3   0.471156 0.439864 0.828432 -0.679223
H61   H     H_    0.481069 0.585142 0.846342 0.216948
H62   H     H_    0.453383 0.376287 0.873477 0.196611
H63   H     H_    0.504692 0.361316 0.827251 0.242902
O44   O     O_3   0.543152 0.462951 0.308110 -0.576091
C99   C     C_3   0.563190 0.565499 0.252723 0.063177
H64   H     H_    0.597767 0.500303 0.246222 0.155345
H65   H     H_    0.569374 0.714268 0.270466 0.142511
C100  C     C_3   0.528844 0.560180 0.171565 -0.679213
H66   H     H_    0.495303 0.638699 0.172745 0.242904
H67   H     H_    0.546614 0.623779 0.126522 0.196618
H68   H     H_    0.518939 0.414897 0.153654 0.216941

loop_
_geom_bond_atom_site_label_1
_geom_bond_atom_site_label_2
_ccdc_geom_bond_type
C52   C84   A    
C89   H32   S    
O1    C5    A    
O32   C91   S    
C23   C27   A    
O19   V1    S    
O13   V1    S    
C96   H56   S    
O3    C7    A    
C11   C12   D    
C3    C58   S    
C48   C52   A    
C21   C37   A    
C86   H25   S    
C42   C69   A    
C90   H33   S    
O4    V2    S    
C41   C70   A    
C34   C38   A    
O37   H45   S    
C100  H68   S    
O7    C3    A    
C66   C81   A    
C43   C72   A    
C36   H4    S    
C25   C57   A    
C65   C82   A    
C32   C36   A    
C63   C71   A    
O10   V2    S    
C67   C84   A    
C14   O22   S    
C21   O38   S    
C22   C26   A    
O4    C8    A    
C20   O27   S    
C99   H65   S    
C30   O34   S    
C26   H9    S    
C61   C69   A    
O1    V3    S    
C98   H63   S    
C61   C73   A    
C28   H11   S    
C62   C65   A    
O2    V4    S    
C92   H38   S    
O3    V1    S    
C46   C50   A    
C50   C82   A    
C65   C69   A    
C93   C94   S    
C86   H24   S    
C77   H13   S    
C64   C76   A    
C1    O15   A    
O31   C89   S    
C2    O16   A    
C24   C40   A    
C87   C88   S    
O2    C6    A    
C93   H50   S    
C16   C48   A    
C95   H54   S    
O14   V2    S    
C45   C49   A    
C88   H29   S    
C44   C56   A    
C89   C90   S    
O8    C4    A    
C84   O44   S    
C34   H2    S    
C68   C72   A    
O11   C7    A    
O15   V3    S    
O12   C8    A    
C51   H7    S    
C91   H37   S    
C19   O28   S    
C96   H57   S    
C85   C86   S    
C31   C59   A    
O41   C93   S    
C18   O25   S    
N4    C40   S    
C1    C60   S    
C90   H34   S    
C10   O30   S    
C29   C57   A    
C86   H23   S    
O5    V1    S    
C28   C60   A    
C31   C35   A    
C27   H12   S    
O7    V3    S    
C50   H6    S    
N1    C37   S    
O8    V4    S    
C17   C53   A    
C4    C57   S    
C20   C56   A    
C29   O33   S    
C98   H61   S    
C19   C55   A    
C64   C72   A    
C32   O36   S    
C30   C34   A    
C97   H59   S    
C15   O23   S    
C14   C46   A    
C7    C9    S    
C100  H66   S    
O44   C99   S    
C13   C45   A    
O42   C95   S    
C79   H15   S    
C76   C80   A    
C80   H16   S    
C15   C47   A    
C63   C75   A    
O38   H46   S    
C11   O31   S    
C93   H49   S    
O5    C1    A    
C62   C74   A    
C87   H27   S    
C25   H10   S    
O34   H42   S    
C22   C38   A    
N4    C20   A    
C36   C40   A    
C94   H53   S    
N3    C39   S    
C95   C96   S    
C94   H52   S    
N1    C17   A    
C22   O37   S    
O9    C5    A    
C27   C59   A    
C42   C54   A    
C88   H30   S    
C26   C58   A    
C41   C53   A    
C74   C78   A    
C73   C77   A    
C82   O42   S    
C56   C79   A    
O6    V2    S    
C35   H3    S    
C75   H19   S    
C2    C59   S    
O35   H43   S    
C75   C79   A    
C89   H31   S    
C96   H58   S    
C85   H22   S    
C62   C70   A    
C100  H67   S    
C32   C60   A    
C13   N1    A    
C90   H35   S    
C15   N3    A    
O16   V4    S    
O9    V1    S    
C61   C66   A    
C16   N4    A    
O43   C97   S    
C3    O13   A    
C21   C25   A    
C49   C81   A    
C99   H64   S    
C67   C71   A    
O17   V3    S    
C44   C48   A    
C51   C83   A    
C95   H55   S    
C99   C100  S    
C78   H14   S    
O6    C2    A    
C52   H8    S    
N3    C19   A    
C23   O40   S    
O11   V3    S    
O18   V4    S    
O12   V4    S    
C6    C12   S    
N2    C18   A    
C31   O35   S    
C73   H17   S    
C9    O29   S    
O10   C6    A    
O20   V2    S    
C5    C11   S    
C83   O43   S    
C55   C80   A    
O29   C85   S    
C14   N2    A    
C47   C51   A    
C97   C98   S    
O39   H47   S    
C91   H36   S    
C49   H5    S    
C44   C71   A    
C33   C37   A    
C17   O26   S    
C30   C58   A    
C33   H1    S    
C12   O32   S    
C98   H62   S    
C9    C10   D    
C54   C77   A    
C35   C39   A    
C74   H18   S    
C68   C83   A    
C13   O21   S    
C53   C78   A    
C8    C10   S    
N2    C38   S    
C18   C54   A    
O33   H41   S    
O36   H44   S    
C29   C33   A    
C16   O24   S    
C24   C28   A    
C24   O39   S    
O40   H48   S    
C91   C92   S    
C66   C70   A    
C94   H51   S    
C42   C46   A    
C4    O14   A    
C41   C45   A    
C85   H21   S    
C63   C68   A    
C81   O41   S    
C92   H40   S    
C88   H28   S    
O30   C87   S    
C97   H60   S    
C43   C47   A    
C64   C67   A    
C23   C39   A    
C43   C55   A    
C87   H26   S    
C76   H20   S    
C92   H39   S    
