data_mof_unit_43166.cif
_audit_creation_date              2012-12-10T16:37:57-0500
_audit_creation_method            fapswitch 2.2
_symmetry_space_group_name_H-M    P1
_symmetry_Int_Tables_number       1
_space_group_crystal_system       triclinic
_cell_length_a                    28.044962
_cell_length_b                    18.431412
_cell_length_c                    16.929445
_cell_angle_alpha                 89.823221
_cell_angle_beta                  60.885587
_cell_angle_gamma                 89.960652
_cell_volume                      7645.24376774

loop_
_atom_site_label
_atom_site_type_symbol
_atom_type_description
_atom_site_fract_x
_atom_site_fract_y
_atom_site_fract_z
_atom_type_partial_charge
C1    C     C_R   0.700049 0.264544 0.677358 0.893698
C2    C     C_R   0.299951 0.735456 0.322642 0.893700
C3    C     C_R   0.299061 0.266332 0.322858 0.893077
C4    C     C_R   0.700939 0.733667 0.677142 0.893074
C5    C     C_R   0.200049 0.764544 0.677358 0.893701
C6    C     C_R   0.799951 0.235456 0.322642 0.893699
C7    C     C_R   0.799061 0.766332 0.322858 0.893073
C8    C     C_R   0.200939 0.233666 0.677141 0.893080
C9    C     C_R   0.905905 0.503884 0.480605 0.071707
C10   C     C_R   0.094093 0.496116 0.519397 0.071709
C11   C     C_R   0.405907 0.003883 0.480602 0.071709
C12   C     C_R   0.594095 0.996116 0.519394 0.071707
C13   C     C_R   0.069189 0.375774 0.586404 -0.198825
C14   C     C_R   0.930809 0.624227 0.413593 -0.198815
C15   C     C_R   0.877625 0.388231 0.558526 -0.200190
C16   C     C_R   0.122371 0.611771 0.441481 -0.200192
C17   C     C_R   0.569191 0.875773 0.586407 -0.198816
C18   C     C_R   0.430811 0.124226 0.413596 -0.198825
C19   C     C_R   0.377629 0.888229 0.558519 -0.200192
C20   C     C_R   0.622375 0.111769 0.441474 -0.200189
C21   C     C_R   0.723359 0.270648 0.950300 0.023434
C22   C     C_R   0.276642 0.729353 0.049699 0.023435
C23   C     C_R   0.282651 0.260077 0.042278 0.029277
C24   C     C_R   0.717351 0.739919 0.957722 0.029273
C25   C     C_R   0.223358 0.770647 0.950300 0.023434
C26   C     C_R   0.776643 0.229355 0.049698 0.023435
C27   C     C_R   0.782649 0.760082 0.042277 0.029274
C28   C     C_R   0.217354 0.239911 0.957720 0.029276
C29   C     C_R   0.753196 0.204973 0.929126 0.085334
C30   C     C_R   0.246805 0.795027 0.070873 0.085335
C31   C     C_R   0.232186 0.222688 0.087955 0.091444
C32   C     C_R   0.767814 0.777310 0.912046 0.091449
C33   C     C_R   0.253196 0.704972 0.929126 0.085334
C34   C     C_R   0.746806 0.295030 0.070872 0.085333
C35   C     C_R   0.732185 0.722693 0.087954 0.091448
C36   C     C_R   0.267820 0.277295 0.912041 0.091450
C37   C     C_R   0.778658 0.183351 0.980875 -0.021186
C38   C     C_R   0.221343 0.816650 0.019125 -0.021190
C39   C     C_R   0.198270 0.215663 0.047274 -0.009930
C40   C     C_R   0.801731 0.784336 0.952726 -0.009928
C41   C     C_R   0.278657 0.683350 0.980875 -0.021188
C42   C     C_R   0.721344 0.316652 0.019124 -0.021190
C43   C     C_R   0.698268 0.715668 0.047274 -0.009929
C44   C     C_R   0.301736 0.284321 0.952723 -0.009929
C45   C     C_R   0.663982 0.354683 0.924475 -0.028698
C46   C     C_R   0.336018 0.645317 0.075525 -0.028701
C47   C     C_R   0.364891 0.309855 0.040999 0.017923
C48   C     C_R   0.635110 0.690144 0.959001 0.017918
C49   C     C_R   0.163982 0.854683 0.924475 -0.028700
C50   C     C_R   0.836019 0.145320 0.075524 -0.028700
C51   C     C_R   0.864891 0.809855 0.040998 0.017920
C52   C     C_R   0.135111 0.190143 0.959000 0.017918
C53   C     C_R   0.628767 0.365489 0.886555 -0.116242
C54   C     C_R   0.371233 0.634511 0.113444 -0.116244
C55   C     C_R   0.389505 0.336159 0.092807 -0.088020
C56   C     C_R   0.610494 0.663841 0.907194 -0.088020
C57   C     C_R   0.128767 0.865489 0.886556 -0.116245
C58   C     C_R   0.871234 0.134513 0.113444 -0.116241
C59   C     C_R   0.889506 0.836158 0.092805 -0.088023
C60   C     C_R   0.110495 0.163841 0.907193 -0.088020
C61   C     C_R   0.636896 0.327663 0.811199 -0.262850
C62   C     C_R   0.363104 0.672337 0.188801 -0.262854
C63   C     C_R   0.369327 0.315034 0.181545 -0.307976
C64   C     C_R   0.630672 0.684967 0.818456 -0.307976
C65   C     C_R   0.136896 0.827663 0.811199 -0.262856
C66   C     C_R   0.863105 0.172339 0.188801 -0.262850
C67   C     C_R   0.869328 0.815031 0.181543 -0.307973
C68   C     C_R   0.130673 0.184967 0.818456 -0.307979
C69   C     C_R   0.677388 0.276696 0.774487 -0.118931
C70   C     C_R   0.322612 0.723304 0.225513 -0.118931
C71   C     C_R   0.322886 0.273190 0.224443 -0.105680
C72   C     C_R   0.677114 0.726810 0.775557 -0.105680
C73   C     C_R   0.177388 0.776695 0.774487 -0.118930
C74   C     C_R   0.822612 0.223306 0.225513 -0.118930
C75   C     C_R   0.822886 0.773189 0.224442 -0.105680
C76   C     C_R   0.177116 0.226808 0.775556 -0.105677
C77   C     C_R   0.701875 0.250439 0.826315 0.088129
C78   C     C_R   0.298125 0.749561 0.173685 0.088131
C79   C     C_R   0.295746 0.248528 0.175699 0.094096
C80   C     C_R   0.704254 0.751470 0.824301 0.094100
C81   C     C_R   0.201874 0.750438 0.826315 0.088131
C82   C     C_R   0.798126 0.249563 0.173684 0.088129
C83   C     C_R   0.795746 0.748529 0.175698 0.094101
C84   C     C_R   0.204258 0.251464 0.824299 0.094103
C85   C     C_R   0.695197 0.127449 0.522343 0.951788
C86   C     C_R   0.304803 0.872551 0.477656 0.951785
C87   C     C_R   0.309727 0.130166 0.461294 0.930358
C88   C     C_R   0.690273 0.869834 0.538706 0.930361
C89   C     C_R   0.195196 0.627449 0.522343 0.951785
C90   C     C_R   0.804803 0.372551 0.477657 0.951785
C91   C     C_R   0.809727 0.630166 0.461293 0.930360
C92   C     C_R   0.190273 0.369834 0.538706 0.930364
C93   C     C_R   0.695856 0.291212 0.901313 0.026092
C94   C     C_R   0.304145 0.708789 0.098687 0.026092
C95   C     C_R   0.314294 0.273206 0.086487 0.028060
C96   C     C_R   0.685707 0.726792 0.913513 0.028062
C97   C     C_R   0.195855 0.791211 0.901313 0.026091
C98   C     C_R   0.804146 0.208791 0.098686 0.026093
C99   C     C_R   0.814294 0.773207 0.086485 0.028064
C100  C     C_R   0.185709 0.226788 0.913512 0.028060
C101  C     C_R   0.670718 0.405244 0.980839 0.385252
C102  C     C_R   0.329282 0.594757 0.019160 0.385250
C103  C     C_R   0.388497 0.316685 0.945730 0.417805
C104  C     C_R   0.611506 0.683308 0.054270 0.417808
C105  C     C_R   0.170719 0.905243 0.980839 0.385252
C106  C     C_R   0.829282 0.094758 0.019163 0.385250
C107  C     C_R   0.888493 0.816696 0.945730 0.417801
C108  C     C_R   0.111507 0.183307 0.054269 0.417810
C109  C     C_R   0.697236 0.385461 0.029093 -0.249512
C110  C     C_R   0.302765 0.614541 0.970905 -0.249514
C111  C     C_R   0.356284 0.308316 0.904020 -0.217531
C112  C     C_R   0.643721 0.691669 0.095977 -0.217511
C113  C     C_R   0.197236 0.885459 0.029093 -0.249512
C114  C     C_R   0.802765 0.114542 0.970907 -0.249519
C115  C     C_R   0.856276 0.808342 0.904027 -0.217516
C116  C     C_R   0.143722 0.191666 0.095977 -0.217505
C117  C     C_R   0.732472 0.186225 0.805229 -0.167044
C118  C     C_R   0.267529 0.813775 0.194771 -0.167043
C119  C     C_R   0.251533 0.198971 0.211031 -0.156266
C120  C     C_R   0.748467 0.801026 0.788969 -0.156272
C121  C     C_R   0.232471 0.686223 0.805229 -0.167042
C122  C     C_R   0.767529 0.313777 0.194771 -0.167043
C123  C     C_R   0.751531 0.698974 0.211031 -0.156270
C124  C     C_R   0.248475 0.301014 0.788964 -0.156273
C125  C     C_R   0.757443 0.163963 0.855277 -0.212139
C126  C     C_R   0.242557 0.836037 0.144724 -0.212140
C127  C     C_R   0.219351 0.188679 0.170195 -0.214848
C128  C     C_R   0.780649 0.811318 0.829806 -0.214846
C129  C     C_R   0.257442 0.663961 0.855277 -0.212139
C130  C     C_R   0.742558 0.336040 0.144722 -0.212138
C131  C     C_R   0.719349 0.688683 0.170194 -0.214847
C132  C     C_R   0.280658 0.311301 0.829799 -0.214858
C133  C     C_R   0.070805 0.104272 0.937640 0.974044
C134  C     C_R   0.929195 0.895728 0.062360 0.974049
C135  C     C_R   0.919040 0.088607 0.072799 0.977551
C136  C     C_R   0.080961 0.911394 0.927200 0.977543
C137  C     C_R   0.570805 0.604272 0.937640 0.974047
C138  C     C_R   0.429195 0.395728 0.062360 0.974054
C139  C     C_R   0.419040 0.588606 0.072800 0.977545
C140  C     C_R   0.580961 0.411395 0.927200 0.977554
C141  C     C_R   0.575855 0.114120 0.431156 0.111186
C142  C     C_R   0.424149 0.885877 0.568836 0.111184
C143  C     C_R   0.479350 0.121044 0.418537 0.109422
C144  C     C_R   0.520653 0.878954 0.581461 0.109429
C145  C     C_R   0.075851 0.614122 0.431163 0.111184
C146  C     C_R   0.924145 0.385880 0.568844 0.111187
C147  C     C_R   0.979346 0.621046 0.418539 0.109429
C148  C     C_R   0.020650 0.378956 0.581463 0.109423
C149  C     C_R   0.566331 0.173111 0.387938 -0.191304
C150  C     C_R   0.433675 0.826885 0.612052 -0.191302
C151  C     C_R   0.518153 0.176933 0.382583 -0.197798
C152  C     C_R   0.481851 0.823063 0.617410 -0.197795
C153  C     C_R   0.066325 0.673115 0.387948 -0.191301
C154  C     C_R   0.933669 0.326890 0.612062 -0.191304
C155  C     C_R   0.018148 0.676937 0.382590 -0.197794
C156  C     C_R   0.981847 0.323068 0.617417 -0.197797
C157  C     C_R   0.489644 0.060543 0.459328 0.027631
C158  C     C_R   0.510359 0.939455 0.540667 0.027626
C159  C     C_R   0.537492 0.057578 0.466778 0.031075
C160  C     C_R   0.462512 0.942420 0.533216 0.031073
C161  C     C_R   0.989641 0.560545 0.459333 0.027627
C162  C     C_R   0.010356 0.439456 0.540671 0.027631
C163  C     C_R   0.037488 0.557579 0.466783 0.031074
C164  C     C_R   0.962508 0.442422 0.533222 0.031075
C165  C     C_R   0.952461 0.502592 0.491769 -0.027483
C166  C     C_R   0.047537 0.497409 0.508235 -0.027482
C167  C     C_R   0.452464 0.002591 0.491764 -0.027482
C168  C     C_R   0.547540 0.997407 0.508230 -0.027483
C169  C     C_R   0.871018 0.443400 0.506034 -0.009081
C170  C     C_R   0.128979 0.556600 0.493970 -0.009080
C171  C     C_R   0.106456 0.434155 0.555026 0.011595
C172  C     C_R   0.893542 0.565844 0.444973 0.011589
C173  C     C_R   0.371021 0.943400 0.506030 -0.009080
C174  C     C_R   0.628982 0.056599 0.493965 -0.009081
C175  C     C_R   0.606458 0.934155 0.555026 0.011589
C176  C     C_R   0.393544 0.065845 0.444974 0.011595
C177  C     C_R   0.832683 0.439469 0.473687 -0.203822
C178  C     C_R   0.167315 0.560531 0.526315 -0.203823
C179  C     C_R   0.155389 0.434160 0.560466 -0.195930
C180  C     C_R   0.844610 0.565840 0.439534 -0.195930
C181  C     C_R   0.332685 0.939469 0.473684 -0.203823
C182  C     C_R   0.667317 0.060531 0.526313 -0.203822
C183  C     C_R   0.655390 0.934160 0.560466 -0.195930
C184  C     C_R   0.344611 0.065840 0.439534 -0.195929
C185  C     C_R   0.822710 0.500336 0.434325 0.310890
C186  C     C_R   0.177288 0.499663 0.565677 0.310885
C187  C     C_R   0.322711 0.000336 0.434323 0.310885
C188  C     C_R   0.677290 0.999663 0.565675 0.310890
H1    H     H_    0.988706 0.276472 0.649770 0.145431
H2    H     H_    0.011287 0.723535 0.350241 0.145429
H3    H     H_    0.904408 0.282929 0.639976 0.147509
H4    H     H_    0.095584 0.717079 0.360039 0.147508
H5    H     H_    0.488712 0.776465 0.649760 0.145428
H6    H     H_    0.511293 0.223529 0.350231 0.145431
H7    H     H_    0.404415 0.782922 0.639962 0.147508
H8    H     H_    0.595591 0.217071 0.360025 0.147509
H9    H     H_    0.076249 0.329636 0.619176 0.159281
H10   H     H_    0.923749 0.670363 0.380816 0.159275
H11   H     H_    0.847160 0.346586 0.591934 0.172372
H12   H     H_    0.152836 0.653416 0.408074 0.172376
H13   H     H_    0.576251 0.829637 0.619184 0.159275
H14   H     H_    0.423751 0.170364 0.380824 0.159281
H15   H     H_    0.347164 0.846584 0.591926 0.172376
H16   H     H_    0.652840 0.153414 0.408066 0.172372
H17   H     H_    0.701664 0.427232 0.069488 0.180283
H18   H     H_    0.298338 0.572770 0.930508 0.180284
H19   H     H_    0.376080 0.315036 0.831457 0.173191
H20   H     H_    0.623927 0.684935 0.168539 0.173185
H21   H     H_    0.201664 0.927230 0.069489 0.180284
H22   H     H_    0.798337 0.072771 0.930511 0.180281
H23   H     H_    0.876066 0.815093 0.831474 0.173187
H24   H     H_    0.123930 0.184928 0.168538 0.173184
H25   H     H_    0.781130 0.114852 0.832666 0.151841
H26   H     H_    0.218870 0.885147 0.167335 0.151842
H27   H     H_    0.185731 0.150929 0.202251 0.152735
H28   H     H_    0.814268 0.849068 0.797749 0.152731
H29   H     H_    0.281128 0.614851 0.832666 0.151843
H30   H     H_    0.718872 0.385150 0.167333 0.151842
H31   H     H_    0.685728 0.650934 0.202251 0.152734
H32   H     H_    0.314280 0.349046 0.797741 0.152740
O1    O     O_R   0.746490 0.236330 0.638080 -0.645533
O2    O     O_R   0.253510 0.763670 0.361920 -0.645532
O3    O     O_R   0.253510 0.236330 0.361920 -0.638333
O4    O     O_R   0.746490 0.763670 0.638080 -0.638333
O5    O     O_R   0.246490 0.736330 0.638080 -0.645532
O6    O     O_R   0.753510 0.263670 0.361920 -0.645533
O7    O     O_R   0.753510 0.736330 0.361920 -0.638332
O8    O     O_R   0.246490 0.263670 0.638080 -0.638339
O9    O     O_R   0.674170 0.186160 0.516270 -0.644457
O10   O     O_R   0.325830 0.813840 0.483730 -0.644460
O11   O     O_R   0.325830 0.186160 0.483730 -0.641350
O12   O     O_R   0.674170 0.813840 0.516270 -0.641347
O13   O     O_R   0.174170 0.686160 0.516270 -0.644459
O14   O     O_R   0.825830 0.313840 0.483730 -0.644457
O15   O     O_R   0.825830 0.686160 0.483730 -0.641346
O16   O     O_R   0.174170 0.313840 0.516270 -0.641348
O17   O     O_R   0.739960 0.127620 0.525000 -0.567856
O18   O     O_R   0.260040 0.872380 0.475000 -0.567856
O19   O     O_R   0.260040 0.127620 0.475000 -0.565801
O20   O     O_R   0.739960 0.872380 0.525000 -0.565799
O21   O     O_R   0.239960 0.627620 0.525000 -0.567857
O22   O     O_R   0.760040 0.372380 0.475000 -0.567857
O23   O     O_R   0.760040 0.627620 0.475000 -0.565799
O24   O     O_R   0.239960 0.372380 0.525000 -0.565799
O25   O     O_R   0.680700 0.294870 0.629350 -0.614577
O26   O     O_R   0.319300 0.705130 0.370650 -0.614577
O27   O     O_R   0.319300 0.294870 0.370650 -0.629622
O28   O     O_R   0.680700 0.705130 0.629350 -0.629622
O29   O     O_R   0.180700 0.794870 0.629350 -0.614577
O30   O     O_R   0.819300 0.205130 0.370650 -0.614577
O31   O     O_R   0.819300 0.794870 0.370650 -0.629621
O32   O     O_R   0.180700 0.205130 0.629350 -0.629622
O33   O     O_R   0.062020 0.072840 0.007170 -0.535593
O34   O     O_R   0.937980 0.927160 0.992830 -0.535595
O35   O     O_R   0.937980 0.072840 0.992830 -0.602062
O36   O     O_R   0.062020 0.927160 0.007170 -0.602055
O37   O     O_R   0.562020 0.572840 0.007170 -0.535593
O38   O     O_R   0.437980 0.427160 0.992830 -0.535591
O39   O     O_R   0.437980 0.572840 0.992830 -0.602057
O40   O     O_R   0.562020 0.427160 0.007170 -0.602058
O41   O     O_R   0.947860 0.073950 0.109290 -0.602022
O42   O     O_R   0.052140 0.926050 0.890710 -0.602021
O43   O     O_R   0.052140 0.073950 0.890710 -0.647415
O44   O     O_R   0.947860 0.926050 0.109290 -0.647412
O45   O     O_R   0.447860 0.573950 0.109290 -0.602020
O46   O     O_R   0.552140 0.426050 0.890710 -0.602022
O47   O     O_R   0.552140 0.573950 0.890710 -0.647417
O48   O     O_R   0.447860 0.426050 0.109290 -0.647417
Zn1   Zn    Zn3+2 0.792340 0.208750 0.507670 1.006792
Zn2   Zn    Zn3+2 0.207660 0.791250 0.492330 1.006791
Zn3   Zn    Zn3+2 0.207660 0.208750 0.492330 0.993777
Zn4   Zn    Zn3+2 0.792340 0.791250 0.507670 0.993780
Zn5   Zn    Zn3+2 0.292340 0.708750 0.507670 1.006791
Zn6   Zn    Zn3+2 0.707660 0.291250 0.492330 1.006792
Zn7   Zn    Zn3+2 0.707660 0.708750 0.492330 0.993779
Zn8   Zn    Zn3+2 0.292340 0.291250 0.507670 0.993775
Zn9   Zn    Zn3+2 0.505960 0.500000 0.080520 1.055222
Zn10  Zn    Zn3+2 0.494040 0.500000 0.919480 1.055222
Zn11  Zn    Zn3+2 0.005960 0.000000 0.080520 1.055224
Zn12  Zn    Zn3+2 0.994040 0.000000 0.919480 1.055218
Cl1   Cl    Cl    0.786890 0.496565 0.371875 -0.614026
Cl2   Cl    Cl    0.213106 0.503436 0.628131 -0.614020
Cl3   Cl    Cl    0.286894 0.996564 0.371869 -0.614025
Cl4   Cl    Cl    0.713109 0.003435 0.628125 -0.614025
H33   H     H_    0.613559 0.341143 0.777506 0.212077
H34   H     H_    0.386442 0.658858 0.222493 0.212077
H35   H     H_    0.388183 0.335557 0.219789 0.188945
H36   H     H_    0.611816 0.664446 0.780212 0.188944
H37   H     H_    0.113558 0.841143 0.777507 0.212077
H38   H     H_    0.886442 0.158859 0.222493 0.212076
H39   H     H_    0.888185 0.835552 0.219787 0.188943
H40   H     H_    0.111815 0.164448 0.780213 0.188943
Cl5   Cl    Cl    0.661297 0.498868 0.974314 -0.645210
Cl6   Cl    Cl    0.338704 0.501131 0.025683 -0.645200
Cl7   Cl    Cl    0.459866 0.316049 0.872804 -0.619029
Cl8   Cl    Cl    0.540137 0.683946 0.127199 -0.619026
Cl9   Cl    Cl    0.161296 0.998868 0.974320 -0.645209
Cl10  Cl    Cl    0.838699 0.001131 0.025696 -0.645205
Cl11  Cl    Cl    0.959862 0.816057 0.872796 -0.619022
Cl12  Cl    Cl    0.040138 0.183948 0.127198 -0.619026
H41   H     H_    0.736016 0.151048 0.751610 0.197351
H42   H     H_    0.263984 0.848952 0.248390 0.197351
H43   H     H_    0.241697 0.164616 0.268536 0.196476
H44   H     H_    0.758304 0.835380 0.731463 0.196477
H45   H     H_    0.236014 0.651046 0.751611 0.197351
H46   H     H_    0.763985 0.348954 0.248391 0.197351
H47   H     H_    0.741693 0.664620 0.268537 0.196475
H48   H     H_    0.258315 0.335369 0.731458 0.196479

loop_
_geom_bond_atom_site_label_1
_geom_bond_atom_site_label_2
_ccdc_geom_bond_type
C154  H3    S    
C85   C182  S    
C9    C169  A    
C34   C42   A    
C181  C187  A    
C127  H27   S    
O46   Zn10  S    
C27   C99   A    
C170  C178  A    
C12   C174  A    
C42   C109  A    
C24   C96   A    
C149  H8    S    
C33   C129  A    
C67   H39   S    
C30   C38   A    
C1    O1    A    
O18   Zn2   S    
O7    Zn7   S    
C125  H25   S    
C147  C155  A    
C63   H35   S    
C64   H36   S    
C143  C151  A    
C90   C177  S    
C11   C167  A    
C82   C98   A    
O12   Zn7   S    
C76   C84   A    
C73   C81   A    
C161  C163  A    
C162  C164  A    
O9    Zn6   S    
C6    O30   A    
C84   C100  A    
C85   O9    A    
C133  O33   A    
C187  Cl3   S    
C37   C114  A    
C27   C35   A    
C10   C171  A    
C21   C29   A    
O48   Zn9   S    
C92   O16   A    
C81   C121  A    
C23   C31   A    
C24   C32   A    
O3    Zn3   S    
O4    Zn4   S    
C146  C154  A    
C7    O7    A    
C19   H15   S    
C17   H13   S    
C106  Cl10  S    
C134  O34   A    
C88   O12   A    
C63   C71   A    
O10   Zn5   S    
C36   C44   A    
C10   C170  A    
C140  O40   A    
C175  C183  A    
C176  C184  A    
C121  H45   S    
C48   C96   A    
O5    Zn5   S    
O29   Zn2   S    
C137  O37   A    
C148  C162  A    
C1    O25   A    
C183  C188  A    
C101  Cl5   S    
O40   Zn9   S    
C108  C116  A    
C21   C93   A    
C78   C94   A    
C9    C165  A    
C86   O18   A    
C5    O5    A    
C49   C97   A    
C21   C42   A    
C40   C115  A    
C51   C107  A    
C24   C43   A    
C16   C145  A    
C82   C122  A    
C161  C165  A    
C17   C175  A    
C18   C176  A    
C138  O38   A    
O37   Zn9   S    
C29   C125  A    
C69   C77   A    
C31   C127  A    
C45   C93   A    
C174  C182  A    
C71   C79   A    
C8    O8    A    
C179  C186  A    
C118  H42   S    
C11   C176  A    
C13   H9    S    
C17   C144  A    
C151  H6    S    
C105  C113  A    
C18   C143  A    
C78   C118  A    
O8    Zn8   S    
C36   C132  A    
O43   Zn12  S    
C66   C74   A    
C91   O15   A    
C8    C76   S    
C49   C57   A    
C124  C132  A    
C89   O13   A    
C130  H30   S    
C52   C60   A    
C59   C67   A    
C53   C61   A    
C141  C159  A    
C20   C174  A    
C23   C95   A    
C55   C63   A    
C86   C181  S    
C56   C64   A    
O33   Zn11  S    
C16   H12   S    
C156  H1    S    
C139  O45   A    
C45   C53   A    
C22   C94   A    
C171  C179  A    
C169  C177  A    
C50   C98   A    
C87   O19   A    
O28   Zn7   S    
O13   Zn2   S    
C104  C112  A    
O1    Zn1   S    
C145  C163  A    
C146  C164  A    
C14   C147  A    
C52   C100  A    
C7    O31   A    
O25   Zn6   S    
C132  H32   S    
C178  C186  A    
C62   H34   S    
C25   C38   A    
C54   C139  S    
C46   C94   A    
C27   C40   A    
C10   C166  A    
C57   C65   A    
C91   C180  S    
C182  C188  A    
C89   C178  S    
C109  H17   S    
C28   C36   A    
C128  H28   S    
C25   C97   A    
C90   O22   A    
C140  O46   A    
C124  H48   S    
C67   C75   A    
C29   C37   A    
O23   Zn7   S    
C133  O43   A    
C8    O32   A    
C3    O3    A    
C22   C30   A    
C20   C141  A    
O31   Zn4   S    
C15   C146  A    
O32   Zn3   S    
C103  Cl7   S    
C58   C135  S    
C68   C76   A    
O6    Zn6   S    
O47   Zn10  S    
C184  C187  A    
C115  H23   S    
C119  H43   S    
C32   C128  A    
C113  H21   S    
C72   C80   A    
C107  Cl11  S    
C56   C137  S    
O11   Zn8   S    
C150  C152  A    
C5    C73   S    
C150  H7    S    
C13   C171  A    
O24   Zn8   S    
O30   Zn1   S    
C117  C125  A    
C25   C33   A    
C119  C127  A    
C111  H19   S    
O35   Zn12  S    
O36   Zn11  S    
C157  C167  A    
C188  Cl4   S    
C158  C168  A    
C102  Cl6   S    
O20   Zn4   S    
C47   C55   A    
C164  C165  A    
C22   C41   A    
C101  C109  A    
C88   O20   A    
C2    O2    A    
O44   Zn11  S    
C177  C185  A    
C103  C111  A    
O21   Zn5   S    
C129  H29   S    
C126  H26   S    
C162  C166  A    
O34   Zn12  S    
C79   C119  A    
O38   Zn10  S    
C153  C155  A    
C154  C156  A    
C172  C180  A    
C173  C181  A    
C157  C159  A    
C83   C99   A    
C158  C160  A    
C3    O27   A    
C74   C82   A    
C6    C74   S    
C47   C103  A    
C136  O42   A    
C86   O10   A    
C5    O29   A    
C163  C166  A    
C20   H16   S    
C147  C161  A    
C38   C113  A    
C49   C105  A    
C54   C62   A    
C28   C39   A    
O15   Zn4   S    
O45   Zn9   S    
O16   Zn3   S    
C1    C69   S    
C23   C44   A    
C50   C58   A    
C3    C71   S    
C19   C173  A    
C79   C95   A    
C155  H2    S    
C14   H10   S    
O41   Zn11  S    
O42   Zn12  S    
C46   C54   A    
C18   H14   S    
C45   C101  A    
C19   C142  A    
C68   H40   S    
C102  C110  A    
C35   C131  A    
C4    C72   S    
O14   Zn1   S    
C65   H37   S    
C134  O44   A    
C59   C134  S    
C123  C131  A    
O26   Zn5   S    
C121  C129  A    
C120  C128  A    
C26   C37   A    
C104  Cl8   S    
C33   C41   A    
C142  C150  A    
C149  C151  A    
C2    O26   A    
C116  H24   S    
C75   C83   A    
C138  O48   A    
C6    O6    A    
C77   C93   A    
C107  C115  A    
C85   O17   A    
C44   C111  A    
C16   C170  A    
C60   C68   A    
C144  C152  A    
C39   C116  A    
O22   Zn6   S    
C117  H41   S    
C50   C106  A    
C9    C172  A    
O17   Zn1   S    
C148  C156  A    
C135  O35   A    
O27   Zn8   S    
C2    C70   S    
C60   C133  S    
C120  H44   S    
C30   C126  A    
C70   C78   A    
C53   C140  S    
C137  O47   A    
C141  C149  A    
C46   C102  A    
C15   C169  A    
C55   C138  S    
C81   C97   A    
C152  H5    S    
C106  C114  A    
C131  H31   S    
C92   C179  S    
C77   C117  A    
C48   C104  A    
C65   C73   A    
C159  C168  A    
C90   O14   A    
C123  H47   S    
C160  C167  A    
C4    O28   A    
C186  Cl2   S    
C58   C66   A    
C57   C136  S    
C61   H33   S    
C80   C96   A    
C145  C153  A    
C28   C100  A    
C32   C40   A    
C52   C108  A    
C62   C70   A    
C105  Cl9   S    
C26   C34   A    
C143  C157  A    
C108  Cl12  S    
C51   C99   A    
C11   C173  A    
C112  H20   S    
C14   C172  A    
C87   C184  S    
C88   C183  S    
C7    C75   S    
C4    O4    A    
C15   H11   S    
C110  H18   S    
C66   H38   S    
C26   C98   A    
C12   C175  A    
C91   O23   A    
C135  O41   A    
C41   C110  A    
C89   O21   A    
C80   C120  A    
C51   C59   A    
C43   C112  A    
C144  C158  A    
C35   C43   A    
C122  H46   S    
C61   C69   A    
C48   C56   A    
C136  O36   A    
C142  C160  A    
C12   C168  A    
C139  O39   A    
C84   C124  A    
O19   Zn3   S    
C114  H22   S    
C92   O24   A    
C185  Cl1   S    
C87   O11   A    
C31   C39   A    
C64   C72   A    
C180  C185  A    
O2    Zn2   S    
C34   C130  A    
C47   C95   A    
O39   Zn10  S    
C118  C126  A    
C13   C148  A    
C122  C130  A    
C83   C123  A    
C153  H4    S    
