data_mof_unit_38746.cif
_audit_creation_date              2012-12-11T16:45:56-0500
_audit_creation_method            fapswitch 2.2
_symmetry_space_group_name_H-M    P1
_symmetry_Int_Tables_number       1
_space_group_crystal_system       triclinic
_cell_length_a                    20.18009
_cell_length_b                    17.033027
_cell_length_c                    15.402857
_cell_angle_alpha                 90.000158
_cell_angle_beta                  51.976182
_cell_angle_gamma                 89.999887
_cell_volume                      4170.68365084

loop_
_atom_site_label
_atom_site_type_symbol
_atom_type_description
_atom_site_fract_x
_atom_site_fract_y
_atom_site_fract_z
_atom_type_partial_charge
C1    C     C_R   0.867447 0.691272 0.003790 0.608347
C2    C     C_R   0.132534 0.691279 0.996234 0.608345
C3    C     C_R   0.367426 0.191264 0.003816 0.608336
C4    C     C_R   0.632560 0.191269 0.996199 0.608350
C5    C     C_R   0.807050 0.364053 0.323662 0.081220
C6    C     C_R   0.192955 0.364059 0.676341 0.081329
C7    C     C_R   0.307054 0.864050 0.323666 0.081221
C8    C     C_R   0.692950 0.864054 0.676336 0.081246
C9    C     C_R   0.836550 0.317511 0.947608 0.091038
C10   C     C_R   0.163430 0.317501 0.052418 0.091134
C11   C     C_R   0.336521 0.817522 0.947646 0.091141
C12   C     C_R   0.663453 0.817510 0.052387 0.091143
C13   C     C_R   0.885996 0.684854 0.306288 0.034429
C14   C     C_R   0.114002 0.684854 0.693713 0.034438
C15   C     C_R   0.385994 0.184853 0.306291 0.034429
C16   C     C_R   0.614005 0.184853 0.693711 0.034433
C17   C     C_R   0.854796 0.718255 0.484754 0.166647
C18   C     C_R   0.145204 0.718255 0.515247 0.166647
C19   C     C_R   0.354787 0.218249 0.484762 0.166652
C20   C     C_R   0.645212 0.218249 0.515240 0.166638
C21   C     C_R   0.869791 0.742718 0.387289 0.032597
C22   C     C_R   0.130208 0.742718 0.612712 0.032593
C23   C     C_R   0.369786 0.242715 0.387295 0.032605
C24   C     C_R   0.630212 0.242715 0.612708 0.032607
C25   C     C_R   0.355564 0.322196 0.378395 -0.214251
C26   C     C_R   0.644435 0.322196 0.621608 -0.214251
C27   C     C_R   0.855563 0.822198 0.378390 -0.214259
C28   C     C_R   0.144437 0.822197 0.621612 -0.214244
C29   C     C_R   0.306997 0.368529 0.473518 -0.193749
C30   C     C_R   0.693006 0.368527 0.526485 -0.193729
C31   C     C_R   0.806992 0.868529 0.473513 -0.193725
C32   C     C_R   0.193010 0.868528 0.526488 -0.193714
C33   C     C_R   0.272244 0.334776 0.576919 0.031011
C34   C     C_R   0.727761 0.334773 0.423084 0.031020
C35   C     C_R   0.772242 0.834777 0.576913 0.031008
C36   C     C_R   0.227762 0.834774 0.423088 0.031009
C37   C     C_R   0.806153 0.763439 0.578697 0.161095
C38   C     C_R   0.193849 0.763437 0.421304 0.161084
C39   C     C_R   0.306148 0.263434 0.578704 0.161082
C40   C     C_R   0.693855 0.263432 0.421297 0.161074
C41   C     C_3   0.765650 0.692159 0.650651 -0.527137
C42   C     C_3   0.234350 0.692157 0.349351 -0.527118
C43   C     C_3   0.265636 0.192156 0.650658 -0.527089
C44   C     C_3   0.734366 0.192154 0.349344 -0.527102
C45   C     C_R   0.848157 0.332908 0.219286 -0.185035
C46   C     C_R   0.151847 0.332915 0.780717 -0.185373
C47   C     C_R   0.348160 0.832905 0.219291 -0.185019
C48   C     C_R   0.651844 0.832909 0.780711 -0.185070
C49   C     C_3   0.819376 0.643084 0.547968 -0.518137
C50   C     C_3   0.180622 0.643084 0.452035 -0.518143
C51   C     C_3   0.319358 0.143079 0.547975 -0.518186
C52   C     C_3   0.680640 0.143079 0.452027 -0.518142
C53   C     C_2   0.727733 0.223273 0.040210 -0.185288
C54   C     C_2   0.272238 0.223254 0.959824 -0.185095
C55   C     C_2   0.227687 0.723298 0.040271 -0.185134
C56   C     C_2   0.772280 0.723280 0.959772 -0.185065
C57   C     C_2   0.280034 0.766340 0.949568 -0.192261
C58   C     C_2   0.719933 0.766322 0.050474 -0.192314
C59   C     C_2   0.780079 0.266317 0.949509 -0.191994
C60   C     C_2   0.219901 0.266307 0.050516 -0.192307
C61   C     C_R   0.857537 0.393176 0.907940 -0.178774
C62   C     C_R   0.142453 0.393170 0.092073 -0.178769
C63   C     C_R   0.357522 0.893182 0.907960 -0.178775
C64   C     C_R   0.642464 0.893174 0.092059 -0.178785
C65   C     C_R   0.906928 0.607623 0.303590 -0.149968
C66   C     C_R   0.093071 0.607624 0.696410 -0.149969
C67   C     C_R   0.406926 0.107622 0.303592 -0.149962
C68   C     C_R   0.593073 0.107623 0.696409 -0.149965
C69   C     C_R   0.874822 0.299684 0.993968 0.139639
C70   C     C_R   0.125156 0.299680 0.006058 0.139651
C71   C     C_R   0.374807 0.799690 0.993987 0.139666
C72   C     C_R   0.625175 0.799686 0.006035 0.139650
C73   C     C_R   0.895236 0.698082 0.210674 -0.107618
C74   C     C_R   0.104764 0.698082 0.789327 -0.107645
C75   C     C_R   0.395235 0.198082 0.210675 -0.107628
C76   C     C_R   0.604764 0.198082 0.789326 -0.107632
C77   C     C_R   0.858531 0.422256 0.316766 -0.122960
C78   C     C_R   0.141473 0.422258 0.683235 -0.122915
C79   C     C_R   0.358533 0.922254 0.316767 -0.122948
C80   C     C_R   0.641469 0.922256 0.683233 -0.122938
C81   C     C_R   0.855444 0.598680 0.910762 -0.240349
C82   C     C_R   0.144541 0.598688 0.089258 -0.240348
C83   C     C_R   0.355426 0.098670 0.910786 -0.240357
C84   C     C_R   0.644562 0.098677 0.089229 -0.240400
C85   C     C_R   0.830463 0.673393 0.955616 -0.027016
C86   C     C_R   0.169509 0.673406 0.044420 -0.026997
C87   C     C_R   0.330431 0.173376 0.955659 -0.026987
C88   C     C_R   0.669548 0.173388 0.044368 -0.026922
H1    H     H_    0.287946 0.426208 0.467038 0.126567
H2    H     H_    0.712059 0.426205 0.532965 0.126566
H3    H     H_    0.787936 0.926206 0.467034 0.126567
H4    H     H_    0.212067 0.926203 0.532967 0.126554
H5    H     H_    0.782092 0.684680 0.707072 0.185115
H6    H     H_    0.217910 0.684679 0.292929 0.185118
H7    H     H_    0.282075 0.184670 0.707081 0.185133
H8    H     H_    0.717929 0.184670 0.292919 0.185134
H9    H     H_    0.697586 0.686371 0.690030 0.206364
H10   H     H_    0.302414 0.686367 0.309973 0.206357
H11   H     H_    0.197572 0.186376 0.690035 0.206360
H12   H     H_    0.802429 0.186371 0.309970 0.206373
H13   H     H_    0.867187 0.607898 0.544902 0.186577
H14   H     H_    0.132811 0.607899 0.455100 0.186578
H15   H     H_    0.367164 0.107886 0.544912 0.186587
H16   H     H_    0.632834 0.107888 0.455088 0.186579
H17   H     H_    0.781517 0.609949 0.530074 0.200022
H18   H     H_    0.218480 0.609947 0.469930 0.200023
H19   H     H_    0.281496 0.109951 0.530079 0.200007
H20   H     H_    0.718499 0.109948 0.469926 0.200026
H21   H     H_    0.726835 0.225401 0.111377 0.126533
H22   H     H_    0.273134 0.225376 0.888660 0.126553
H23   H     H_    0.226785 0.725431 0.111440 0.126551
H24   H     H_    0.773189 0.725416 0.888598 0.126546
H25   H     H_    0.278788 0.766338 0.880055 0.165695
H26   H     H_    0.721177 0.766319 0.119989 0.165703
H27   H     H_    0.778832 0.266320 0.879997 0.165678
H28   H     H_    0.221156 0.266317 0.120022 0.165722
H29   H     H_    0.823657 0.290615 0.194207 0.118362
H30   H     H_    0.176342 0.290617 0.805800 0.118456
H31   H     H_    0.323658 0.790611 0.194216 0.118372
H32   H     H_    0.676346 0.790617 0.805787 0.118383
H33   H     H_    0.845377 0.422747 0.856910 0.112038
H34   H     H_    0.154614 0.422742 0.143101 0.112043
H35   H     H_    0.345356 0.922755 0.856938 0.112038
H36   H     H_    0.654627 0.922747 0.143084 0.112040
H37   H     H_    0.921616 0.580537 0.353251 0.104383
H38   H     H_    0.078382 0.580538 0.646750 0.104382
H39   H     H_    0.421612 0.080536 0.353254 0.104385
H40   H     H_    0.578386 0.080536 0.646748 0.104382
H41   H     H_    0.896634 0.754615 0.178122 0.156307
H42   H     H_    0.103366 0.754615 0.821879 0.156301
H43   H     H_    0.396635 0.254616 0.178123 0.156299
H44   H     H_    0.603365 0.254616 0.821879 0.156300
H45   H     H_    0.846120 0.459101 0.382341 0.092543
H46   H     H_    0.153884 0.459103 0.617660 0.092525
H47   H     H_    0.346123 0.959100 0.382341 0.092536
H48   H     H_    0.653879 0.959102 0.617659 0.092536
H49   H     H_    0.843724 0.569622 0.858984 0.132507
H50   H     H_    0.156259 0.569631 0.141039 0.132505
H51   H     H_    0.343701 0.069610 0.859014 0.132506
H52   H     H_    0.656284 0.069619 0.141005 0.132498
H53   H     H_    0.372176 0.345951 0.302188 0.127918
H54   H     H_    0.627823 0.345950 0.697816 0.127919
H55   H     H_    0.872172 0.845951 0.302184 0.127923
H56   H     H_    0.127827 0.845951 0.697818 0.127920
N1    N     N_R   0.908660 0.628630 0.995840 -0.097360
N2    N     N_R   0.091340 0.628630 0.004160 -0.097357
N3    N     N_R   0.408660 0.128630 0.995840 -0.097362
N4    N     N_R   0.591340 0.128630 0.004160 -0.097361
N5    N     N_R   0.922310 0.368460 0.151950 -0.045286
N6    N     N_R   0.077690 0.368460 0.848050 -0.045331
N7    N     N_R   0.422310 0.868460 0.151950 -0.045290
N8    N     N_R   0.577690 0.868460 0.848050 -0.045305
N9    N     N_R   0.903470 0.421430 0.936420 -0.044165
N10   N     N_R   0.096530 0.421430 0.063580 -0.044170
N11   N     N_R   0.403470 0.921430 0.936420 -0.044173
N12   N     N_R   0.596530 0.921430 0.063580 -0.044170
N13   N     N_R   0.927500 0.575670 0.211370 -0.041689
N14   N     N_R   0.072500 0.575670 0.788630 -0.041685
N15   N     N_R   0.427500 0.075670 0.211370 -0.041688
N16   N     N_R   0.572500 0.075670 0.788630 -0.041687
N17   N     N_R   0.908660 0.365680 0.995820 -0.059396
N18   N     N_R   0.091340 0.365680 0.004180 -0.059407
N19   N     N_R   0.408660 0.865680 0.995820 -0.059425
N20   N     N_R   0.591340 0.865680 0.004180 -0.059434
N21   N     N_R   0.922310 0.631420 0.151980 -0.044136
N22   N     N_R   0.077690 0.631420 0.848020 -0.044130
N23   N     N_R   0.422310 0.131420 0.151980 -0.044138
N24   N     N_R   0.577690 0.131420 0.848020 -0.044134
N25   N     N_R   0.927500 0.426330 0.211360 -0.038851
N26   N     N_R   0.072500 0.426330 0.788640 -0.038837
N27   N     N_R   0.427500 0.926330 0.211360 -0.038846
N28   N     N_R   0.572500 0.926330 0.788640 -0.038846
N29   N     N_R   0.903470 0.570760 0.936440 -0.066063
N30   N     N_R   0.096530 0.570760 0.063560 -0.066061
N31   N     N_R   0.403470 0.070760 0.936440 -0.066061
N32   N     N_R   0.596530 0.070760 0.063560 -0.066055
Ni1   Ni    Ni4+2 1.000000 0.630300 0.000000 0.254781
Ni2   Ni    Ni4+2 0.500000 0.130300 0.000000 0.254756
Ni3   Ni    Ni4+2 1.000000 0.369700 0.000000 0.196212
Ni4   Ni    Ni4+2 0.500000 0.869700 0.000000 0.196219
Ni5   Ni    Ni4+2 0.988090 0.497570 0.863760 0.196675
Ni6   Ni    Ni4+2 0.011910 0.497570 0.136240 0.196676
Ni7   Ni    Ni4+2 0.488090 0.997570 0.863760 0.196672
Ni8   Ni    Ni4+2 0.511910 0.997570 0.136240 0.196674
O1    O     O_3   0.876762 0.764020 0.035300 -0.654286
C89   C     C_3   0.915680 0.817516 0.946387 -0.269153
H57   H     H_    0.867575 0.849666 0.947045 0.170071
H58   H     H_    0.961790 0.789458 0.864421 0.127439
H59   H     H_    0.950631 0.861517 0.957155 0.167616
O2    O     O_3   0.123208 0.764027 0.964733 -0.654296
C90   C     C_3   0.084292 0.817523 0.053646 -0.269139
H60   H     H_    0.132400 0.849685 0.052968 0.170099
H61   H     H_    0.038198 0.789464 0.135616 0.127436
H62   H     H_    0.049324 0.861514 0.042895 0.167608
O3    O     O_3   0.376733 0.264015 0.035328 -0.654295
C91   C     C_3   0.415656 0.317506 0.946409 -0.269148
H63   H     H_    0.367555 0.349637 0.947039 0.170095
H64   H     H_    0.461785 0.289447 0.864449 0.127430
H65   H     H_    0.450584 0.361523 0.957194 0.167619
O4    O     O_3   0.623248 0.264018 0.964689 -0.654303
C92   C     C_3   0.584328 0.317513 0.053603 -0.269159
H66   H     H_    0.632433 0.349659 0.052951 0.170096
H67   H     H_    0.538213 0.289455 0.135569 0.127434
H68   H     H_    0.549382 0.361518 0.042831 0.167622
C93   C     C_3   0.904122 0.218911 0.997459 -0.478570
C94   C     C_3   0.965401 0.184786 0.880502 -0.197547
C95   C     C_3   0.996514 0.103077 0.880246 -0.969492
H69   H     H_    0.038603 0.106237 0.903514 0.271185
H70   H     H_    0.942662 0.063521 0.937923 0.268859
H71   H     H_    0.033099 0.077865 0.795978 0.252457
H72   H     H_    0.933389 0.180338 0.842390 0.204156
H73   H     H_    0.020472 0.224315 0.828474 0.194252
H74   H     H_    0.934769 0.223380 0.036609 0.194978
H75   H     H_    0.850425 0.178338 0.049660 0.188322
C96   C     C_3   0.095881 0.218914 0.002491 -0.478648
C97   C     C_3   0.034844 0.184614 0.119376 -0.197340
C98   C     C_3   0.003532 0.103021 0.119589 -0.970019
H76   H     H_    0.960873 0.106466 0.097269 0.270977
H77   H     H_    0.057237 0.063574 0.061191 0.268901
H78   H     H_    0.967520 0.077488 0.203599 0.252590
H79   H     H_    0.067135 0.179906 0.157091 0.204209
H80   H     H_    0.979850 0.224175 0.171768 0.194263
H81   H     H_    0.065042 0.223451 0.963604 0.195218
H82   H     H_    0.149605 0.178419 0.950017 0.188102
C99   C     C_3   0.404042 0.718912 0.997585 -0.478710
C100  C     C_3   0.465101 0.684603 0.880715 -0.197482
C101  C     C_3   0.496367 0.602994 0.880538 -0.970014
H83   H     H_    0.538978 0.606417 0.902930 0.271137
H84   H     H_    0.442642 0.563566 0.938890 0.268981
H85   H     H_    0.532419 0.577460 0.796529 0.252562
H86   H     H_    0.432851 0.679927 0.842955 0.204247
H87   H     H_    0.520112 0.724136 0.828366 0.194302
H88   H     H_    0.434847 0.723424 0.036516 0.195161
H89   H     H_    0.350304 0.678432 0.050031 0.188137
C102  C     C_3   0.595943 0.718915 0.002404 -0.478584
C103  C     C_3   0.534935 0.684557 0.119260 -0.197291
C104  C     C_3   0.503687 0.602953 0.119387 -0.970086
H90   H     H_    0.461070 0.606387 0.097014 0.271167
H91   H     H_    0.557419 0.563548 0.060992 0.268962
H92   H     H_    0.467663 0.577378 0.203373 0.252556
H93   H     H_    0.567233 0.679843 0.156961 0.204222
H94   H     H_    0.479913 0.724082 0.171695 0.194230
H95   H     H_    0.565088 0.723463 0.963539 0.195161
H96   H     H_    0.649692 0.678449 0.949872 0.188048

loop_
_geom_bond_atom_site_label_1
_geom_bond_atom_site_label_2
_ccdc_geom_bond_type
N7    Ni4   S    
C83   C87   A    
C3    N3    A    
O2    C90   S    
C83   N31   A    
N21   Ni1   S    
C92   H66   S    
C1    N1    A    
N3    Ni2   S    
C18   C50   S    
C78   N26   A    
C30   H2    S    
C43   C51   S    
C96   H82   S    
N30   Ni6   S    
C83   H51   S    
N12   Ni8   S    
C48   H32   S    
C54   C60   D    
C93   C94   S    
C98   H78   S    
C81   H49   S    
C54   H22   S    
C43   H11   S    
C33   C39   A    
C71   N19   A    
C37   C41   S    
C9    C61   A    
C70   C96   S    
C14   C74   A    
C7    C79   A    
C35   C37   A    
C69   N17   A    
C38   C42   S    
C11   C63   A    
C42   H10   S    
C49   H13   S    
C54   C87   S    
N8    N28   A    
C81   N29   A    
N11   Ni7   S    
C6    C78   A    
C53   H21   S    
C100  H86   S    
C4    N4    A    
C29   C33   A    
N5    Ni3   S    
N7    N27   A    
C103  C104  S    
C46   H30   S    
C25   C29   A    
C61   H33   S    
C7    C36   S    
C79   N27   A    
C97   H79   S    
C94   H72   S    
C41   C49   S    
C41   H5    S    
O1    C89   S    
C20   C24   A    
N15   N23   A    
O4    C92   S    
N2    N30   A    
C95   H71   S    
C43   H7    S    
C102  C103  S    
C51   H19   S    
C2    C86   A    
C28   H56   S    
N15   Ni8   S    
N17   Ni3   S    
C68   H40   S    
N16   Ni7   S    
C45   N5    A    
N20   Ni4   S    
C12   C58   S    
C15   C23   S    
C44   C52   S    
C47   H31   S    
C12   C72   A    
C93   H74   S    
C16   C24   S    
C16   C76   A    
C104  H90   S    
C84   H52   S    
C1    C85   A    
C71   C99   S    
C42   H6    S    
C10   C62   A    
C17   C49   S    
C77   H45   S    
C92   H67   S    
C91   H65   S    
C70   N18   A    
C29   H1    S    
C22   C28   A    
C75   H43   S    
C97   H80   S    
C100  H87   S    
C53   C59   D    
N5    N25   A    
C73   H41   S    
C103  H94   S    
C30   C34   A    
C3    C87   A    
C95   H69   S    
C82   N30   A    
N27   Ni8   S    
C28   C32   A    
C97   C98   S    
N24   Ni2   S    
C74   N22   A    
C91   H64   S    
N1    N29   A    
C51   H15   S    
N13   N21   A    
C94   C95   S    
C13   C65   A    
N11   N19   A    
C98   H76   S    
C82   C86   A    
C27   C31   A    
C3    O3    S    
C62   N10   A    
N2    Ni1   S    
C61   N9    A    
C9    C59   S    
C8    C35   S    
C7    C47   A    
C103  H93   S    
N8    Ni4   S    
C19   C23   A    
C96   C97   S    
C90   H61   S    
C76   H44   S    
C44   H8    S    
C67   H39   S    
C63   H35   S    
C101  H83   S    
C4    O4    S    
C15   C67   A    
C5    C34   S    
N23   Ni2   S    
C99   C100  S    
C14   C66   A    
C13   C21   S    
C27   H55   S    
N22   Ni1   S    
C17   C37   A    
C67   N15   A    
C78   H46   S    
C66   N14   A    
C102  H95   S    
N18   Ni3   S    
C19   C39   A    
C42   C50   S    
C16   C68   A    
C10   C70   A    
C77   N25   A    
C101  H84   S    
C73   N21   A    
C13   C73   A    
C93   H75   S    
C50   H14   S    
C31   H3    S    
C55   C57   D    
N26   Ni5   S    
C9    C69   A    
C92   H68   S    
C41   H9    S    
C60   H28   S    
C55   H23   S    
C2    N2    A    
N13   Ni6   S    
C99   H89   S    
C89   H58   S    
C68   N16   A    
N4    N32   A    
C74   H42   S    
C32   C36   A    
C62   H34   S    
N14   N22   A    
C8    C80   A    
C15   C75   A    
C45   H29   S    
C90   H60   S    
N32   Ni8   S    
C12   C64   A    
C10   C60   S    
C52   H16   S    
N4    Ni2   S    
C6    C46   A    
C46   N6    A    
C18   C22   A    
N31   Ni7   S    
N10   N18   A    
C25   H53   S    
C2    O2    S    
N9    Ni5   S    
C91   H63   S    
C96   H81   S    
C57   H25   S    
C72   C102  S    
C26   C30   A    
C72   N20   A    
C4    C88   A    
C1    O1    S    
C98   H77   S    
C65   N13   A    
C79   H47   S    
C64   H36   S    
C64   N12   A    
C69   C93   S    
C80   H48   S    
C6    C33   S    
C47   N7    A    
C99   H88   S    
C14   C22   S    
C55   C86   S    
C104  H91   S    
C18   C38   A    
C90   H62   S    
C63   N11   A    
C95   H70   S    
C20   C52   S    
C102  H96   S    
C26   H54   S    
C8    C48   A    
C82   H50   S    
N3    N31   A    
C44   H12   S    
N28   Ni7   S    
C84   N32   A    
C56   C85   S    
N6    N26   A    
C84   C88   A    
C5    C45   A    
C89   H59   S    
C19   C51   S    
C20   C40   A    
N10   Ni6   S    
C31   C35   A    
C36   C38   A    
C56   C58   D    
C76   N24   A    
C53   C88   S    
C11   C71   A    
C23   C25   A    
C94   H73   S    
C21   C27   A    
C48   N8    A    
N14   Ni5   S    
N16   N24   A    
N25   Ni6   S    
C32   H4    S    
C58   H26   S    
N29   Ni5   S    
O3    C91   S    
C66   H38   S    
C40   C44   S    
C101  H85   S    
N12   N20   A    
C24   C26   A    
C59   H27   S    
C100  C101  S    
C104  H92   S    
N1    Ni1   S    
N19   Ni4   S    
C50   H18   S    
C80   N28   A    
C34   C40   A    
C52   H20   S    
C75   N23   A    
C49   H17   S    
C89   H57   S    
C11   C57   S    
C5    C77   A    
C39   C43   S    
C56   H24   S    
N9    N17   A    
C81   C85   A    
C65   H37   S    
N6    Ni3   S    
C17   C21   A    
