data_mof_unit_65817.cif
_audit_creation_date              2012-12-11T14:22:46-0500
_audit_creation_method            fapswitch 2.2
_symmetry_space_group_name_H-M    P1
_symmetry_Int_Tables_number       1
_space_group_crystal_system       triclinic
_cell_length_a                    16.92633
_cell_length_b                    6.951037
_cell_length_c                    15.339649
_cell_angle_alpha                 90.000024
_cell_angle_beta                  93.485772
_cell_angle_gamma                 90.000395
_cell_volume                      1801.455779

loop_
_atom_site_label
_atom_site_type_symbol
_atom_type_description
_atom_site_fract_x
_atom_site_fract_y
_atom_site_fract_z
_atom_type_partial_charge
O1    O     O_R   0.414560 0.494300 0.417030 -0.525003
O2    O     O_R   0.585440 0.994300 0.582970 -0.524991
O3    O     O_R   0.577160 0.822630 0.413790 -0.534653
O4    O     O_R   0.422840 0.322630 0.586210 -0.534656
C1    C     C_R   0.604261 0.655217 0.393287 0.741220
C2    C     C_R   0.395739 0.155216 0.606714 0.741200
O5    O     O_R   0.414660 0.823920 0.406630 -0.527425
O6    O     O_R   0.585340 0.323920 0.593370 -0.527424
O7    O     O_R   0.421790 0.995650 0.575760 -0.541958
O8    O     O_R   0.578210 0.495650 0.424240 -0.541959
C3    C     C_R   0.386138 0.655168 0.386092 0.757419
C4    C     C_R   0.613864 0.155169 0.613906 0.757405
O9    O     O_3   0.502530 0.661260 0.555500 -0.365154
O10   O     O_3   0.497470 0.161260 0.444500 -0.365158
V1    V     V_3+5 0.499530 0.935570 0.489700 1.587787
V2    V     V_3+5 0.500470 0.435570 0.510300 1.587781
C5    C     C_2   0.788826 0.269570 0.779296 0.210473
C6    C     C_2   0.211207 0.769582 0.220668 0.210459
C7    C     C_2   0.814111 0.115081 0.826738 -0.311750
C8    C     C_2   0.185893 0.615080 0.173258 -0.311751
H1    H     H_    0.776884 0.987568 0.826101 0.171149
H2    H     H_    0.223102 0.487540 0.173921 0.171166
C9    C     C_2   0.709315 0.270057 0.733021 0.185693
C10   C     C_2   0.290712 0.770033 0.266955 0.185684
C11   C     C_2   0.689049 0.143993 0.668031 0.047725
C12   C     C_2   0.310954 0.644000 0.331965 0.047734
C13   C     C_1   0.166386 0.119225 0.831301 -0.159927
C14   C     C_1   0.833614 0.619223 0.168699 -0.159934
C15   C     C_1   0.218866 0.127527 0.780032 0.038016
C16   C     C_1   0.781134 0.627527 0.219967 0.038012
C17   C     C_1   0.280828 0.137479 0.719875 0.041628
C18   C     C_1   0.719172 0.637479 0.280125 0.041628
C19   C     C_1   0.333333 0.145784 0.668637 -0.147400
C20   C     C_1   0.666667 0.645785 0.331363 -0.147395
O11   O     O_R   0.921850 0.770730 0.075840 -0.537115
O12   O     O_R   0.078150 0.270730 0.924160 -0.537114
O13   O     O_R   0.085350 0.439650 0.093390 -0.531791
O14   O     O_R   0.914650 0.939650 0.906610 -0.531796
C21   C     C_R   0.113177 0.608819 0.114880 0.770966
C22   C     C_R   0.886828 0.108818 0.885116 0.770954
O15   O     O_R   0.922860 0.441090 0.086230 -0.537880
O16   O     O_R   0.077140 0.941090 0.913770 -0.537879
O17   O     O_R   0.914540 0.269530 0.917020 -0.531671
O18   O     O_R   0.085460 0.769530 0.082980 -0.531664
C23   C     C_R   0.895972 0.609823 0.106714 0.728989
C24   C     C_R   0.104027 0.109823 0.893286 0.728996
O19   O     O_3   0.997510 0.602520 0.944550 -0.364822
O20   O     O_3   0.002490 0.102520 0.055450 -0.364818
V3    V     V_3+5 0.000460 0.328160 0.010290 1.531402
V4    V     V_3+5 0.999540 0.828160 0.989710 1.531406
I1    I     I_    0.857071 0.523799 0.764813 -0.221566
I2    I     I_    0.143025 0.023891 0.235080 -0.221622
Br1   Br    Br    0.636788 0.461783 0.771171 -0.495428
Br2   Br    Br    0.363276 0.961670 0.228790 -0.495451
Br3   Br    Br    0.763080 0.954012 0.631114 -0.478852
Br4   Br    Br    0.236895 0.454096 0.368901 -0.478884

loop_
_geom_bond_atom_site_label_1
_geom_bond_atom_site_label_2
_ccdc_geom_bond_type
O4    V2    S    
O14   C22   A    
C17   C19   T    
O12   C24   A    
C21   O18   A    
O14   V4    S    
C13   C15   T    
O13   V3    S    
O1    C3    A    
C2    C19   S    
C4    C11   S    
O6    C4    A    
O2    C4    A    
C1    C20   S    
C5    I1    S    
C2    O7    A    
O20   V4    S    
O7    V1    S    
C6    I2    S    
C1    O8    A    
O6    V2    S    
O1    V2    S    
O8    V2    S    
O5    C3    A    
O2    V1    S    
C5    C9    S    
C12   Br4   S    
O11   V4    S    
C6    C10   S    
C13   C24   S    
O5    V1    S    
O20   V3    S    
C5    C7    D    
O16   V4    S    
C9    Br1   S    
O19   V4    S    
C6    C8    D    
C9    C11   D    
O9    V1    S    
O13   C21   A    
O10   V2    S    
C14   C23   S    
O4    C2    A    
C7    C22   S    
C8    H2    S    
C10   Br2   S    
C16   C18   S    
O3    V1    S    
O19   V3    S    
O16   C24   A    
O9    V2    S    
O18   V4    S    
C8    C21   S    
O15   C23   A    
O10   V1    S    
O17   V3    S    
C3    C12   S    
C7    H1    S    
C18   C20   T    
C15   C17   S    
O15   V3    S    
C22   O17   A    
O12   V3    S    
C11   Br3   S    
C10   C12   D    
C14   C16   T    
O3    C1    A    
O11   C23   A    
