data_mof_unit_10510.cif
_audit_creation_date              2013-03-05T15:51:16-0500
_audit_creation_method            fapswitch 2.2
_symmetry_space_group_name_H-M    P1
_symmetry_Int_Tables_number       1
_space_group_crystal_system       triclinic
_cell_length_a                    9.602701
_cell_length_b                    10.849245
_cell_length_c                    13.878138
_cell_angle_alpha                 94.133839
_cell_angle_beta                  84.967865
_cell_angle_gamma                 89.430229
_cell_volume                      1436.34052221

loop_
_atom_site_label
_atom_site_type_symbol
_atom_site_description
_atom_site_fract_x
_atom_site_fract_y
_atom_site_fract_z
_atom_type_partial_charge
O1    O     O_R   0.381190 0.680360 0.500010 -0.523725
O2    O     O_R   0.618760 0.680340 0.500000 -0.571817
C1    C     C_R   0.498345 0.738128 0.506883 0.909613
O3    O     O_R   0.364420 0.499990 0.637850 -0.566542
O4    O     O_R   0.601990 0.499960 0.637840 -0.542491
C2    C     C_R   0.477556 0.492352 0.682044 0.881590
Cu1   Cu    Cu3+1 0.359340 0.500010 0.500010 1.012344
Cu2   Cu    Cu3+1 0.640660 0.499990 0.499990 0.994525
O5    O     O_R   0.381240 0.319660 0.500000 -0.601054
O6    O     O_R   0.618810 0.319640 0.499990 -0.614121
O7    O     O_R   0.398010 0.500040 0.362160 -0.577259
O8    O     O_R   0.635580 0.500010 0.362150 -0.590032
C3    C     C_R   0.500939 0.262870 0.498966 0.741655
C4    C     C_R   0.522597 0.499956 0.317197 0.817469
C5    C     C_1   0.536662 0.501219 0.214166 -0.089219
C6    C     C_2   0.567534 0.504207 0.023536 0.359913
C7    C     C_2   0.457871 0.471125 0.973786 -0.264667
C8    C     C_1   0.459514 0.477279 0.870751 0.148170
C9    C     C_1   0.550392 0.502583 0.127423 -0.015169
C10   C     C_1   0.465189 0.483716 0.784508 -0.023135
H1    H     H_    0.361297 0.442440 0.012061 0.153578
C11   C     C_R   0.571083 0.901168 0.684166 0.253661
C12   C     C_R   0.623335 0.979663 0.758349 0.320773
C13   C     C_R   0.642932 0.103843 0.744674 -0.254491
H2    H     H_    0.681255 0.165034 0.801292 0.206272
C14   C     C_R   0.603173 0.152892 0.662089 -0.228039
H3    H     H_    0.612747 0.251476 0.659681 0.175110
C15   C     C_R   0.549963 0.077647 0.586884 0.077266
C16   C     C_R   0.539514 0.948208 0.594560 -0.099715
C17   C     C_R   0.494269 0.873726 0.513326 -0.196636
C18   C     C_R   0.449373 0.930316 0.432592 0.333072
H4    H     H_    0.415646 0.100276 0.368687 0.157032
C19   C     C_R   0.451666 0.057660 0.430573 -0.245663
C20   C     C_R   0.502517 0.130451 0.505629 -0.086207
H5    H     H_    0.855670 0.643551 0.609803 0.184708
C21   C     C_R   0.873813 0.332560 0.370611 -0.126749
H6    H     H_    0.764586 0.325920 0.364596 0.191748
C22   C     C_R   0.954870 0.250172 0.307400 -0.161747
H7    H     H_    0.905568 0.186068 0.257986 0.180227
C23   C     C_R   0.098570 0.250246 0.307111 -0.175169
H8    H     H_    0.161576 0.186175 0.257489 0.178703
C24   C     C_R   0.162189 0.332698 0.370035 -0.132664
H9    H     H_    0.273094 0.326003 0.363343 0.184003
C25   C     C_R   0.083695 0.417598 0.436292 0.217651
C26   C     C_R   0.934094 0.417560 0.436443 0.203900
N1    N     N_R   0.852210 0.498790 0.499090 -0.210612
C27   C     C_R   0.917637 0.578776 0.560424 -0.009718
H10   H     H_    0.113724 0.643217 0.610001 0.170933
C28   C     C_R   0.065485 0.578675 0.560471 -0.006980
N2    N     N_R   0.148080 0.498710 0.499060 -0.204626
N3    N     N_R   0.699377 0.543137 0.978026 0.173767
O9    O     O_R   0.786688 0.602634 0.030214 -0.278484
O10   O     O_R   0.740108 0.508281 0.888198 -0.321051
N4    N     N_R   0.404648 0.859036 0.350097 0.108950
O11   O     O_R   0.466998 0.872107 0.264455 -0.320639
O12   O     O_R   0.284954 0.803815 0.357043 -0.319496
N5    N     N_R   0.538746 0.778011 0.705393 0.092453
O13   O     O_R   0.633751 0.711485 0.739695 -0.322509
O14   O     O_R   0.407715 0.749999 0.721092 -0.368576
N6    N     N_R   0.648633 0.936014 0.850771 0.168212
O15   O     O_R   0.554304 0.872447 0.897695 -0.239927
O16   O     O_R   0.754393 0.977169 0.895386 -0.308366

loop_
_geom_bond_atom_site_label_1
_geom_bond_atom_site_label_2
_geom_bond_distance
_ccdc_geom_bond_type
O4    Cu2   1.916591 S    
Cu1   O7    1.916591 S    
C12   C13   1.386430 A    
C18   C19   1.384244 A    
C23   H8    1.083072 S    
C16   C17   1.440241 A    
C11   C16   1.432953 A    
O2    C1    1.302620 A    
C1    C17   1.467323 S    
C2    C10   1.426453 S    
N4    O11   1.300923 A    
C14   C15   1.412744 A    
C6    N3    1.445340 S    
C17   C18   1.413103 A    
Cu2   O8    1.917873 S    
H5    C27   1.080876 S    
H4    C19   1.085001 S    
C11   N5    1.420385 S    
C23   C24   1.388469 A    
C19   C20   1.387604 A    
C14   H3    1.077084 S    
C15   C20   1.409067 A    
Cu1   Cu2   2.701405 S    
C27   C28   1.419785 A    
O1    Cu1   1.969952 S    
C26   N1    1.380817 A    
C13   H2    1.083485 S    
C5    C9    1.200643 T    
N5    O13   1.300958 A    
O4    C2    1.300626 A    
C24   C25   1.415833 A    
C21   H6    1.062206 S    
O3    Cu1   1.917873 S    
C21   C22   1.388427 A    
C15   C16   1.419871 A    
C22   C23   1.379571 A    
O8    C4    1.298078 A    
C7    C8    1.434998 S    
C8    C10   1.200460 T    
C6    C9    1.438118 S    
C18   N4    1.434732 S    
C12   N6    1.438191 S    
O7    C4    1.299856 A    
N4    O12   1.300729 A    
N5    O14   1.300801 A    
O3    C2    1.298368 A    
C6    C7    1.346774 D    
C24   H9    1.062181 S    
N3    O9    1.301567 A    
C21   C26   1.414972 A    
C22   H7    1.082986 S    
C25   C26   1.436400 A    
N6    O16   1.301393 A    
C28   N2    1.367189 A    
N1    C27   1.367665 A    
C25   N2    1.382125 A    
Cu1   O5    1.965837 S    
O5    C3    1.297212 A    
C4    C5    1.425471 S    
H10   C28   1.081812 S    
C3    C20   1.446272 S    
Cu2   N1    2.030300 S    
N3    O10   1.301407 A    
C11   C12   1.417615 A    
Cu2   O6    1.969952 S    
O2    Cu2   1.965838 S    
Cu1   N2    2.030049 S    
C13   C14   1.379563 A    
N6    O15   1.301500 A    
O1    C1    1.300678 A    
O6    C3    1.294653 A    
C7    H1    1.087284 S    
