data_mof_unit_29267.cif
_audit_creation_date              2012-12-11T15:57:48-0500
_audit_creation_method            fapswitch 2.2
_symmetry_space_group_name_H-M    P1
_symmetry_Int_Tables_number       1
_space_group_crystal_system       triclinic
_cell_length_a                    10.736772
_cell_length_b                    10.800959
_cell_length_c                    17.015432
_cell_angle_alpha                 99.7344
_cell_angle_beta                  99.813655
_cell_angle_gamma                 60.864404
_cell_volume                      1689.82356777

loop_
_atom_site_label
_atom_site_type_symbol
_atom_type_description
_atom_site_fract_x
_atom_site_fract_y
_atom_site_fract_z
_atom_type_partial_charge
Br1   Br    Br    0.682325 0.119982 0.684497 -0.448932
Br2   Br    Br    0.308036 0.661858 0.160497 -0.473479
C1    C     C_R   0.354583 0.774538 0.401110 0.561704
C2    C     C_2   0.354566 0.341911 0.835705 -0.113139
C3    C     C_2   0.477050 0.250696 0.800114 0.242897
C4    C     C_R   0.366305 0.343327 0.358227 0.554071
C5    C     C_2   0.504960 0.274101 0.724274 0.135503
C6    C     C_1   0.819537 0.342337 0.708552 0.003051
C7    C     C_1   0.846498 0.313756 0.776204 -0.001890
C8    C     C_1   0.359001 0.763866 0.713598 -0.024714
C9    C     C_1   0.326182 0.811133 0.780479 -0.022427
C10   C     C_R   0.884931 0.312101 0.081627 0.524626
C11   C     C_R   0.290718 0.261122 0.121934 0.575066
C12   C     C_2   0.787291 0.349672 0.140994 -0.064484
C13   C     C_R   0.296075 0.888734 0.082710 0.563780
C14   C     C_R   0.886707 0.296860 0.858443 0.535195
C15   C     C_R   0.310179 0.292654 0.894836 0.588964
C16   C     C_R   0.762726 0.385072 0.399737 0.546423
C17   C     C_R   0.280594 0.881018 0.857208 0.558111
C18   C     C_R   0.381748 0.714246 0.631410 0.528426
C19   C     C_R   0.414239 0.379978 0.597190 0.572273
C20   C     C_R   0.773758 0.380947 0.629482 0.539814
C21   C     C_1   0.325450 0.316737 0.276503 -0.049938
C22   C     C_1   0.305150 0.292245 0.205906 -0.025360
C23   C     C_2   0.796534 0.248071 0.180530 -0.131080
C24   C     C_2   0.797735 0.363854 0.317894 0.235802
C25   C     C_3   0.956257 0.449075 0.316195 -0.016629
C26   C     C_3   0.964499 0.571508 0.288337 -0.350398
C27   C     C_3   0.086484 0.009654 0.346422 0.014820
C28   C     C_3   0.972431 0.960418 0.332372 -0.340232
C29   C     C_3   0.676345 0.108648 0.879317 0.040892
C30   C     C_3   0.739078 0.975969 0.923324 -0.325984
C31   C     C_2   0.762375 0.276794 0.263367 -0.114826
C32   C     C_2   0.328747 0.851814 0.332047 0.285126
C33   C     C_2   0.354441 0.810946 0.153152 0.197275
C34   C     C_2   0.425509 0.856274 0.213767 -0.109524
C35   C     C_2   0.443553 0.819569 0.294867 -0.092125
C36   C     C_2   0.402933 0.377536 0.680038 -0.139248
Cr1   Cr    Cr6+3 0.608020 0.610770 0.522990 1.059300
Cr2   Cr    Cr6+3 0.289390 0.599570 0.488050 1.018527
Cr3   Cr    Cr6+3 0.602610 0.289690 0.489020 1.044239
Cr4   Cr    Cr6+3 0.053780 0.052210 0.965970 1.011929
Cr5   Cr    Cr6+3 0.060060 0.372530 0.992430 1.046306
Cr6   Cr    Cr6+3 0.372600 0.061970 0.991430 1.018820
H1    H     H_    0.852190 0.136497 0.157636 0.150210
H2    H     H_    0.881865 0.674931 0.314479 0.148605
H3    H     H_    0.070595 0.565691 0.307235 0.144975
H4    H     H_    0.945435 0.567540 0.221939 0.180421
H5    H     H_    0.036359 0.121226 0.332634 0.121062
H6    H     H_    0.127055 0.011925 0.411140 0.120574
H7    H     H_    0.018904 0.847793 0.344077 0.182680
H8    H     H_    0.887532 0.026733 0.372868 0.109926
H9    H     H_    0.924252 0.969178 0.269135 0.148855
H10   H     H_    0.642387 0.204022 0.924462 0.114132
H11   H     H_    0.761792 0.099482 0.847522 0.196848
H12   H     H_    0.283589 0.449020 0.819899 0.052443
H13   H     H_    0.774768 0.879177 0.879764 0.164746
H14   H     H_    0.832785 0.969141 0.965589 0.105847
H15   H     H_    0.658143 0.980082 0.957910 0.165136
H16   H     H_    0.304331 0.459980 0.702655 0.070329
H17   H     H_    0.727012 0.208727 0.281979 0.117093
H18   H     H_    0.723592 0.461856 0.160058 0.183231
H19   H     H_    0.455697 0.935958 0.206616 0.109087
H20   H     H_    0.552583 0.760188 0.322072 0.144214
H21   H     H_    0.036011 0.346481 0.287220 0.124180
H22   H     H_    0.981423 0.451660 0.382476 0.151562
O1    O     O_R   0.749250 0.499990 0.439200 -0.486788
O2    O     O_R   0.411120 0.181190 0.091480 -0.518185
O3    O     O_R   0.364220 0.944920 0.062310 -0.550462
O4    O     O_R   0.477870 0.725740 0.440280 -0.514695
O5    O     O_R   0.158740 0.906940 0.874970 -0.499871
O6    O     O_R   0.930920 0.176940 0.885610 -0.516997
O7    O     O_R   0.910730 0.394510 0.895320 -0.511213
O8    O     O_R   0.185840 0.361180 0.920280 -0.490575
O9    O     O_R   0.399210 0.173040 0.915160 -0.461066
O10   O     O_R   0.353170 0.937370 0.898860 -0.486432
O11   O     O_3   0.162150 0.162240 0.983280 -0.279332
O12   O     O_R   0.299400 0.468710 0.556310 -0.513376
O13   O     O_R   0.260770 0.742210 0.412610 -0.504201
O14   O     O_R   0.297990 0.466320 0.394220 -0.501310
O15   O     O_R   0.487720 0.253870 0.385870 -0.511362
O16   O     O_R   0.721940 0.304340 0.422320 -0.536052
O17   O     O_R   0.750770 0.502570 0.614050 -0.508701
O18   O     O_R   0.479280 0.728140 0.602370 -0.466124
O19   O     O_R   0.262290 0.744790 0.587460 -0.502084
O20   O     O_3   0.816568 0.468419 0.292562 -0.576640
O21   O     O_3   0.192011 0.927108 0.293011 -0.543141
O22   O     O_3   0.563064 0.112686 0.821943 -0.487708
O23   O     O_R   0.489240 0.256450 0.560730 -0.439273
O24   O     O_R   0.723350 0.306730 0.584410 -0.483199
O25   O     O_3   0.500010 0.500010 0.500020 -0.305288
O26   O     O_R   0.170650 0.915100 0.051290 -0.474767
O27   O     O_R   0.941960 0.184500 0.049060 -0.510196
O28   O     O_R   0.922640 0.402670 0.071640 -0.523282
O29   O     O_R   0.196880 0.368740 0.083740 -0.462365

loop_
_geom_bond_atom_site_label_1
_geom_bond_atom_site_label_2
_ccdc_geom_bond_type
Br2   C33   S    
Cr5   O7    S    
Cr3   O23   S    
C28   H7    S    
C26   H3    S    
C25   O20   S    
C32   C35   D    
C17   O5    A    
C33   C34   D    
C14   O6    A    
C30   H14   S    
C1    O13   A    
C19   O23   A    
C9    C17   S    
C11   O29   A    
C17   O10   A    
C7    C14   S    
Cr1   O18   S    
Cr3   O16   S    
Cr4   O27   S    
Cr2   O25   S    
Cr5   O28   S    
Cr1   O25   S    
Cr6   O10   S    
C13   O26   A    
C3    O22   S    
Cr1   O4    S    
C26   H4    S    
C19   C36   S    
C8    C18   S    
C6    C7    T    
C16   C24   S    
C19   O12   A    
Cr5   O29   S    
C21   C22   T    
Cr2   O14   S    
C34   H19   S    
Cr5   O8    S    
Cr3   O24   S    
C12   C23   D    
C4    O15   A    
C2    H12   S    
C10   O28   A    
C30   H13   S    
C13   C33   S    
C27   H6    S    
C13   O3    A    
C28   H9    S    
C14   O7    A    
C1    O4    A    
C3    C5    S    
C27   H5    S    
C1    C32   S    
C16   O1    A    
C6    C20   S    
C11   C22   S    
Cr2   O19   S    
Cr6   O9    S    
C27   C28   S    
C25   H21   S    
C24   C31   D    
C4    O14   A    
C29   C30   S    
C24   O20   S    
Cr3   O15   S    
C18   O19   A    
Cr4   O6    S    
C20   O24   A    
Cr2   O13   S    
Cr6   O3    S    
C36   H16   S    
C2    C15   S    
C31   H17   S    
Cr3   O25   S    
C10   C12   S    
C18   O18   A    
C15   O8    A    
Cr2   O12   S    
C10   O27   A    
Cr6   O2    S    
C23   H1    S    
C35   H20   S    
C28   H8    S    
Cr6   O11   S    
C29   O22   S    
Br1   C5    S    
Cr1   O1    S    
C2    C3    D    
Cr5   O11   S    
C26   H2    S    
C20   O17   A    
Cr1   O17   S    
C25   H22   S    
C4    C21   S    
Cr4   O5    S    
C16   O16   A    
C5    C36   D    
Cr4   O26   S    
C32   O21   S    
C29   H10   S    
C27   O21   S    
C8    C9    T    
Cr4   O11   S    
C34   C35   S    
C25   C26   S    
C15   O9    A    
C30   H15   S    
C29   H11   S    
C23   C31   S    
C11   O2    A    
C12   H18   S    
