data_mof_unit_15764.cif
_audit_creation_date              2012-10-26T18:52:38-0400
_audit_creation_method            fapswitch 2.2
_symmetry_space_group_name_H-M    P1
_symmetry_Int_Tables_number       1
_space_group_crystal_system       triclinic
_cell_length_a                    10.734414
_cell_length_b                    14.694678
_cell_length_c                    14.734751
_cell_angle_alpha                 65.003269
_cell_angle_beta                  103.557375
_cell_angle_gamma                 103.103755
_cell_volume                      2026.22823398

loop_
_atom_site_label
_atom_site_type_symbol
_atom_type_description
_atom_site_fract_x
_atom_site_fract_y
_atom_site_fract_z
_atom_type_partial_charge
C1    C     C_R   0.479340 0.119750 0.312255 0.536386
C2    C     C_R   0.515615 0.360773 0.080211 0.029321
C3    C     C_R   0.501964 0.321272 0.005137 0.049662
C4    C     C_R   0.259964 0.001106 0.498873 0.548427
C5    C     C_R   0.543935 0.467395 0.054023 0.029764
C6    C     C_R   0.541918 0.533577 0.950290 0.030842
C7    C     C_R   0.530477 0.491264 0.877832 -0.140617
C8    C     C_R   0.512243 0.387024 0.905287 -0.136107
C9    C     C_R   0.576809 0.509931 0.128190 -0.144811
C10   C     C_R   0.597410 0.614156 0.100974 -0.135378
C11   C     C_R   0.583118 0.679606 0.999264 0.050856
C12   C     C_3   0.877915 0.003754 0.495992 0.053556
C13   C     C_R   0.553424 0.640005 0.922816 0.030317
C14   C     C_R   0.597265 0.784544 0.973130 -0.137054
C15   C     C_R   0.578781 0.850772 0.871709 -0.142698
C16   C     C_R   0.523518 0.880221 0.687758 0.540618
C17   C     C_R   0.531328 0.708087 0.821346 -0.139802
C18   C     C_R   0.719190 0.286687 0.665998 -0.155982
C19   C     C_R   0.684668 0.204476 0.637133 0.057363
C20   C     C_R   0.517277 0.284404 0.510120 0.033195
C21   C     C_R   0.547689 0.370925 0.535626 0.001028
C22   C     C_R   0.650996 0.369895 0.615875 0.038064
C23   C     C_3   0.925887 0.907671 0.584368 -0.285485
C24   C     C_R   0.479805 0.457334 0.485381 0.022661
C25   C     C_R   0.517339 0.541245 0.516659 0.022092
C26   C     C_R   0.620188 0.535278 0.597873 -0.147128
C27   C     C_R   0.685364 0.451450 0.646077 -0.133058
C28   C     C_R   0.739743 0.001661 0.497451 0.563085
C29   C     C_R   0.375739 0.462685 0.405113 -0.142765
C30   C     C_R   0.310325 0.546399 0.357128 -0.127848
C31   C     C_R   0.346111 0.628685 0.386234 0.041036
C32   C     C_R   0.450248 0.628065 0.465814 0.001551
C33   C     C_R   0.278391 0.712149 0.335782 -0.159330
C34   C     C_3   0.964714 0.099245 0.512152 0.170809
C35   C     C_R   0.314248 0.795031 0.363621 0.037818
C36   C     C_R   0.482341 0.715428 0.490018 0.033791
C37   C     C_3   0.040106 0.003453 0.395628 -0.247671
C38   C     C_3   0.895325 0.000476 0.395954 -0.236117
C39   C     C_3   0.070206 0.907810 0.585690 -0.252810
C40   C     C_3   0.108369 0.099651 0.511121 -0.207709
C41   C     C_3   0.122438 0.003115 0.497717 0.015638
C42   C     C_3   0.949285 0.247601 0.355193 -0.007534
C43   C     C_3   0.832235 0.291462 0.281326 -0.353057
C44   C     C_R   0.478338 0.187320 0.205056 -0.014581
C45   C     C_R   0.544263 0.812605 0.795368 -0.006509
C46   C     C_R   0.478387 0.216073 0.030878 -0.138136
C47   C     C_R   0.468047 0.149377 0.130564 -0.144644
C48   C     C_R   0.497752 0.292106 0.178762 -0.147761
Cu1   Cu    Cu3+1 0.465900 0.918260 0.475680 0.912352
Cu2   Cu    Cu3+1 0.534100 0.081740 0.524320 0.939429
H1    H     H_    0.051280 0.936186 0.383357 0.132049
H2    H     H_    0.453408 0.068436 0.149443 0.127424
H3    H     H_    0.497442 0.318419 0.236684 0.118064
H4    H     H_    0.074753 0.071721 0.331291 0.097997
H5    H     H_    0.539456 0.536806 0.799427 0.101972
H6    H     H_    0.591413 0.464715 0.208466 0.102888
H7    H     H_    0.621558 0.815294 0.031262 0.102570
H8    H     H_    0.763755 0.450465 0.708023 0.108694
H9    H     H_    0.561149 0.722433 0.548207 0.115228
H10   H     H_    0.262377 0.859641 0.324531 0.119289
H11   H     H_    0.230792 0.546806 0.296079 0.104930
H12   H     H_    0.961010 0.086722 0.591608 0.129136
H13   H     H_    0.798442 0.285045 0.727485 0.089308
H14   H     H_    0.736637 0.139918 0.676158 0.120199
H15   H     H_    0.439507 0.277873 0.451102 0.112143
H16   H     H_    0.854114 0.062956 0.328722 0.114223
H17   H     H_    0.652864 0.594306 0.626680 0.086075
H18   H     H_    0.341773 0.403018 0.377263 0.083680
H19   H     H_    0.198373 0.713418 0.274906 0.089117
H20   H     H_    0.840300 0.929052 0.389218 0.128202
H21   H     H_    0.081065 0.837673 0.578526 0.141659
H22   H     H_    0.867850 0.837740 0.576001 0.131739
H23   H     H_    0.127177 0.906560 0.659701 0.114962
H24   H     H_    0.166036 0.099707 0.584621 0.106265
H25   H     H_    0.151105 0.168744 0.451937 0.114112
H26   H     H_    0.984649 0.202590 0.325144 0.110704
H27   H     H_    0.027025 0.311326 0.357638 0.133516
H28   H     H_    0.794744 0.338951 0.307884 0.167427
H29   H     H_    0.859509 0.338961 0.205111 0.092988
H30   H     H_    0.754976 0.228770 0.275546 0.160760
H31   H     H_    0.912897 0.905047 0.658255 0.098983
H32   H     H_    0.504478 0.357742 0.847537 0.114269
H33   H     H_    0.499893 0.681094 0.761022 0.121470
H34   H     H_    0.589987 0.931490 0.853188 0.124155
H35   H     H_    0.622291 0.643622 0.160124 0.110051
H36   H     H_    0.469283 0.185415 0.974029 0.103931
N1    N     N_R   0.585360 0.204570 0.560800 -0.228035
N2    N     N_R   0.414550 0.795430 0.439160 -0.232079
O1    O     O_R   0.455060 0.022100 0.338110 -0.507263
O2    O     O_R   0.512640 0.160150 0.379180 -0.508078
O3    O     O_R   0.288900 0.930980 0.479450 -0.505121
O4    O     O_R   0.346480 0.069030 0.520520 -0.514668
O5    O     O_R   0.487360 0.839850 0.620820 -0.510647
O6    O     O_R   0.544940 0.977900 0.661890 -0.511769
O7    O     O_R   0.653520 0.930970 0.479480 -0.521949
O8    O     O_R   0.711100 0.069020 0.520550 -0.457263
O9    O     O_3   0.914422 0.192845 0.453006 -0.538377

loop_
_geom_bond_atom_site_label_1
_geom_bond_atom_site_label_2
_ccdc_geom_bond_type
C38   H20   S    
C10   H35   S    
C1    O2    A    
C7    H5    S    
C36   H9    S    
C7    C8    A    
C39   C41   S    
C36   N2    A    
C43   H28   S    
C12   C23   S    
C26   C27   A    
C37   C38   S    
C12   C28   S    
C28   O7    A    
C8    H32   S    
C26   H17   S    
C32   C36   A    
C17   C45   A    
C19   N1    A    
C30   C31   A    
C37   H1    S    
C11   C14   A    
C18   H13   S    
C4    C41   S    
C43   H29   S    
C20   N1    A    
C34   H12   S    
C34   O9    S    
C18   C19   A    
C24   C29   A    
Cu2   O2    S    
C38   H16   S    
C31   C33   A    
C9    C10   A    
C44   C47   A    
C33   H19   S    
C4    O3    A    
C4    O4    A    
C25   C32   A    
C21   C22   A    
C12   C38   S    
Cu1   N2    S    
Cu1   O3    S    
C48   H3    S    
C20   H15   S    
C24   C25   A    
C3    C8    A    
C42   O9    S    
Cu2   O6    S    
C2    C48   A    
C43   H30   S    
C35   H10   S    
C17   H33   S    
C47   H2    S    
C5    C9    A    
C29   C30   A    
C29   H18   S    
C35   N2    A    
C1    C44   S    
C31   C32   A    
C19   H14   S    
C16   O5    A    
C9    H6    S    
Cu1   O7    S    
C6    C7    A    
Cu2   N1    S    
C37   H4    S    
Cu2   O4    S    
C40   C41   S    
C22   C27   A    
C34   C40   S    
C21   C24   A    
C2    C5    A    
C42   C43   S    
C15   C45   A    
C12   C34   S    
C14   H7    S    
C46   C47   A    
C1    O1    A    
C23   H31   S    
C18   C22   A    
C16   O6    A    
C23   H22   S    
Cu1   O1    S    
C27   H8    S    
C16   C45   S    
C15   H34   S    
C3    C46   A    
C42   H26   S    
C40   H25   S    
C13   C17   A    
C28   O8    A    
C2    C3    A    
C25   C26   A    
C6    C13   A    
C11   C13   A    
Cu2   O8    S    
C5    C6    A    
C23   C39   S    
C33   C35   A    
C40   H24   S    
C39   H23   S    
C37   C41   S    
C10   C11   A    
C20   C21   A    
C42   H27   S    
Cu1   Cu2   S    
C30   H11   S    
C39   H21   S    
C14   C15   A    
Cu1   O5    S    
C44   C48   A    
C46   H36   S    
