data_mof_unit_25103.cif
_audit_creation_date              2012-12-11T15:59:48-0500
_audit_creation_method            fapswitch 2.2
_symmetry_space_group_name_H-M    P1
_symmetry_Int_Tables_number       1
_space_group_crystal_system       triclinic
_cell_length_a                    10.743442
_cell_length_b                    10.708793
_cell_length_c                    17.120247
_cell_angle_alpha                 99.487863
_cell_angle_beta                  100.016974
_cell_angle_gamma                 60.773853
_cell_volume                      1685.39509951

loop_
_atom_site_label
_atom_site_type_symbol
_atom_type_description
_atom_site_fract_x
_atom_site_fract_y
_atom_site_fract_z
_atom_type_partial_charge
C1    C     C_R   0.355649 0.770627 0.398671 0.533744
C2    C     C_R   0.814197 0.351824 0.322654 -0.025010
C3    C     C_R   0.352093 0.826050 0.160550 0.011540
C4    C     C_R   0.369554 0.346752 0.357343 0.568022
C5    C     C_R   0.439280 0.867330 0.220375 0.046800
C6    C     C_R   0.427748 0.866446 0.301209 0.010416
C7    C     C_R   0.282997 0.743922 0.258386 -0.138355
C8    C     C_R   0.284683 0.754803 0.180126 -0.145312
C9    C     C_R   0.538308 0.907830 0.202980 -0.067529
C10   C     C_R   0.616973 0.951694 0.263403 -0.123889
C11   C     C_R   0.600820 0.955927 0.342386 -0.092507
C12   C     C_R   0.853872 0.204760 0.196661 0.009889
C13   C     C_R   0.502393 0.920230 0.361356 -0.097333
C14   C     C_R   0.345925 0.806718 0.319419 0.010432
C15   C     C_R   0.300711 0.278696 0.799978 -0.007386
C16   C     C_R   0.773690 0.378615 0.402624 0.538088
C17   C     C_R   0.427313 0.178180 0.764004 0.036733
C18   C     C_R   0.479369 0.227178 0.713337 0.036189
C19   C     C_R   0.250222 0.447623 0.706530 -0.145601
C20   C     C_R   0.212318 0.412302 0.769875 -0.149663
C21   C     C_R   0.507739 0.032085 0.780005 -0.086972
C22   C     C_R   0.646221 0.946129 0.758504 -0.111343
C23   C     C_R   0.863885 0.215031 0.280510 0.011167
C24   C     C_R   0.707454 0.004422 0.720862 -0.113057
C25   C     C_R   0.625029 0.143729 0.698520 -0.082703
C26   C     C_R   0.382360 0.354705 0.676735 -0.004133
C27   C     C_1   0.846043 0.329005 0.705709 -0.061054
C28   C     C_R   0.358553 0.768520 0.627652 0.547188
C29   C     C_1   0.892705 0.294234 0.772350 -0.053861
C30   C     C_1   0.339502 0.809076 0.709659 -0.054686
C31   C     C_1   0.312823 0.837267 0.777467 -0.062405
C32   C     C_R   0.890407 0.308866 0.086806 0.554756
C33   C     C_R   0.319311 0.299695 0.120135 0.563974
C34   C     C_R   0.763868 0.474410 0.282137 -0.092857
C35   C     C_R   0.297452 0.889728 0.085099 0.547464
C36   C     C_R   0.942867 0.273784 0.854660 0.542431
C37   C     C_R   0.279428 0.253964 0.877145 0.526088
C38   C     C_R   0.278637 0.884967 0.857139 0.535497
C39   C     C_R   0.408176 0.375520 0.599921 0.549230
C40   C     C_R   0.777721 0.378388 0.629154 0.540553
C41   C     C_1   0.343056 0.337027 0.274016 -0.037942
C42   C     C_1   0.332140 0.326492 0.203320 -0.041923
C43   C     C_R   0.824742 0.327647 0.158940 0.003917
C44   C     C_R   0.768903 0.463708 0.201653 0.069885
C45   C     C_R   0.873637 0.072042 0.154168 -0.063393
C46   C     C_R   0.923857 0.949623 0.193710 -0.134899
C47   C     C_R   0.950863 0.957402 0.276283 -0.134223
C48   C     C_R   0.920228 0.088988 0.319672 -0.088716
Cr1   Cr    Cr6+3 0.608100 0.610860 0.522250 1.016502
Cr2   Cr    Cr6+3 0.288890 0.599990 0.488420 1.011831
Cr3   Cr    Cr6+3 0.603040 0.289190 0.489390 0.989083
Cr4   Cr    Cr6+3 0.053960 0.052250 0.967380 1.015158
Cr5   Cr    Cr6+3 0.059890 0.373160 0.992710 1.008562
Cr6   Cr    Cr6+3 0.373370 0.061690 0.991710 0.992752
H1    H     H_    0.716180 0.581723 0.312638 0.175249
H2    H     H_    0.675982 0.184670 0.669208 0.153100
H3    H     H_    0.845325 0.061766 0.090635 0.141526
H4    H     H_    0.940257 0.848715 0.160253 0.103179
H5    H     H_    0.989807 0.862409 0.307003 0.126124
H6    H     H_    0.940936 0.091103 0.383892 0.127962
H7    H     H_    0.231027 0.685565 0.270876 0.139570
H8    H     H_    0.566754 0.895699 0.143883 0.155224
H9    H     H_    0.224906 0.715291 0.134875 0.133241
H10   H     H_    0.798661 0.614248 0.161025 0.252429
H11   H     H_    0.663209 0.584791 0.107652 0.242224
H12   H     H_    0.690196 0.983206 0.248577 0.134847
H13   H     H_    0.663599 0.988796 0.389195 0.136415
H14   H     H_    0.487118 0.934207 0.423546 0.137480
H15   H     H_    0.176142 0.547588 0.680894 0.146600
H16   H     H_    0.465458 0.983726 0.810106 0.153075
H17   H     H_    0.114236 0.489443 0.795310 0.142872
H18   H     H_    0.707219 0.835878 0.773241 0.122597
H19   H     H_    0.817358 0.940790 0.707110 0.118534
N1    N     N_3   0.714220 0.593824 0.164562 -0.644019
O1    O     O_R   0.749810 0.499790 0.438040 -0.521158
O2    O     O_R   0.411730 0.181020 0.091530 -0.513963
O3    O     O_R   0.365010 0.944360 0.063320 -0.518167
O4    O     O_R   0.477660 0.726260 0.439290 -0.508058
O5    O     O_R   0.159380 0.906670 0.876210 -0.508600
O6    O     O_R   0.930820 0.177420 0.886730 -0.484508
O7    O     O_R   0.910360 0.395420 0.895720 -0.512069
O8    O     O_R   0.186010 0.361730 0.919870 -0.505749
O9    O     O_R   0.400000 0.173010 0.914630 -0.509162
O10   O     O_R   0.354140 0.936940 0.899340 -0.536357
O11   O     O_3   0.162410 0.162370 0.983930 -0.278740
O12   O     O_R   0.298970 0.468800 0.557390 -0.494540
O13   O     O_R   0.260150 0.743000 0.412270 -0.529906
O14   O     O_R   0.297740 0.466550 0.394720 -0.498094
O15   O     O_R   0.488080 0.253500 0.386430 -0.515022
O16   O     O_R   0.722670 0.303800 0.421940 -0.504730
O17   O     O_R   0.751130 0.502220 0.613520 -0.499430
O18   O     O_R   0.478890 0.728510 0.601960 -0.492591
O19   O     O_R   0.261470 0.745430 0.587750 -0.523363
O20   O     O_R   0.489400 0.255930 0.561910 -0.523476
O21   O     O_R   0.723890 0.306050 0.584610 -0.536625
O22   O     O_3   0.500010 0.500010 0.500020 -0.264633
O23   O     O_R   0.171100 0.914680 0.053100 -0.512034
O24   O     O_R   0.941680 0.184840 0.050710 -0.506477
O25   O     O_R   0.922080 0.403420 0.072610 -0.516848
O26   O     O_R   0.196880 0.369150 0.083850 -0.495067

loop_
_geom_bond_atom_site_label_1
_geom_bond_atom_site_label_2
_ccdc_geom_bond_type
C1    O13   A    
C16   O16   A    
C27   C29   T    
C16   O1    A    
C41   C42   T    
C19   C20   A    
C18   C26   A    
C25   H2    S    
Cr6   O10   S    
C7    C8    A    
C45   C46   A    
Cr5   O25   S    
C29   C36   S    
C45   H3    S    
C33   C42   S    
Cr4   O11   S    
C12   C43   A    
Cr3   O16   S    
C30   C31   T    
C26   C39   S    
C4    C41   S    
Cr4   O23   S    
Cr1   O4    S    
Cr5   O7    S    
C19   C26   A    
C7    H7    S    
C7    C14   A    
C15   C37   S    
Cr1   O1    S    
C20   H17   S    
Cr4   O5    S    
C2    C16   S    
C9    C10   A    
C27   C40   S    
Cr2   O14   S    
Cr3   O22   S    
Cr6   O3    S    
C2    C34   A    
C34   H1    S    
Cr1   O22   S    
C21   C22   A    
C46   H4    S    
C1    O4    A    
C18   C25   A    
Cr1   O17   S    
C22   H18   S    
Cr6   O9    S    
C11   H13   S    
C48   H6    S    
C10   H12   S    
Cr5   O26   S    
C15   C20   A    
C9    H8    S    
C34   C44   A    
C24   C25   A    
C3    C8    A    
C36   O6    A    
Cr3   O20   S    
C35   O3    A    
C17   C21   A    
H11   N1    S    
C28   O19   A    
C43   C44   A    
C39   O20   A    
C5    C9    A    
C6    C14   A    
C33   O2    A    
C47   C48   A    
C12   C23   A    
C3    C35   S    
C36   O7    A    
C17   C18   A    
C28   O18   A    
C44   N1    S    
Cr2   O13   S    
Cr6   O2    S    
C22   C24   A    
C37   O8    A    
C19   H15   S    
C40   O21   A    
C4    O15   A    
C15   C17   A    
C46   C47   A    
C23   C48   A    
C38   O10   A    
C37   O9    A    
C12   C45   A    
C3    C5    A    
Cr6   O11   S    
C31   C38   S    
Cr2   O19   S    
C4    O14   A    
C32   O25   A    
C21   H16   S    
C33   O26   A    
C28   C30   S    
Cr4   O6    S    
Cr3   O15   S    
C6    C13   A    
C11   C13   A    
Cr2   O22   S    
C5    C6    A    
Cr4   O24   S    
C32   C43   S    
C32   O24   A    
C40   O17   A    
C24   H19   S    
C10   C11   A    
Cr2   O12   S    
C8    H9    S    
C47   H5    S    
C38   O5    A    
C2    C23   A    
H10   N1    S    
Cr5   O8    S    
Cr5   O11   S    
C1    C14   S    
Cr1   O18   S    
C39   O12   A    
C35   O23   A    
Cr3   O21   S    
C13   H14   S    
