data_mof_unit_21546.cif
_audit_creation_date              2012-12-10T21:30:33-0500
_audit_creation_method            fapswitch 2.2
_symmetry_space_group_name_H-M    P1
_symmetry_Int_Tables_number       1
_space_group_crystal_system       triclinic
_cell_length_a                    13.141758
_cell_length_b                    16.237147
_cell_length_c                    16.728462
_cell_angle_alpha                 91.589973
_cell_angle_beta                  89.911443
_cell_angle_gamma                 107.197898
_cell_volume                      3408.60185152

loop_
_atom_site_label
_atom_site_type_symbol
_atom_type_description
_atom_site_fract_x
_atom_site_fract_y
_atom_site_fract_z
_atom_type_partial_charge
C1    C     C_R   0.501350 0.489895 0.346463 0.975277
C2    C     C_R   0.181339 0.419531 0.510095 -0.185874
C3    C     C_R   0.495089 0.481598 0.258852 -0.164047
C4    C     C_R   0.298006 0.451447 0.501165 0.985974
C5    C     C_R   0.517192 0.554167 0.209539 0.335902
C6    C     C_R   0.503676 0.541758 0.126630 0.112117
C7    C     C_R   0.463013 0.457561 0.093597 0.207642
C8    C     C_R   0.444647 0.385789 0.141858 0.162313
C9    C     C_R   0.462127 0.398258 0.223906 -0.298294
C10   C     C_R   0.383695 0.411846 0.852673 0.076197
C11   C     C_R   0.405825 0.418456 0.770722 0.284846
C12   C     C_R   0.035477 0.480550 0.530135 -0.060159
C13   C     C_R   0.393135 0.487221 0.899091 0.111923
C14   C     C_R   0.449294 0.501050 0.736862 -0.305201
C15   C     C_R   0.445773 0.575215 0.782924 0.049330
C16   C     C_R   0.487635 0.507066 0.652821 0.936885
C17   C     C_R   0.415359 0.566963 0.863034 0.354130
C18   C     C_R   0.555648 0.776187 0.538000 0.387041
C19   C     C_R   0.559385 0.864064 0.534695 -0.011871
C20   C     C_R   0.496681 0.889651 0.476770 0.124179
C21   C     C_R   0.435229 0.826125 0.423524 0.011089
C22   C     C_R   0.429270 0.738521 0.432853 0.384853
C23   C     C_R   0.120342 0.470805 0.482882 -0.188015
C24   C     C_R   0.443900 0.136640 0.461684 0.000224
C25   C     C_R   0.445362 0.224382 0.460597 0.417591
C26   C     C_R   0.510826 0.111424 0.515702 0.138677
C27   C     C_R   0.574729 0.261385 0.565209 0.204468
C28   C     C_R   0.701752 0.548151 0.498680 0.881234
C29   C     C_R   0.576118 0.174641 0.566985 0.245441
C30   C     C_R   0.980870 0.665973 0.432688 0.172999
C31   C     C_R   0.818283 0.578637 0.494154 -0.122885
C32   C     C_R   0.137584 0.357147 0.567095 0.350664
C33   C     C_R   0.056265 0.367548 0.616675 0.081081
C34   C     C_R   0.979938 0.536831 0.503147 0.071344
C35   C     C_R   0.011361 0.434622 0.602585 0.292520
C36   C     C_3   0.775126 0.715419 0.366205 -0.641971
C37   C     C_3   0.426404 0.285116 0.899119 -0.653376
C38   C     C_3   0.292738 0.271820 0.094094 -0.679785
C39   C     C_3   0.389069 0.684410 0.715506 -0.604772
C40   C     C_3   0.638497 0.630674 0.041805 -0.667574
C41   C     C_3   0.403065 0.069553 0.330402 -0.686902
C42   C     C_3   0.448064 0.870639 0.287011 -0.655551
C43   C     C_3   0.032780 0.582130 0.256346 -0.679496
C44   C     C_3   0.618802 0.308386 0.706090 -0.555639
C45   C     C_R   0.024600 0.597240 0.443947 -0.057818
C46   C     C_3   0.605514 0.932013 0.665753 -0.558849
C47   C     C_3   0.125548 0.796681 0.452485 -0.773660
C48   C     C_3   0.929113 0.244771 0.672811 -0.553543
C49   C     C_R   0.099231 0.578480 0.390899 0.150438
C50   C     C_R   0.141438 0.511089 0.408483 0.448002
C51   C     C_R   0.873555 0.524151 0.522247 -0.183907
C52   C     C_R   0.874969 0.655884 0.457283 0.138872
Cl1   Cl    Cl    0.414758 0.659515 0.920998 -0.574089
Cl2   Cl    Cl    0.368662 0.321604 0.712217 -0.569229
Cl3   Cl    Cl    0.567238 0.661094 0.247830 -0.655316
Cl4   Cl    Cl    0.353289 0.252823 0.399145 -0.567813
Cl5   Cl    Cl    0.357092 0.662615 0.362777 -0.540448
Cl6   Cl    Cl    0.663513 0.144617 0.632133 -0.699256
Cl7   Cl    Cl    0.653150 0.749917 0.595209 -0.588378
Cl8   Cl    Cl    0.183836 0.266566 0.577735 -0.458126
Cl9   Cl    Cl    0.937229 0.465451 0.680502 -0.656074
Cl10  Cl    Cl    0.207511 0.468459 0.332538 -0.534401
H1    H     H_    0.445948 0.342055 0.260532 0.226784
H2    H     H_    0.500741 0.328809 0.925907 0.242915
H3    H     H_    0.432309 0.255935 0.138226 0.225720
H4    H     H_    0.270060 0.206683 0.064814 0.225358
H5    H     H_    0.268454 0.316268 0.054122 0.266491
H6    H     H_    0.249578 0.268227 0.151714 0.257060
H7    H     H_    0.546740 0.677379 0.722472 0.289708
H8    H     H_    0.355105 0.641712 0.663117 0.229026
H9    H     H_    0.419140 0.751802 0.695456 0.211691
H10   H     H_    0.324899 0.680887 0.759722 0.263715
H11   H     H_    0.515872 0.668109 0.095962 0.303364
H12   H     H_    0.830014 0.465976 0.551593 0.198860
H13   H     H_    0.699544 0.649992 0.090147 0.239406
H14   H     H_    0.652066 0.683957 0.999124 0.262424
H15   H     H_    0.646994 0.572727 0.008879 0.234340
H16   H     H_    0.292928 0.075031 0.417743 0.275527
H17   H     H_    0.404898 0.129661 0.299633 0.246415
H18   H     H_    0.345365 0.014592 0.298491 0.237696
H19   H     H_    0.483390 0.060315 0.327276 0.245642
H20   H     H_    0.307948 0.811423 0.345765 0.254508
H21   H     H_    0.404625 0.894142 0.240188 0.220464
H22   H     H_    0.465569 0.811733 0.263309 0.295579
H23   H     H_    0.871307 0.782703 0.459392 0.247458
H24   H     H_    0.524199 0.921416 0.300473 0.236117
H25   H     H_    0.151268 0.680993 0.313469 0.269754
H26   H     H_    0.961838 0.602123 0.273901 0.209906
H27   H     H_    0.010725 0.510602 0.251780 0.259689
H28   H     H_    0.059480 0.608050 0.196653 0.247877
H29   H     H_    0.663588 0.385949 0.607641 0.270994
H30   H     H_    0.598906 0.364298 0.734354 0.225826
H31   H     H_    0.691847 0.302663 0.735629 0.252281
H32   H     H_    0.552123 0.249135 0.716632 0.261814
H33   H     H_    0.671250 0.984050 0.557317 0.284415
H34   H     H_    0.835593 0.733393 0.318378 0.202901
H35   H     H_    0.672371 0.977707 0.699397 0.261352
H36   H     H_    0.587638 0.868501 0.694284 0.240847
H37   H     H_    0.534359 0.955486 0.669837 0.242867
H38   H     H_    0.003165 0.779859 0.369864 0.233411
H39   H     H_    0.171524 0.855817 0.421861 0.247679
H40   H     H_    0.088795 0.816206 0.506893 0.258750
H41   H     H_    0.181416 0.760516 0.470025 0.252583
H42   H     H_    0.028496 0.348019 0.737509 0.269029
H43   H     H_    0.860982 0.271229 0.665395 0.271647
H44   H     H_    0.914834 0.203468 0.725925 0.236650
H45   H     H_    0.725376 0.760025 0.365671 0.274497
H46   H     H_    0.934999 0.204344 0.619307 0.265103
H47   H     H_    0.723695 0.648684 0.353418 0.255899
H48   H     H_    0.276710 0.290506 0.864380 0.269621
H49   H     H_    0.445697 0.258736 0.841189 0.253782
H50   H     H_    0.394872 0.230458 0.939506 0.238695
N1    N     N_2   0.448588 0.445127 0.010475 -0.137731
N2    N     N_2   0.475149 0.659341 0.751598 -0.248244
N3    N     N_2   0.532883 0.613356 0.075104 -0.240742
N4    N     N_2   0.370509 0.073334 0.412777 -0.254184
N5    N     N_2   0.383346 0.851593 0.358090 -0.279298
N6    N     N_2   0.118242 0.615143 0.313848 -0.227831
N7    N     N_2   0.639085 0.322422 0.621550 -0.270195
N8    N     N_2   0.635770 0.925728 0.583060 -0.251924
N9    N     N_2   0.043818 0.744330 0.399182 -0.335446
N10   N     N_2   0.026498 0.314370 0.684071 -0.267380
N11   N     N_2   0.391258 0.486688 0.983253 -0.075601
N12   N     N_R   0.487340 0.714070 0.490410 -0.172599
N13   N     N_2   0.499951 0.977812 0.464686 -0.097388
N14   N     N_2   0.506348 0.023019 0.527229 -0.101846
N15   N     N_R   0.512670 0.285920 0.509580 -0.162398
N16   N     N_2   0.825242 0.721103 0.443780 -0.273028
N17   N     N_2   0.346928 0.329803 0.888737 -0.272409
N18   N     N_2   0.406564 0.300776 0.108117 -0.302932
O1    O     O_R   0.504530 0.423560 0.387290 -0.603074
O2    O     O_R   0.496400 0.561030 0.381140 -0.507247
O3    O     O_R   0.352460 0.397130 0.504630 -0.500656
O4    O     O_R   0.344330 0.534610 0.498470 -0.605213
O5    O     O_R   0.503600 0.438970 0.618860 -0.570392
O6    O     O_R   0.495470 0.576440 0.612710 -0.602052
O7    O     O_R   0.655670 0.465390 0.501530 -0.670667
O8    O     O_R   0.647540 0.602870 0.495370 -0.530546
Zn1   Zn    Zn3+2 0.505430 0.408200 0.504110 1.047448
Zn2   Zn    Zn3+2 0.494570 0.591800 0.495890 1.058500

loop_
_geom_bond_atom_site_label_1
_geom_bond_atom_site_label_2
_ccdc_geom_bond_type
C46   H37   S    
C47   H39   S    
C27   C29   A    
C30   C45   A    
C19   C20   A    
C51   H12   S    
C31   C52   A    
O6    Zn2   S    
C1    O2    A    
C22   Cl5   S    
H3    N18   S    
C52   N16   S    
C7    C8    A    
C48   H46   S    
O5    Zn1   S    
O7    Zn1   S    
C12   C23   A    
C34   C51   A    
C43   H27   S    
C43   H26   S    
C38   N18   S    
C24   C26   A    
C18   C19   A    
C48   N10   S    
C5    C6    A    
C13   N11   S    
C11   C14   A    
C47   N9    S    
C40   N3    S    
H42   N10   S    
H48   N17   S    
C2    C32   A    
H38   N9    S    
C26   N14   S    
C37   H50   S    
C21   N5    S    
C44   H31   S    
C27   N15   A    
C48   H44   S    
C38   H4    S    
C8    C9    A    
C39   H10   S    
C25   Cl4   S    
C42   H24   S    
C44   H30   S    
C46   H36   S    
C47   H40   S    
C21   C22   A    
C36   H45   S    
C36   N16   S    
N15   Zn1   S    
C41   H18   S    
C5    Cl3   S    
H7    N2    S    
C43   H28   S    
C47   H41   S    
C28   O7    A    
C28   O8    A    
C24   C25   A    
H25   N6    S    
O1    Zn1   S    
C23   C50   A    
C44   N7    S    
C1    O1    A    
C40   H14   S    
C1    C3    S    
C2    C4    S    
C3    C9    A    
C36   H34   S    
C48   H43   S    
N1    N11   D    
C30   N9    S    
C45   C49   A    
C39   N2    S    
C41   H19   S    
C14   C15   A    
C15   N2    S    
C46   N8    S    
C35   Cl9   S    
C34   C45   A    
C20   C21   A    
C12   C35   A    
C22   N12   A    
C11   Cl2   S    
O8    Zn2   S    
C46   H35   S    
C38   H6    S    
C19   N8    S    
O3    Zn1   S    
C8    N18   S    
C33   N10   S    
C50   Cl10  S    
C14   C16   S    
C32   Cl8   S    
C41   N4    S    
C12   C34   A    
C16   O6    A    
C17   Cl1   S    
C36   H47   S    
C37   H2    S    
C4    O4    A    
C15   C17   A    
C30   C52   A    
C9    H1    S    
N12   Zn2   S    
C28   C31   S    
H16   N4    S    
C42   H21   S    
C31   C51   A    
C3    C5    A    
C10   C13   A    
C41   H17   S    
C38   H5    S    
C42   N5    S    
C24   N4    S    
C6    C7    A    
C42   H22   S    
C27   N7    S    
H33   N8    S    
O2    Zn2   S    
H11   N3    S    
C40   H13   S    
C13   C17   A    
C32   C33   A    
C7    N1    S    
C25   N15   A    
C10   N17   S    
C20   N13   S    
O4    Zn2   S    
N13   N14   D    
C33   C35   A    
C39   H8    S    
C37   N17   S    
H29   N7    S    
C6    N3    S    
C37   H49   S    
C44   H32   S    
C10   C11   A    
C43   N6    S    
C49   N6    S    
C18   Cl7   S    
C29   Cl6   S    
C26   C29   A    
C49   C50   A    
C2    C23   A    
C39   H9    S    
C40   H15   S    
H23   N16   S    
H20   N5    S    
C16   O5    A    
C18   N12   A    
C4    O3    A    
