data_mof_unit_20797.cif
_audit_creation_date              2012-12-10T18:06:39-0500
_audit_creation_method            fapswitch 2.2
_symmetry_space_group_name_H-M    P1
_symmetry_Int_Tables_number       1
_space_group_crystal_system       triclinic
_cell_length_a                    12.57528
_cell_length_b                    13.393121
_cell_length_c                    15.291718
_cell_angle_alpha                 84.725625
_cell_angle_beta                  99.291244
_cell_angle_gamma                 95.65886
_cell_volume                      2521.70375743

loop_
_atom_site_label
_atom_site_type_symbol
_atom_type_description
_atom_site_fract_x
_atom_site_fract_y
_atom_site_fract_z
_atom_type_partial_charge
C1    C     C_R   0.445157 0.308382 0.510528 0.896772
C2    C     C_R   0.483626 0.588797 0.101299 0.075660
C3    C     C_R   0.393809 0.643728 0.065227 0.012301
C4    C     C_R   0.563829 0.576432 0.049102 -0.089468
C5    C     C_R   0.535564 0.586470 0.957027 0.099254
C6    C     C_R   0.449294 0.644566 0.920289 -0.088042
C7    C     C_R   0.381819 0.676518 0.974369 -0.116002
C8    C     C_R   0.669226 0.551586 0.085755 0.378392
C9    C     C_R   0.735283 0.513125 0.032908 0.403735
C10   C     C_R   0.700371 0.511170 0.939183 -0.294962
C11   C     C_R   0.593562 0.537599 0.904462 -0.123981
C12   C     C_R   0.437326 0.518392 0.335096 0.892048
C13   C     C_R   0.762055 0.475555 0.879783 0.395153
C14   C     C_R   0.709201 0.445777 0.797139 0.306523
C15   C     C_R   0.541792 0.503593 0.822317 0.348195
C16   C     C_R   0.727039 0.934751 0.483870 0.541596
C17   C     C_R   0.587382 0.797372 0.481439 -0.150598
C18   C     C_R   0.301259 0.172007 0.479092 -0.241845
C19   C     C_R   0.269141 0.079040 0.445898 -0.214738
C20   C     C_R   0.345787 0.013338 0.437450 0.492252
C21   C     C_R   0.456676 0.035140 0.474743 -0.014037
C22   C     C_R   0.488782 0.129732 0.508437 -0.038315
C23   C     C_R   0.555218 0.690651 0.489255 0.895825
C24   C     C_R   0.537145 0.966976 0.478911 -0.034188
C25   C     C_R   0.649240 0.999957 0.496811 -0.099403
C26   C     C_R   0.679032 0.089476 0.538610 0.479933
C27   C     C_R   0.597506 0.150360 0.547214 -0.220889
C28   C     C_R   0.509046 0.864197 0.477871 -0.181812
C29   C     C_R   0.694761 0.832903 0.477879 -0.230956
C30   C     C_R   0.411108 0.200654 0.505207 -0.069263
C31   C     C_R   0.140100 0.661734 0.607008 0.459306
C32   C     C_R   0.758293 0.374197 0.400495 0.746334
C33   C     C_R   0.856794 0.336521 0.393985 -0.428640
C34   C     C_R   0.563748 0.482336 0.665656 0.979468
C35   C     C_R   0.952008 0.378648 0.440521 -0.247022
C36   C     C_R   0.952663 0.465921 0.486033 0.084413
C37   C     C_R   0.852693 0.495035 0.498003 0.080552
C38   C     C_R   0.048091 0.523641 0.520940 -0.207157
C39   C     C_R   0.042828 0.603585 0.576419 -0.173985
C40   C     C_R   0.940633 0.623040 0.596025 0.455977
C41   C     C_R   0.848531 0.569294 0.555316 -0.197572
C42   C     C_R   0.149455 0.508881 0.498317 0.612040
C43   C     C_R   0.237837 0.628149 0.596101 -0.113834
C44   C     C_R   0.412646 0.554562 0.240750 -0.158108
C45   C     C_R   0.604789 0.474643 0.763022 -0.348750
C46   C     C_R   0.318763 0.661550 0.121086 0.400554
C47   C     C_R   0.331620 0.619280 0.209321 -0.306640
C48   C     C_R   0.485683 0.538089 0.185258 -0.136576
H1    H     H_    0.317114 0.721159 0.943081 0.226704
H2    H     H_    0.753916 0.780972 0.472962 0.206518
H3    H     H_    0.427208 0.834363 0.482618 0.218122
H4    H     H_    0.240642 0.224641 0.477215 0.201440
H5    H     H_    0.184634 0.060664 0.420497 0.192511
H6    H     H_    0.619435 0.212609 0.587504 0.244720
H7    H     H_    0.313452 0.667243 0.623877 0.178490
H8    H     H_    0.023641 0.340853 0.440037 0.228709
H9    H     H_    0.861715 0.274598 0.354819 0.202574
H10   H     H_    0.773292 0.585004 0.571351 0.244659
H11   H     H_    0.280175 0.638686 0.253889 0.181426
H12   H     H_    0.544269 0.483714 0.207878 0.237566
H13   H     H_    0.434655 0.666010 0.849707 0.175216
N1    N     N_R   0.239390 0.551900 0.544730 -0.151490
N2    N     N_R   0.759950 0.448600 0.455730 -0.161058
O1    O     O_R   0.374950 0.371210 0.521360 -0.567841
O2    O     O_R   0.542050 0.338030 0.492790 -0.600181
O3    O     O_R   0.368720 0.526070 0.390200 -0.584892
O4    O     O_R   0.535820 0.492890 0.361630 -0.562663
O5    O     O_R   0.457950 0.661970 0.507210 -0.645285
O6    O     O_R   0.625050 0.628790 0.478640 -0.652740
O7    O     O_R   0.464180 0.507110 0.638370 -0.557290
O8    O     O_R   0.631280 0.473930 0.609800 -0.583675
Zn1   Zn    Zn3+2 0.388420 0.522150 0.519080 1.034609
Zn2   Zn    Zn3+2 0.611580 0.477850 0.480920 1.022246
S1    S     S_3+6 0.904765 0.504262 0.886698 0.167951
O9    O     O_2   0.936490 0.603705 0.925824 -0.196721
O10   O     O_2   0.967756 0.424103 0.940655 -0.173335
O11   O     O_3   0.938215 0.511552 0.784215 -0.485142
H14   H     H_    0.017223 0.505635 0.793271 0.395417
O12   O     O_3   0.777776 0.099468 0.593908 -0.550662
C49   C     C_3   0.835473 0.192755 0.575761 -0.011163
H15   H     H_    0.891565 0.212070 0.636712 0.230169
H16   H     H_    0.885699 0.186175 0.523932 0.179760
H17   H     H_    0.784096 0.255817 0.555035 0.123561
S2    S     S_3+6 0.858517 0.977744 0.460316 0.023215
O13   O     O_2   0.933445 0.003164 0.543637 -0.236067
O14   O     O_2   0.904388 0.897404 0.418714 -0.319786
O15   O     O_3   0.850593 0.080117 0.388305 -0.631603
H18   H     H_    0.925570 0.098158 0.376556 0.377619
O16   O     O_3   0.310213 0.930255 0.389964 -0.653317
C50   C     C_3   0.329373 0.953054 0.301689 -0.203874
H19   H     H_    0.417133 0.970280 0.298444 0.151859
H20   H     H_    0.283107 0.016601 0.268890 0.183543
H21   H     H_    0.301283 0.886168 0.263750 0.241750
S3    S     S_3+6 0.404457 0.450322 0.813995 0.048184
O17   O     O_2   0.328970 0.525395 0.767733 -0.325356
O18   O     O_2   0.389611 0.358285 0.762429 -0.262829
O19   O     O_3   0.373045 0.416298 0.916064 -0.524675
H22   H     H_    0.293571 0.400695 0.906755 0.403068
S4    S     S_3+6 0.919019 0.711826 0.670269 0.099695
O20   O     O_2   0.001205 0.708365 0.753371 -0.149542
O21   O     O_2   0.927125 0.815320 0.624297 -0.232039
O22   O     O_3   0.794854 0.688009 0.699200 -0.595667
H23   H     H_    0.790147 0.739147 0.740956 0.394101
O23   O     O_3   0.141628 0.750632 0.646535 -0.539833
C51   C     C_3   0.167064 0.832089 0.585815 -0.102067
H24   H     H_    0.111500 0.829470 0.521304 0.187525
H25   H     H_    0.252600 0.834649 0.574797 0.113108
H26   H     H_    0.157082 0.903203 0.614317 0.228638
O24   O     O_3   0.160948 0.460318 0.424946 -0.612733
C52   C     C_3   0.127651 0.522524 0.347447 -0.273465
H27   H     H_    0.154553 0.492495 0.290197 0.210712
H28   H     H_    0.163395 0.601627 0.352560 0.157738
H29   H     H_    0.038288 0.522147 0.332553 0.179718
O25   O     O_3   0.658060 0.340305 0.354614 -0.579586
C53   C     C_3   0.655751 0.245932 0.320219 -0.261801
H30   H     H_    0.687713 0.188603 0.372224 0.174616
H31   H     H_    0.699465 0.252025 0.262136 0.226038
H32   H     H_    0.570296 0.219985 0.296554 0.186543
S5    S     S_3+6 0.753952 0.340560 0.756363 0.075908
O26   O     O_2   0.802310 0.372786 0.673817 -0.296135
O27   O     O_2   0.836989 0.290925 0.823798 -0.200370
O28   O     O_3   0.646551 0.257029 0.734104 -0.573844
H33   H     H_    0.619014 0.241011 0.791358 0.377594
S6    S     S_3+6 0.840581 0.442075 0.091734 0.085542
O29   O     O_2   0.840626 0.345178 0.049400 -0.229923
O30   O     O_2   0.947885 0.502634 0.092671 -0.258809
O31   O     O_3   0.822819 0.411955 0.197594 -0.529647
H34   H     H_    0.895118 0.395266 0.228283 0.370307
S7    S     S_3+6 0.210271 0.737645 0.084496 0.048190
O32   O     O_2   0.254986 0.842090 0.057439 -0.263899
O33   O     O_2   0.139347 0.695101 0.005525 -0.202128
O34   O     O_3   0.135584 0.743851 0.165475 -0.546100
H35   H     H_    0.092173 0.678087 0.168436 0.367958
O35   O     O_3   0.708600 0.565689 0.174040 -0.573195
C54   C     C_3   0.756951 0.664837 0.179684 -0.193541
H36   H     H_    0.696793 0.720940 0.156448 0.152753
H37   H     H_    0.826086 0.678348 0.141637 0.190899
H38   H     H_    0.789180 0.675888 0.250381 0.197282

loop_
_geom_bond_atom_site_label_1
_geom_bond_atom_site_label_2
_ccdc_geom_bond_type
C54   H38   S    
O15   H18   S    
C17   C29   A    
C23   O6    A    
C35   C36   A    
S2    O15   S    
C4    C8    A    
C40   S4    S    
O25   C53   S    
C27   H6    S    
C18   H4    S    
C54   H36   S    
O11   H14   S    
C51   H25   S    
C26   C27   A    
C17   C23   S    
S1    O10   D    
C6    H13   S    
C36   C37   A    
C42   O24   S    
S2    O14   D    
C41   H10   S    
C5    C11   A    
C3    C7    A    
C5    C6    A    
C28   H3    S    
C53   H30   S    
O19   H22   S    
C16   S2    S    
C9    S6    S    
O2    Zn2   S    
C18   C19   A    
C52   H27   S    
C33   C35   A    
C11   C15   A    
O3    Zn1   S    
C19   C20   A    
C8    C9    A    
C53   H31   S    
S1    O11   S    
C1    O2    A    
O6    Zn2   S    
C18   C30   A    
C9    C10   A    
C42   N1    A    
C44   C47   A    
S7    O34   S    
C19   H5    S    
C21   C22   A    
S3    O17   D    
C15   S3    S    
C49   H17   S    
O23   C51   S    
C37   N2    A    
C48   H12   S    
C14   C45   A    
C29   H2    S    
S5    O27   D    
C51   H26   S    
S1    O9    D    
C8    O35   S    
S2    O13   D    
C7    H1    S    
C49   H16   S    
C39   C40   A    
O8    Zn2   S    
O34   H35   S    
C12   O4    A    
N2    Zn2   S    
S3    O19   S    
C2    C48   A    
C16   C29   A    
C12   O3    A    
C23   O5    A    
C2    C4    A    
C50   H20   S    
S4    O20   D    
O5    Zn1   S    
C53   H32   S    
C20   C21   A    
N1    Zn1   S    
C34   C45   S    
C24   C25   A    
S3    O18   D    
C52   H29   S    
C6    C7    A    
C31   C43   A    
S6    O31   S    
O4    Zn2   S    
C43   H7    S    
C40   C41   A    
S4    O21   D    
C22   C27   A    
C15   C45   A    
O31   H34   S    
O16   C50   S    
C1    O1    A    
C50   H21   S    
S6    O30   D    
S7    O32   D    
C51   H24   S    
S5    O28   S    
C16   C25   A    
C54   H37   S    
C34   O7    A    
C46   C47   A    
C33   H9    S    
C22   C30   A    
C35   H8    S    
C17   C28   A    
C24   C28   A    
C32   N2    A    
C49   H15   S    
C10   C13   A    
S5    O26   D    
C38   C42   A    
O35   C54   S    
C20   O16   S    
C3    C46   A    
C26   O12   S    
C32   C33   A    
C36   C38   A    
C2    C3    A    
C25   C26   A    
C12   C44   S    
O24   C52   S    
C31   O23   S    
C50   H19   S    
C38   C39   A    
C1    C30   S    
C46   S7    S    
C31   C39   A    
O1    Zn1   S    
C37   C41   A    
O22   H23   S    
C52   H28   S    
C10   C11   A    
C47   H11   S    
O12   C49   S    
C4    C5    A    
S4    O22   S    
C13   S1    S    
C14   S5    S    
C21   C24   A    
O7    Zn1   S    
C32   O25   S    
O28   H33   S    
C13   C14   A    
C34   O8    A    
C44   C48   A    
C43   N1    A    
S6    O29   D    
S7    O33   D    
