data_mof_unit_34799.cif
_audit_creation_date              2012-12-11T17:04:55-0500
_audit_creation_method            fapswitch 2.2
_symmetry_space_group_name_H-M    P1
_symmetry_Int_Tables_number       1
_space_group_crystal_system       triclinic
_cell_length_a                    17.352967
_cell_length_b                    24.294363
_cell_length_c                    14.876987
_cell_angle_alpha                 90.386845
_cell_angle_beta                  125.327577
_cell_angle_gamma                 89.643595
_cell_volume                      5116.79356321

loop_
_atom_site_label
_atom_site_type_symbol
_atom_type_description
_atom_site_fract_x
_atom_site_fract_y
_atom_site_fract_z
_atom_type_partial_charge
C1    C     C_R   0.849116 0.651856 0.906033 -0.147117
C2    C     C_R   0.932159 0.502300 0.630843 0.085117
C3    C     C_R   0.763493 0.047360 0.294571 -0.131510
C4    C     C_R   0.819545 0.366412 0.910956 -0.149438
C5    C     C_R   0.188159 0.374852 0.089341 -0.139881
C6    C     C_R   0.351852 0.848591 0.910219 -0.088294
C7    C     C_R   0.687794 0.874413 0.089187 -0.128429
C8    C     C_R   0.939952 0.653230 0.089047 -0.145924
C9    C     C_R   0.098011 0.627703 0.909482 -0.129122
C10   C     C_R   0.440419 0.153394 0.089022 -0.147447
C11   C     C_R   0.560462 0.152585 0.911271 -0.127513
C12   C     C_R   0.876632 0.683948 0.996174 0.093045
C13   C     C_R   0.450636 0.001962 0.275925 0.071000
C14   C     C_R   0.186724 0.641755 0.003085 0.078309
C15   C     C_R   0.377486 0.184294 0.996234 0.094172
C16   C     C_R   0.622467 0.183259 0.005196 0.089498
C17   C     C_2   0.611925 0.355676 0.822742 0.477424
C18   C     C_2   0.399255 0.362835 0.178585 0.493416
C19   C     C_2   0.323066 0.726753 0.821039 0.475112
C20   C     C_2   0.898673 0.862797 0.177385 0.478757
C21   C     C_R   0.434699 0.001951 0.631405 0.074948
C22   C     C_R   0.674326 0.502122 0.704121 0.038657
C23   C     C_R   0.305337 0.500029 0.361362 0.051369
C24   C     C_R   0.175178 0.000379 0.720651 0.030501
C25   C     C_R   0.814582 0.001442 0.350995 0.042007
C26   C     C_3   0.497514 0.478143 0.630936 -0.120442
C27   C     C_3   0.457656 0.448656 0.519792 -0.110943
C28   C     C_3   0.010360 0.950134 0.587579 -0.160133
C29   C     C_R   0.190069 0.625890 0.094207 -0.148117
C30   C     C_3   0.984451 0.964023 0.472124 -0.147304
C31   C     C_3   0.435521 0.529526 0.569664 -0.164515
C32   C     C_3   0.535974 0.473417 0.513885 -0.138352
C33   C     C_3   0.929879 0.987888 0.568317 -0.144641
C34   C     C_3   0.050831 0.013854 0.518386 -0.132139
C35   C     C_3   0.398286 0.499950 0.460890 0.152466
C36   C     C_3   0.574376 0.502795 0.623309 0.155054
C37   C     C_3   0.906062 0.001696 0.454574 0.173087
C38   C     C_3   0.075936 0.000130 0.632982 0.178779
C39   C     C_3   0.475829 0.524624 0.454474 -0.146294
C40   C     C_R   0.349647 0.152056 0.906106 -0.149678
C41   C     C_3   0.514879 0.554145 0.564590 -0.158418
C42   C     C_3   0.971623 0.051640 0.500080 -0.167671
C43   C     C_3   0.997854 0.037963 0.615974 -0.155074
C44   C     C_R   0.781301 0.300989 0.110887 0.172095
C45   C     C_R   0.227403 0.308567 0.889958 0.182525
C46   C     C_R   0.382474 0.740414 0.107681 0.138546
C47   C     C_R   0.725634 0.807648 0.889580 0.160033
C48   C     C_R   0.753305 0.325143 0.011041 -0.087681
C49   C     C_R   0.257261 0.335687 0.988571 -0.093587
C50   C     C_R   0.366991 0.758298 0.009256 0.019522
C51   C     C_R   0.650122 0.151543 0.094976 -0.145321
C52   C     C_R   0.756251 0.835159 0.988045 -0.087781
C53   C     C_R   0.657927 0.318415 0.919033 -0.037331
C54   C     C_R   0.350730 0.325222 0.082100 -0.049709
C55   C     C_R   0.318529 0.722107 0.916948 -0.037890
C56   C     C_R   0.849936 0.824972 0.081242 -0.038420
C57   C     C_R   0.911780 0.368091 0.094049 -0.122378
C58   C     C_R   0.097177 0.379012 0.905540 -0.125386
C59   C     C_R   0.447786 0.848447 0.092817 -0.166593
C60   C     C_R   0.596876 0.878818 0.905403 -0.085705
C61   C     C_R   0.262824 0.679907 0.916376 -0.331840
C62   C     C_R   0.824803 0.351684 0.004194 0.072420
C63   C     C_R   0.895783 0.776504 0.082217 -0.193413
C64   C     C_R   0.607022 0.273857 0.919886 -0.194259
C65   C     C_R   0.396646 0.276762 0.082954 -0.190803
C66   C     C_R   0.262086 0.671691 0.009320 0.058282
C67   C     C_R   0.850798 0.741627 0.989514 -0.010835
C68   C     C_R   0.649471 0.240080 0.013122 -0.015304
C69   C     C_R   0.352079 0.242141 0.989831 -0.016261
C70   C     C_R   0.331489 0.697564 0.107923 0.151200
C71   C     C_R   0.772835 0.761946 0.890331 0.158303
C72   C     C_R   0.729312 0.259300 0.112114 0.169880
C73   C     C_R   0.185944 0.363964 0.995742 0.067166
C74   C     C_R   0.274730 0.262896 0.890605 0.167909
C75   C     C_3   0.325464 0.724189 0.194870 -0.508738
C76   C     C_3   0.683881 0.733670 0.801842 -0.518914
C77   C     C_3   0.815587 0.229273 0.202167 -0.515257
C78   C     C_3   0.185942 0.235055 0.800691 -0.520874
C79   C     C_3   0.872774 0.274914 0.200742 -0.512948
C80   C     C_3   0.133499 0.284769 0.800170 -0.506420
C81   C     C_3   0.381217 0.771314 0.194442 -0.514084
C82   C     C_3   0.631530 0.783446 0.801221 -0.475075
C83   C     C_R   0.895890 0.554975 0.468934 0.160039
C84   C     C_R   0.385868 0.816294 0.002546 0.100924
C85   C     C_R   0.904462 0.555182 0.382597 0.162843
C86   C     C_R   0.393652 0.053588 0.465683 0.149697
C87   C     C_R   0.397295 0.053816 0.375518 0.158769
C88   C     C_R   0.895342 0.504935 0.514914 0.028915
C89   C     C_R   0.913120 0.505425 0.341393 0.035174
C90   C     C_R   0.396979 0.003794 0.514599 0.030051
C91   C     C_R   0.403527 0.004138 0.331502 0.032601
C92   C     C_R   0.876411 0.456459 0.453202 -0.195477
C93   C     C_R   0.885359 0.456720 0.365738 -0.199622
C94   C     C_R   0.377375 0.955064 0.453127 -0.190542
C95   C     C_R   0.685412 0.863596 0.995513 0.052987
C96   C     C_R   0.380226 0.955303 0.360977 -0.198413
C97   C     C_3   0.966565 0.604959 0.425756 -0.513098
C98   C     C_3   0.957567 0.604771 0.520480 -0.524603
C99   C     C_3   0.458177 0.104242 0.415982 -0.509747
C100  C     C_3   0.453529 0.104057 0.513922 -0.504393
C101  C     C_R   0.984038 0.548132 0.251637 -0.144376
C102  C     C_R   0.948555 0.547165 0.696089 -0.158898
C103  C     C_R   0.478779 0.047281 0.245970 -0.145813
C104  C     C_R   0.450940 0.047091 0.696732 -0.142026
C105  C     C_R   0.729334 0.455533 0.733581 -0.151317
C106  C     C_R   0.962059 0.503340 0.288732 0.070695
C107  C     C_R   0.257431 0.454405 0.301229 -0.144021
C108  C     C_R   0.231342 0.954372 0.748236 -0.124874
C109  C     C_R   0.762408 0.955156 0.297246 -0.163044
C110  C     C_R   0.995943 0.456800 0.267565 -0.127785
C111  C     C_R   0.948071 0.455878 0.693014 -0.144466
C112  C     C_R   0.482393 0.955246 0.251464 -0.128205
C113  C     C_R   0.449204 0.955724 0.693539 -0.148986
C114  C     C_R   0.730359 0.547868 0.739366 -0.125177
C115  C     C_R   0.257826 0.546198 0.303206 -0.156617
C116  C     C_R   0.230299 0.046729 0.748200 -0.141781
H1    H     H_    0.814554 0.665705 0.822175 0.097892
H2    H     H_    0.539587 0.597436 0.584161 0.111519
H3    H     H_    0.954659 0.093160 0.462332 0.111392
H4    H     H_    0.006170 0.067871 0.677741 0.114681
H5    H     H_    0.216978 0.655777 0.842306 0.132269
H6    H     H_    0.962523 0.764413 0.156699 0.166656
H7    H     H_    0.538728 0.263185 0.846099 0.166277
H8    H     H_    0.463095 0.264478 0.157617 0.166238
H9    H     H_    0.365271 0.700924 0.273583 0.187597
H10   H     H_    0.668776 0.695843 0.830796 0.209348
H11   H     H_    0.827521 0.189177 0.175436 0.205024
H12   H     H_    0.248787 0.628945 0.179445 0.107465
H13   H     H_    0.169968 0.197042 0.828256 0.201982
H14   H     H_    0.252234 0.736136 0.164647 0.203715
H15   H     H_    0.678895 0.728842 0.724264 0.183610
H16   H     H_    0.820225 0.228017 0.279865 0.187472
H17   H     H_    0.181953 0.230694 0.723658 0.188979
H18   H     H_    0.916785 0.260732 0.172747 0.203075
H19   H     H_    0.087599 0.274885 0.827565 0.203061
H20   H     H_    0.452773 0.775037 0.272889 0.188484
H21   H     H_    0.586491 0.773830 0.829938 0.229315
H22   H     H_    0.910484 0.299660 0.278036 0.183877
H23   H     H_    0.315184 0.165823 0.822212 0.099505
H24   H     H_    0.098708 0.308581 0.722320 0.187157
H25   H     H_    0.339823 0.810264 0.163977 0.200469
H26   H     H_    0.595804 0.806820 0.722779 0.182035
H27   H     H_    0.867766 0.417320 0.480511 0.129230
H28   H     H_    0.882609 0.417883 0.327885 0.127569
H29   H     H_    0.371736 0.915856 0.482800 0.131119
H30   H     H_    0.376712 0.916305 0.323245 0.128962
H31   H     H_    0.932063 0.641218 0.371056 0.197463
H32   H     H_    0.026073 0.596180 0.600498 0.198873
H33   H     H_    0.421608 0.140254 0.361236 0.198281
H34   H     H_    0.684195 0.165171 0.179119 0.101623
H35   H     H_    0.523567 0.096251 0.592545 0.203362
H36   H     H_    0.943651 0.358191 0.178161 0.097914
H37   H     H_    0.071876 0.378181 0.820262 0.110035
H38   H     H_    0.497962 0.834294 0.176215 0.107018
H39   H     H_    0.571503 0.877849 0.820115 0.102699
H40   H     H_    0.039972 0.596383 0.452360 0.199439
H41   H     H_    0.918153 0.641031 0.520468 0.191889
H42   H     H_    0.531043 0.096454 0.440047 0.200130
H43   H     H_    0.413749 0.139767 0.515131 0.195399
H44   H     H_    0.967715 0.590764 0.253279 0.112200
H45   H     H_    0.509153 0.459954 0.706056 0.134456
H46   H     H_    0.926550 0.589080 0.669420 0.102161
H47   H     H_    0.462606 0.089874 0.247998 0.113182
H48   H     H_    0.430699 0.089189 0.670326 0.101780
H49   H     H_    0.704733 0.414308 0.704248 0.108686
H50   H     H_    0.271485 0.412077 0.328383 0.097504
H51   H     H_    0.209255 0.911876 0.730450 0.094936
H52   H     H_    0.778204 0.913398 0.327786 0.102973
H53   H     H_    0.001915 0.416418 0.300042 0.085724
H54   H     H_    0.928635 0.414094 0.662953 0.089097
H55   H     H_    0.472300 0.912712 0.262823 0.093970
H56   H     H_    0.432613 0.405428 0.500173 0.144672
H57   H     H_    0.429356 0.913968 0.663498 0.097385
H58   H     H_    0.709186 0.590591 0.723223 0.092021
H59   H     H_    0.272683 0.588254 0.332781 0.097848
H60   H     H_    0.206965 0.089104 0.730305 0.101801
H61   H     H_    0.779489 0.089873 0.320921 0.090554
H62   H     H_    0.767297 0.353294 0.827798 0.098479
H63   H     H_    0.244964 0.366768 0.173986 0.097766
H64   H     H_    0.308759 0.835455 0.825220 0.112563
H65   H     H_    0.744367 0.865792 0.173645 0.094461
H66   H     H_    0.985446 0.668554 0.172565 0.093684
H67   H     H_    0.028113 0.908747 0.625936 0.113458
H68   H     H_    0.071619 0.634093 0.824392 0.096688
H69   H     H_    0.486076 0.168645 0.172582 0.093116
H70   H     H_    0.516458 0.167257 0.827349 0.093706
H71   H     H_    0.390963 0.552124 0.589010 0.122033
H72   H     H_    0.578978 0.450689 0.492333 0.139719
H73   H     H_    0.877118 0.977353 0.585009 0.114669
H74   H     H_    0.102349 0.024428 0.499679 0.121140
H75   H     H_    0.642234 0.395660 0.829472 0.005067
H76   H     H_    0.370890 0.403641 0.172565 0.012364
H77   H     H_    0.267581 0.709028 0.742312 0.009263
H78   H     H_    0.976920 0.934073 0.410818 0.152612
H79   H     H_    0.869966 0.903486 0.171435 0.009921
H80   H     H_    0.464788 0.543504 0.380027 0.119082
N1    N     N_R   0.892620 0.603790 0.941770 -0.039192
N2    N     N_R   0.973690 0.529110 0.793240 -0.038159
N3    N     N_R   0.526310 0.029110 0.206760 -0.041271
N4    N     N_R   0.473690 0.029110 0.793240 -0.040649
N5    N     N_R   0.818570 0.472310 0.793020 -0.036175
N6    N     N_R   0.181430 0.472310 0.206980 -0.038023
N7    N     N_R   0.318570 0.972310 0.793020 -0.040070
N8    N     N_R   0.681430 0.972310 0.206980 -0.038244
N9    N     N_R   0.026930 0.472300 0.207330 -0.038553
N10   N     N_R   0.973070 0.472300 0.792670 -0.039561
N11   N     N_R   0.526930 0.972300 0.207330 -0.040199
N12   N     N_R   0.107380 0.603790 0.058230 -0.039847
N13   N     N_R   0.473070 0.972300 0.792670 -0.043239
N14   N     N_R   0.817960 0.529130 0.792460 -0.038074
N15   N     N_R   0.182040 0.529130 0.207540 -0.036777
N16   N     N_R   0.317960 0.029130 0.792460 -0.040117
N17   N     N_R   0.682040 0.029130 0.207540 -0.037964
N18   N     N_R   0.894850 0.397640 0.943830 -0.038381
N19   N     N_R   0.105150 0.397640 0.056170 -0.040738
N20   N     N_R   0.394850 0.897640 0.943830 -0.046733
N21   N     N_R   0.605150 0.897640 0.056170 -0.038848
N22   N     N_R   0.950040 0.603780 0.055950 -0.039511
N23   N     N_R   0.392620 0.103790 0.941770 -0.037500
N24   N     N_R   0.049960 0.603780 0.944050 -0.041177
N25   N     N_R   0.450040 0.103780 0.055950 -0.038347
N26   N     N_R   0.549960 0.103780 0.944050 -0.040806
N27   N     N_R   0.607380 0.103790 0.058230 -0.040174
N28   N     N_R   0.952270 0.397640 0.058010 -0.041234
N29   N     N_R   0.047730 0.397640 0.941990 -0.043558
N30   N     N_R   0.452270 0.897640 0.058010 -0.042040
N31   N     N_R   0.547730 0.897640 0.941990 -0.036393
N32   N     N_R   0.026310 0.529110 0.206760 -0.039277
Ni1   Ni    Ni4+2 0.934160 0.565860 0.869070 0.206881
Ni2   Ni    Ni4+2 0.065840 0.565860 0.130930 0.211011
Ni3   Ni    Ni4+2 0.434160 0.065860 0.869070 0.203913
Ni4   Ni    Ni4+2 0.565840 0.065860 0.130930 0.206270
Ni5   Ni    Ni4+2 0.067260 0.435560 0.132230 0.214443
Ni6   Ni    Ni4+2 0.932740 0.435560 0.867770 0.213614
Ni7   Ni    Ni4+2 0.567260 0.935560 0.132230 0.212011
Ni8   Ni    Ni4+2 0.432740 0.935560 0.867770 0.231488
O1    O     O_2   0.538573 0.342727 0.735565 -0.603908
O2    O     O_2   0.472413 0.349202 0.265259 -0.595929
O3    O     O_2   0.391192 0.747620 0.830322 -0.595959
O4    O     O_2   0.972402 0.849459 0.263702 -0.602654

loop_
_geom_bond_atom_site_label_1
_geom_bond_atom_site_label_2
_ccdc_geom_bond_type
N12   N24   A    
C44   C48   A    
C40   H23   S    
N15   Ni2   S    
C87   C91   A    
N2    N10   A    
C11   H70   S    
C76   H10   S    
C34   C42   S    
C16   C51   A    
N6    N15   A    
C20   C56   S    
C30   C34   S    
N21   Ni7   S    
N32   Ni2   S    
C97   C98   S    
N2    Ni1   S    
N11   Ni7   S    
C57   C62   A    
C39   C41   S    
C54   C65   A    
C30   H78   S    
C17   H75   S    
N31   Ni8   S    
C99   H33   S    
C18   H76   S    
C26   C27   S    
C29   N12   A    
N24   Ni1   S    
N9    N32   A    
C101  N32   A    
N7    Ni8   S    
N29   Ni6   S    
C32   C36   S    
C33   H73   S    
C109  H52   S    
C28   H67   S    
C82   H21   S    
C10   C15   A    
C102  N2    A    
C71   C76   S    
C76   H15   S    
C78   C80   S    
C42   H3    S    
C97   H40   S    
C112  H55   S    
C60   H39   S    
C2    C102  A    
C19   C55   S    
C49   C54   A    
C5    N19   A    
C57   H36   S    
C4    C62   A    
C10   H69   S    
C52   C95   S    
C61   H5    S    
C32   C39   S    
C37   C42   S    
C92   H27   S    
C59   N30   A    
C110  H53   S    
C5    H63   S    
C115  H59   S    
C10   N25   A    
C25   C37   S    
C91   C96   A    
C21   C104  A    
C105  N5    A    
C61   C66   A    
N22   Ni2   S    
C88   C92   A    
C101  H44   S    
C51   N27   A    
C28   C30   S    
C83   C98   S    
N19   Ni5   S    
C89   C106  S    
C24   C38   S    
C2    C88   S    
C16   C68   S    
N4    Ni3   S    
C45   C49   A    
C41   H2    S    
C13   C103  A    
C86   C100  S    
C20   H79   S    
C67   C71   A    
C77   H11   S    
C75   H14   S    
C8    C12   A    
C43   H4    S    
C4    H62   S    
C94   H29   S    
C81   H25   S    
C83   C88   A    
C107  H50   S    
C26   C31   S    
C13   C91   S    
C5    C73   A    
C97   H31   S    
C36   C41   S    
N18   Ni6   S    
C1    C12   A    
C11   N26   A    
C59   H38   S    
C90   C94   A    
C114  H58   S    
C87   C99   S    
C21   C90   S    
C77   C79   S    
C100  H35   S    
C48   C53   A    
C15   C69   S    
C12   C67   S    
C63   C67   A    
C2    C111  A    
C6    C84   A    
C32   H72   S    
C50   C84   S    
C33   C43   S    
C3    C25   A    
C4    N18   A    
C59   C84   A    
C51   H34   S    
C107  N6    A    
C21   C113  A    
C110  N9    A    
C104  N4    A    
C76   C82   S    
C108  N7    A    
N16   Ni3   S    
C7    H65   S    
C86   C87   A    
C75   C81   S    
C103  N3    A    
C27   C35   S    
C80   H24   S    
N8    Ni7   S    
C8    N22   A    
C33   C37   S    
N30   Ni7   S    
C30   C37   S    
C45   C74   A    
C75   H9    S    
C77   H16   S    
C7    N21   A    
C35   C39   S    
N28   Ni5   S    
C58   N29   A    
C104  H48   S    
C72   C77   S    
C58   H37   S    
C19   O3    D    
N23   N25   A    
C46   C81   S    
C11   C16   A    
C48   C62   S    
C99   C100  S    
C98   H41   S    
C28   C38   S    
C68   C72   A    
C23   C107  A    
N3    N11   A    
C14   C66   S    
C56   C63   A    
C69   C74   A    
C1    H1    S    
C94   C96   A    
N1    Ni1   S    
C80   H19   S    
C111  N10   A    
C47   C71   A    
N17   Ni4   S    
N18   N28   A    
C78   H13   S    
N21   N31   A    
C24   C108  A    
C9    N24   A    
C26   C36   S    
C83   C85   A    
C108  H51   S    
N26   Ni3   S    
C19   H77   S    
C23   C35   S    
C40   N23   A    
C86   C90   A    
N20   Ni8   S    
C49   C73   S    
N7    N16   A    
C99   H42   S    
C3    N17   A    
C42   C43   S    
C55   C61   A    
C14   C29   A    
N1    N22   A    
C64   H7    S    
C64   C68   A    
N5    N14   A    
C70   C75   S    
C63   H6    S    
C22   C36   S    
C102  H46   S    
C81   H20   S    
C113  H57   S    
C106  C110  A    
C8    H66   S    
C101  C106  A    
C79   H18   S    
C85   C89   A    
C31   C41   S    
C6    H64   S    
C27   C32   S    
C34   C38   S    
C47   C82   S    
C44   C79   S    
C1    N1    A    
N4    N13   A    
C112  N11   A    
N23   Ni3   S    
C34   H74   S    
N3    Ni4   S    
C28   C33   S    
C24   C116  A    
C47   C52   A    
C25   C109  A    
C13   C112  A    
C22   C105  A    
C7    C95   A    
C39   H80   S    
C46   C50   A    
C26   H45   S    
C103  H47   S    
C50   C55   A    
C115  N15   A    
N10   Ni6   S    
C111  H54   S    
C114  N14   A    
C17   C53   S    
N9    Ni5   S    
C3    H61   S    
N13   Ni8   S    
C113  N13   A    
C38   C43   S    
C116  N16   A    
C9    H68   S    
C20   O4    D    
N6    Ni5   S    
C100  H43   S    
N5    Ni6   S    
C66   C70   A    
C98   H32   S    
C65   C69   A    
N8    N17   A    
N25   Ni4   S    
C93   H28   S    
C92   C93   A    
C53   C64   A    
N14   Ni1   S    
C105  H49   S    
C9    C14   A    
C44   C72   A    
C45   C80   S    
C31   C35   S    
C60   N31   A    
C89   C93   A    
N26   N27   A    
C78   H17   S    
N20   N30   A    
C15   C40   A    
C46   C70   A    
C85   C97   S    
C18   C54   S    
C23   C115  A    
C82   H26   S    
C65   H8    S    
C60   C95   A    
C52   C56   A    
N27   Ni4   S    
C22   C114  A    
C79   H22   S    
C6    N20   A    
C74   C78   S    
C29   H12   S    
C31   H71   S    
C96   H30   S    
C116  H60   S    
N19   N29   A    
C27   H56   S    
C109  N8    A    
C18   O2    D    
C58   C73   A    
N12   Ni2   S    
C57   N28   A    
C17   O1    D    
