data_mof_unit_23311.cif
_audit_creation_date              2012-12-11T14:08:37-0500
_audit_creation_method            fapswitch 2.2
_symmetry_space_group_name_H-M    P1
_symmetry_Int_Tables_number       1
_space_group_crystal_system       triclinic
_cell_length_a                    28.275876
_cell_length_b                    7.189551
_cell_length_c                    17.465431
_cell_angle_alpha                 89.999618
_cell_angle_beta                  102.248216
_cell_angle_gamma                 89.999051
_cell_volume                      3469.74343665

loop_
_atom_site_label
_atom_site_type_symbol
_atom_type_description
_atom_site_fract_x
_atom_site_fract_y
_atom_site_fract_z
_atom_type_partial_charge
O1    O     O_R   0.000700 0.436510 0.857920 -0.526500
O2    O     O_R   0.999300 0.563490 0.142080 -0.524015
O3    O     O_R   0.999300 0.936510 0.642080 -0.526500
O4    O     O_R   0.000700 0.063490 0.357920 -0.524017
O5    O     O_R   0.930080 0.766380 0.721890 -0.544212
O6    O     O_R   0.069920 0.233620 0.278110 -0.538736
O7    O     O_R   0.069920 0.266380 0.778110 -0.544211
O8    O     O_R   0.930080 0.733620 0.221890 -0.538734
C1    C     C_R   0.910382 0.597000 0.709951 0.734393
C2    C     C_R   0.089521 0.402716 0.288667 0.696616
C3    C     C_R   0.089618 0.096997 0.790047 0.734389
C4    C     C_R   0.910479 0.902721 0.211337 0.696616
O9    O     O_R   0.996180 0.766230 0.862310 -0.551156
O10   O     O_R   0.003820 0.233770 0.137690 -0.535172
O11   O     O_R   0.003820 0.266230 0.637690 -0.551156
O12   O     O_R   0.996180 0.733770 0.362310 -0.535172
O13   O     O_R   0.065870 0.936460 0.783500 -0.533848
O14   O     O_R   0.934130 0.063540 0.216500 -0.542705
O15   O     O_R   0.934130 0.436460 0.716500 -0.533848
O16   O     O_R   0.065870 0.563540 0.283500 -0.542705
C5    C     C_R   0.996604 0.595268 0.893446 0.700598
C6    C     C_R   0.000469 0.403995 0.105511 0.690551
C7    C     C_R   0.003396 0.095268 0.606554 0.700592
C8    C     C_R   0.999531 0.903994 0.394489 0.690539
O17   O     O_3   0.022790 0.603020 0.723980 -0.380702
O18   O     O_3   0.977210 0.396980 0.276020 -0.362238
O19   O     O_3   0.977210 0.103020 0.776020 -0.380699
O20   O     O_3   0.022790 0.896980 0.223980 -0.362237
V1    V     V_3+5 0.995770 0.877900 0.754830 1.465604
V2    V     V_3+5 0.004230 0.122100 0.245170 1.479905
V3    V     V_3+5 0.004230 0.377900 0.745170 1.465600
V4    V     V_3+5 0.995770 0.622100 0.254830 1.479908
C9    C     C_2   0.009279 0.079042 0.523599 -0.211923
C10   C     C_2   0.999827 0.917376 0.479875 -0.266526
C11   C     C_2   0.990720 0.579042 0.976401 -0.211929
C12   C     C_2   0.000173 0.417376 0.020126 -0.266526
C13   C     C_R   0.685284 0.040510 0.028414 0.668449
C14   C     C_R   0.317486 0.032411 0.975301 0.640419
C15   C     C_R   0.314715 0.540438 0.471618 0.668335
C16   C     C_R   0.682512 0.532395 0.524672 0.640447
O21   O     O_2   0.715682 0.099414 0.983609 -0.483932
O22   O     O_2   0.287066 0.000854 0.023649 -0.486966
O23   O     O_2   0.284313 0.599231 0.516437 -0.483965
O24   O     O_2   0.712930 0.500798 0.476324 -0.486942
N1    N     N_R   0.704101 0.991257 0.104506 -0.547204
N2    N     N_R   0.298349 0.069447 0.897764 -0.539585
N3    N     N_R   0.295898 0.491167 0.395528 -0.547188
N4    N     N_R   0.701652 0.569460 0.602205 -0.539578
C17   C     C_R   0.674594 0.943686 0.154007 0.603575
C18   C     C_R   0.328047 0.095781 0.846133 0.638146
C19   C     C_R   0.325404 0.443577 0.346029 0.603573
C20   C     C_R   0.671956 0.595823 0.653836 0.638046
C21   C     C_R   0.781983 0.098645 0.187918 0.011595
C22   C     C_R   0.223610 0.239263 0.829448 0.010958
C23   C     C_R   0.218021 0.598591 0.312109 0.011571
C24   C     C_R   0.776389 0.739268 0.670526 0.010910
C25   C     C_R   0.831712 0.062977 0.221104 -0.011096
C26   C     C_R   0.173670 0.228824 0.791888 -0.024219
C27   C     C_R   0.168292 0.562945 0.278915 -0.011087
C28   C     C_R   0.826327 0.728833 0.708092 -0.024214
C29   C     C_R   0.828817 0.790489 0.135438 0.074693
C30   C     C_R   0.166985 0.936491 0.861129 0.083076
C31   C     C_R   0.171178 0.290454 0.364579 0.074679
C32   C     C_R   0.833019 0.436504 0.638853 0.083049
C33   C     C_R   0.779272 0.821638 0.107633 -0.091978
C34   C     C_R   0.217502 0.930362 0.882748 -0.050434
C35   C     C_R   0.220722 0.321583 0.392393 -0.091936
C36   C     C_R   0.782502 0.430378 0.617223 -0.050494
C37   C     C_R   0.755947 0.975009 0.131720 0.243883
C38   C     C_R   0.246128 0.081000 0.870109 0.250911
C39   C     C_R   0.244052 0.474944 0.368311 0.243908
C40   C     C_R   0.753874 0.581013 0.629860 0.250934
C41   C     C_R   0.603625 0.996772 0.050237 -0.055006
C42   C     C_R   0.399143 0.057006 0.951013 -0.057662
C43   C     C_R   0.396375 0.496746 0.449784 -0.054982
C44   C     C_R   0.600857 0.557032 0.548967 -0.057638
C45   C     C_R   0.634478 0.035562 0.998057 -0.096644
C46   C     C_R   0.368469 0.025729 0.004267 -0.087247
C47   C     C_R   0.365524 0.535597 0.501961 -0.096608
C48   C     C_R   0.631529 0.525715 0.495712 -0.087254
C49   C     C_R   0.613175 0.063462 0.917797 -0.016901
C50   C     C_R   0.390239 0.992483 0.084154 -0.012797
C51   C     C_R   0.386832 0.563679 0.582206 -0.016871
C52   C     C_R   0.609755 0.492432 0.415830 -0.012820
C53   C     C_R   0.624073 0.943839 0.127728 -0.058592
C54   C     C_R   0.378525 0.100536 0.872568 -0.057347
C55   C     C_R   0.375924 0.443737 0.372304 -0.058595
C56   C     C_R   0.621478 0.600605 0.627404 -0.057270
C57   C     C_R   0.856338 0.915940 0.190346 -0.059474
C58   C     C_R   0.143936 0.086052 0.813839 -0.077607
C59   C     C_R   0.143661 0.415917 0.309668 -0.059477
C60   C     C_R   0.856065 0.586061 0.686149 -0.077576
H1    H     H_    0.758040 0.724956 0.066584 0.161761
H2    H     H_    0.235023 0.809558 0.913389 0.160403
H3    H     H_    0.241950 0.224890 0.433443 0.161758
H4    H     H_    0.764985 0.309577 0.586578 0.160419
C61   C     C_R   0.480818 0.095839 0.923668 0.031510
C62   C     C_R   0.521900 0.954087 0.076352 0.032439
C63   C     C_R   0.519186 0.595936 0.576314 0.031520
C64   C     C_R   0.478098 0.454031 0.423661 0.032435
C65   C     C_R   0.471055 0.986305 0.053010 0.040112
C66   C     C_R   0.531881 0.067057 0.947619 0.038547
C67   C     C_R   0.528942 0.486266 0.446990 0.040108
C68   C     C_R   0.468123 0.567151 0.552377 0.038604
C69   C     C_R   0.450502 0.044494 0.975698 0.036803
C70   C     C_R   0.552307 0.008277 0.024993 0.037219
C71   C     C_R   0.549499 0.544521 0.524289 0.036799
C72   C     C_R   0.447693 0.508278 0.475017 0.037192
C73   C     C_R   0.458261 0.180446 0.850946 0.136938
C74   C     C_R   0.544058 0.863130 0.147803 0.136039
C75   C     C_R   0.541746 0.680613 0.649016 0.137003
C76   C     C_R   0.455939 0.363008 0.352228 0.136067
C77   C     C_R   0.408318 0.162216 0.823372 -0.096943
C78   C     C_R   0.594047 0.876649 0.175471 -0.099421
C79   C     C_R   0.591689 0.662361 0.676593 -0.096926
C80   C     C_R   0.405949 0.376501 0.324567 -0.099457
O25   O     O_2   0.308754 0.117473 0.769108 -0.504864
O26   O     O_2   0.694220 0.895388 0.228584 -0.502929
O27   O     O_2   0.691250 0.617510 0.730861 -0.505044
O28   O     O_2   0.305777 0.395252 0.271456 -0.502959
C81   C     C_R   0.562788 0.075666 0.894216 -0.228766
C82   C     C_R   0.440546 0.978431 0.106890 -0.230867
C83   C     C_R   0.437218 0.575879 0.605781 -0.228767
C84   C     C_R   0.559447 0.478352 0.393104 -0.230871
H5    H     H_    0.392232 0.215627 0.765641 0.179792
H6    H     H_    0.609789 0.817991 0.232277 0.189342
H7    H     H_    0.607778 0.715824 0.734312 0.179649
H8    H     H_    0.390206 0.317792 0.267771 0.189327
H9    H     H_    0.547870 0.081027 0.832212 0.153905
H10   H     H_    0.455745 0.969259 0.168770 0.150341
H11   H     H_    0.452134 0.581366 0.667784 0.153776
H12   H     H_    0.544244 0.469141 0.331227 0.150366
C85   C     C_2   0.035366 0.235848 0.496912 0.750668
O29   O     O_2   0.078004 0.260088 0.527362 -0.581107
O30   O     O_R   0.011460 0.360336 0.440802 -0.614723
H13   H     H_    0.034853 0.452977 0.425703 0.304026
C86   C     C_2   0.997569 0.736891 0.518618 0.839598
O31   O     O_2   0.959612 0.649992 0.509345 -0.549303
O32   O     O_R   0.040255 0.666624 0.564779 -0.646651
H14   H     H_    0.035585 0.542266 0.588554 0.324313
C87   C     C_2   0.964634 0.735849 0.003087 0.750679
O33   O     O_2   0.921994 0.760087 0.972641 -0.581098
O34   O     O_R   0.988539 0.860339 0.059195 -0.614727
H15   H     H_    0.965146 0.952982 0.074294 0.304028
C88   C     C_2   0.002433 0.236892 0.981383 0.839601
O35   O     O_2   0.040391 0.149993 0.990656 -0.549300
O36   O     O_R   0.959748 0.166624 0.935224 -0.646653
H16   H     H_    0.964418 0.042268 0.911448 0.324311
C89   C     C_3   0.850851 0.621122 0.105754 -0.659203
H17   H     H_    0.824775 0.548320 0.058768 0.221650
H18   H     H_    0.882370 0.661650 0.081361 0.226678
H19   H     H_    0.862426 0.520661 0.154336 0.198503
C90   C     C_3   0.139414 0.782554 0.891437 -0.671156
H20   H     H_    0.163631 0.691804 0.934172 0.202303
H21   H     H_    0.112391 0.842706 0.922190 0.220280
H22   H     H_    0.121233 0.692063 0.842620 0.208344
C91   C     C_3   0.149139 0.121090 0.394255 -0.659204
H23   H     H_    0.175211 0.048283 0.441248 0.221640
H24   H     H_    0.117617 0.161624 0.418639 0.226677
H25   H     H_    0.137568 0.020634 0.345672 0.198502
C92   C     C_3   0.860594 0.282569 0.608550 -0.671177
H26   H     H_    0.836381 0.191823 0.565810 0.202307
H27   H     H_    0.887621 0.342722 0.577804 0.220292
H28   H     H_    0.878773 0.192070 0.657368 0.208339
C93   C     C_2   0.641186 0.064359 0.855011 0.845742
O37   O     O_2   0.632712 0.181776 0.803206 -0.547111
O38   O     O_R   0.675471 0.925521 0.852812 -0.620407
H29   H     H_    0.691992 0.941426 0.807133 0.351058
C94   C     C_2   0.362907 0.973301 0.147325 0.851675
O39   O     O_2   0.369348 0.836669 0.190025 -0.546274
O40   O     O_R   0.331660 0.114436 0.160540 -0.605115
H30   H     H_    0.314597 0.081765 0.204233 0.344008
C95   C     C_2   0.358823 0.564887 0.644990 0.845829
O41   O     O_2   0.367217 0.682800 0.696599 -0.546921
O42   O     O_R   0.324627 0.425837 0.647403 -0.620435
H31   H     H_    0.308104 0.441961 0.693066 0.350940
C96   C     C_2   0.637082 0.473273 0.352650 0.851683
O43   O     O_2   0.630628 0.336681 0.309929 -0.546306
O44   O     O_R   0.668333 0.614398 0.339445 -0.605109
H32   H     H_    0.685384 0.581761 0.295735 0.343969
C97   C     C_3   0.153760 0.359354 0.724554 -0.562269
H33   H     H_    0.179669 0.370638 0.685113 0.247795
H34   H     H_    0.120314 0.305789 0.685952 0.205254
H35   H     H_    0.146844 0.498874 0.746909 0.208669
C98   C     C_3   0.857098 0.176989 0.291039 -0.620670
H36   H     H_    0.836308 0.170281 0.338120 0.241052
H37   H     H_    0.893260 0.123403 0.319300 0.197634
H38   H     H_    0.860518 0.323904 0.273461 0.203599
C99   C     C_3   0.846232 0.859383 0.775420 -0.562352
H39   H     H_    0.820323 0.870645 0.814865 0.247786
H40   H     H_    0.879681 0.805850 0.814024 0.205269
H41   H     H_    0.853136 0.998911 0.753061 0.208654
C100  C     C_3   0.142912 0.676966 0.208977 -0.620671
H42   H     H_    0.163706 0.670245 0.161901 0.241058
H43   H     H_    0.106750 0.623397 0.180712 0.197630
H44   H     H_    0.139494 0.823883 0.226553 0.203600
C101  C     C_2   0.251761 0.416830 0.832105 0.779707
O45   O     O_2   0.241988 0.532242 0.779785 -0.554534
O46   O     O_R   0.289157 0.454250 0.896743 -0.655616
H45   H     H_    0.305568 0.578045 0.892327 0.298636
C102  C     C_2   0.756653 0.267134 0.208579 0.827724
O47   O     O_2   0.759798 0.312260 0.276932 -0.526929
O48   O     O_R   0.728112 0.372488 0.148846 -0.659520
H46   H     H_    0.712538 0.483433 0.169506 0.297233
C103  C     C_2   0.748235 0.916825 0.667870 0.779784
O49   O     O_2   0.757981 0.032165 0.720222 -0.554502
O50   O     O_R   0.710866 0.954319 0.603202 -0.655586
H47   H     H_    0.694451 0.078103 0.607624 0.298689
C104  C     C_2   0.243356 0.767066 0.291451 0.827706
O51   O     O_2   0.240214 0.812198 0.223099 -0.526941
O52   O     O_R   0.271901 0.872401 0.351185 -0.659534
H48   H     H_    0.287479 0.983336 0.330527 0.297254
C105  C     C_3   0.482818 0.321022 0.807988 -0.789865
H49   H     H_    0.459165 0.444885 0.793215 0.212909
H50   H     H_    0.516859 0.375477 0.844708 0.232756
H51   H     H_    0.489289 0.260626 0.752586 0.214827
C106  C     C_3   0.518760 0.721114 0.188974 -0.788693
H52   H     H_    0.541725 0.594923 0.202271 0.209851
H53   H     H_    0.512613 0.778374 0.245117 0.215605
H54   H     H_    0.484397 0.671256 0.151618 0.234876
C107  C     C_3   0.517196 0.821288 0.691940 -0.789969
H55   H     H_    0.540854 0.945148 0.706676 0.213114
H56   H     H_    0.483157 0.875725 0.655208 0.232759
H57   H     H_    0.510726 0.760989 0.747360 0.214760
C108  C     C_3   0.481238 0.220970 0.311069 -0.788714
H58   H     H_    0.458277 0.094769 0.297786 0.209849
H59   H     H_    0.487382 0.278200 0.254919 0.215603
H60   H     H_    0.515604 0.171136 0.348428 0.234877

loop_
_geom_bond_atom_site_label_1
_geom_bond_atom_site_label_2
_ccdc_geom_bond_type
O17   V3    S    
C47   C51   A    
O48   H46   S    
O1    C5    A    
C93   O37   D    
C62   C74   A    
C23   C27   A    
O19   V1    S    
C18   O25   S    
O13   V1    S    
C102  O47   D    
O3    C7    A    
O36   H16   S    
C76   C80   A    
O40   H30   S    
O4    V2    S    
C21   C37   A    
C31   C91   S    
C88   O35   D    
C102  O48   S    
C89   H17   S    
O30   H13   S    
C68   C83   A    
C95   O41   D    
C27   C100  S    
C106  H54   S    
O7    C3    A    
C86   O32   S    
C36   H4    S    
C22   C101  S    
C25   C57   A    
C54   C77   A    
C32   C36   A    
O9    V1    S    
C53   C78   A    
O10   V2    S    
C14   O22   S    
C107  H57   S    
C73   C105  S    
C89   H18   S    
C22   C26   A    
C78   H6    S    
C33   C37   A    
C105  H51   S    
C77   H5    S    
C101  O45   D    
O34   H15   S    
C97   H33   S    
O1    V3    S    
C108  H60   S    
C79   H7    S    
C84   H12   S    
O2    V4    S    
C94   O39   D    
O3    V1    S    
C74   C106  S    
C88   O36   S    
C1    O15   A    
C91   H23   S    
C24   C103  S    
C11   C12   D    
C2    O16   A    
C28   C99   S    
C24   C40   A    
O2    C6    A    
C16   C48   A    
O14   V2    S    
C75   C79   A    
N1    C17   A    
C90   H21   S    
C66   C81   A    
C44   C56   A    
C106  H53   S    
C25   C98   S    
C61   C66   A    
C100  H42   S    
C73   C77   A    
C34   H2    S    
C61   C69   A    
C28   C60   A    
O11   C7    A    
C63   C68   A    
C50   C94   S    
O15   V3    S    
O46   H45   S    
O12   C8    A    
C35   H3    S    
C94   O40   S    
C31   C59   A    
C99   H39   S    
N4    C40   S    
C67   C84   A    
C1    C60   S    
C92   H27   S    
C29   C57   A    
C92   H26   S    
O5    V1    S    
C95   O42   S    
C65   C69   A    
C31   C35   A    
C64   C72   A    
O7    V3    S    
C30   C34   A    
N1    C37   S    
C48   C52   A    
O8    V4    S    
C17   C53   A    
C4    C57   S    
C20   C56   A    
C104  O51   D    
C97   H34   S    
C19   C55   A    
O38   H29   S    
C21   C25   A    
O18   V4    S    
C98   H38   S    
N3    C19   A    
C14   C46   A    
C100  H43   S    
C106  H52   S    
C105  H49   S    
C13   C45   A    
C64   C67   A    
C8    C10   S    
C20   O27   S    
O50   H47   S    
C49   C81   A    
C36   C40   A    
C87   O34   S    
C15   C47   A    
C91   H24   S    
C99   H41   S    
N2    C38   S    
O5    C1    A    
C107  H55   S    
C104  O52   S    
C29   C33   A    
C23   C104  S    
C61   C73   A    
C50   C82   A    
C46   C50   A    
C19   O28   S    
O52   H48   S    
C22   C38   A    
C45   C49   A    
O8    C4    A    
C100  H44   S    
C63   C75   A    
C83   H11   S    
C9    C10   D    
O9    C5    A    
C27   C59   A    
C42   C54   A    
C90   H22   S    
C26   C58   A    
C41   C53   A    
C55   C80   A    
C11   C87   S    
C103  O49   D    
C43   C55   A    
O6    V2    S    
C2    C59   S    
C64   C76   A    
C44   C71   A    
C51   C95   S    
C80   H8    S    
C85   O29   D    
C89   H19   S    
C52   C84   A    
N3    C39   S    
C13   N1    A    
C68   C72   A    
C92   H28   S    
C6    C12   S    
C15   N3    A    
O16   V4    S    
C97   H35   S    
C43   C72   A    
C16   N4    A    
C74   C78   A    
C3    O13   A    
C49   C93   S    
C76   C108  S    
C108  H58   S    
C9    C85   S    
C44   C48   A    
C81   H9    S    
C32   C92   S    
O6    C2    A    
C7    C9    S    
C15   O23   S    
O32   H14   S    
O11   V3    S    
C5    C11   S    
C91   H25   S    
O12   V4    S    
C62   C65   A    
C63   C71   A    
C86   O31   D    
N2    C18   A    
C10   C86   S    
C98   H36   S    
C65   C82   A    
C62   C70   A    
C30   C90   S    
O10   C6    A    
C56   C79   A    
C101  O46   S    
C105  H50   S    
C107  H56   S    
O42   H31   S    
C87   O33   D    
C42   C69   A    
C26   C97   S    
C3    C58   S    
C41   C70   A    
C34   C38   A    
C43   C47   A    
O4    C8    A    
C30   C58   A    
O20   V2    S    
C33   H1    S    
C108  H59   S    
C96   O44   S    
C66   C70   A    
C35   C39   A    
C13   O21   S    
C52   C96   S    
C21   C102  S    
C14   N2    A    
C98   H37   S    
C18   C54   A    
O44   H32   S    
C17   O26   S    
C24   C28   A    
C12   C88   S    
C16   O24   S    
C93   O38   S    
C96   O43   D    
C42   C46   A    
C75   C107  S    
C4    O14   A    
C85   O30   S    
C41   C45   A    
C67   C71   A    
C32   C60   A    
C51   C83   A    
C90   H20   S    
N4    C20   A    
C103  O50   S    
C29   C89   S    
C82   H10   S    
C23   C39   A    
C99   H40   S    
