data_mof_unit_63286.cif
_audit_creation_date              2012-12-11T15:47:28-0500
_audit_creation_method            fapswitch 2.2
_symmetry_space_group_name_H-M    P1
_symmetry_Int_Tables_number       1
_space_group_crystal_system       triclinic
_cell_length_a                    19.01904
_cell_length_b                    18.988044
_cell_length_c                    19.025618
_cell_angle_alpha                 109.205217
_cell_angle_beta                  106.653807
_cell_angle_gamma                 109.749672
_cell_volume                      5461.14792019

loop_
_atom_site_label
_atom_site_type_symbol
_atom_type_description
_atom_site_fract_x
_atom_site_fract_y
_atom_site_fract_z
_atom_type_partial_charge
C1    C     C_R   0.008486 0.065726 0.736012 -0.134578
C2    C     C_3   0.463873 0.450654 0.007481 -0.150997
C3    C     C_3   0.497140 0.360751 0.037810 -0.155063
C4    C     C_3   0.549347 0.494426 0.009729 -0.149587
C5    C     C_1   0.318304 0.264538 0.819537 -0.041427
C6    C     C_1   0.711030 0.640239 0.210289 -0.046996
C7    C     C_3   0.542009 0.407826 0.959433 -0.156465
C8    C     C_3   0.505209 0.448345 0.088581 -0.156306
C9    C     C_3   0.457002 0.364605 0.957796 0.214917
C10   C     C_3   0.590198 0.491631 0.090193 0.215138
C11   C     C_1   0.381289 0.304804 0.882534 -0.077848
C12   C     C_R   0.983339 0.933134 0.262158 -0.128223
C13   C     C_1   0.659109 0.570056 0.158537 -0.078680
C14   C     C_1   0.324192 0.996747 0.480903 -0.052343
C15   C     C_1   0.671995 0.001712 0.504334 -0.051201
C16   C     C_R   0.170193 0.928143 0.444521 -0.127414
C17   C     C_R   0.828207 0.071275 0.550528 -0.128211
C18   C     C_1   0.388611 0.997101 0.483431 -0.000607
C19   C     C_1   0.606906 0.001112 0.499337 -0.000449
C20   C     C_1   0.464908 0.998371 0.488216 -0.009432
C21   C     C_1   0.530244 0.999706 0.493157 -0.009422
C22   C     C_1   0.009201 0.336677 0.508848 -0.051493
C23   C     C_R   0.248534 0.997758 0.480617 0.094024
C24   C     C_1   0.991316 0.663722 0.491638 -0.051637
C25   C     C_1   0.006197 0.398117 0.505908 -0.000674
C26   C     C_1   0.994393 0.602332 0.494646 -0.000646
C27   C     C_1   0.002127 0.469722 0.502017 -0.009177
C28   C     C_1   0.998501 0.530754 0.498571 -0.009202
C29   C     C_1   0.978676 0.992806 0.821726 -0.051851
C30   C     C_1   0.008221 0.005469 0.174795 -0.050923
C31   C     C_1   0.982395 0.994194 0.886993 -0.000482
C32   C     C_1   0.002529 0.003827 0.108989 -0.000431
C33   C     C_1   0.988794 0.997379 0.964637 -0.009541
C34   C     C_R   0.749003 0.001179 0.509324 0.091773
C35   C     C_1   0.995048 0.000506 0.031061 -0.009563
C36   C     C_R   0.946343 0.776544 0.519216 -0.129958
C37   C     C_R   0.053899 0.223651 0.481034 -0.130547
C38   C     C_R   0.238954 0.199577 0.666551 -0.130631
C39   C     C_R   0.769379 0.770711 0.341776 -0.134860
C40   C     C_R   0.020429 0.777882 0.447790 -0.130035
C41   C     C_R   0.979887 0.222363 0.552488 -0.130641
C42   C     C_R   0.164885 0.198503 0.738201 -0.131571
C43   C     C_R   0.843319 0.771922 0.270268 -0.136025
C44   C     C_R   0.239309 0.069316 0.511672 -0.135809
C45   C     C_R   0.988491 0.737421 0.488725 0.093989
C46   C     C_R   0.758799 0.929658 0.479702 -0.128797
C47   C     C_R   0.941489 0.924692 0.667182 -0.127241
C48   C     C_R   0.054109 0.074650 0.331312 -0.127896
C49   C     C_R   0.977556 0.993886 0.745502 0.092515
C50   C     C_R   0.013281 0.004911 0.252170 0.090458
C51   C     C_R   0.011867 0.262865 0.511613 0.093185
C52   C     C_R   0.244285 0.222893 0.745061 0.097943
C53   C     C_R   0.768744 0.725839 0.268196 0.102906
C54   C     C_3   0.584264 0.405863 0.041137 -0.156846
H1    H     H_    0.030211 0.129800 0.781706 0.094932
H2    H     H_    0.093499 0.244479 0.453275 0.096492
H3    H     H_    0.290295 0.212190 0.650722 0.099007
H4    H     H_    0.726678 0.747164 0.365804 0.095503
H5    H     H_    0.049650 0.758479 0.409585 0.096135
H6    H     H_    0.951013 0.242028 0.590983 0.096509
H7    H     H_    0.147971 0.210359 0.788646 0.099033
H8    H     H_    0.868405 0.749427 0.228602 0.095907
H9    H     H_    0.285227 0.133684 0.533490 0.095043
H10   H     H_    0.711236 0.864212 0.450289 0.099218
H11   H     H_    0.474028 0.304311 0.047444 0.118402
H12   H     H_    0.954003 0.867860 0.214850 0.099136
H13   H     H_    0.571589 0.550308 0.999044 0.118218
H14   H     H_    0.903957 0.859100 0.650106 0.095852
H15   H     H_    0.090833 0.140027 0.347233 0.096737
H16   H     H_    0.635221 0.389175 0.056734 0.117798
H17   H     H_    0.413528 0.468340 0.992667 0.117494
H18   H     H_    0.491548 0.466332 0.142865 0.116582
H19   H     H_    0.555636 0.389966 0.905110 0.117079
H20   H     H_    0.153021 0.862823 0.406758 0.095843
H21   H     H_    0.844095 0.136391 0.587213 0.096793
H22   H     H_    0.906949 0.755880 0.547216 0.096012
N1    N     N_R   0.996890 0.041250 0.656740 -0.040511
N2    N     N_R   0.999280 0.159070 0.543360 -0.041493
N3    N     N_R   0.112670 0.157030 0.656740 -0.041828
N4    N     N_R   0.887330 0.842970 0.343260 -0.040558
N5    N     N_R   0.159720 0.044030 0.499880 -0.040345
N6    N     N_R   0.840280 0.955970 0.500120 -0.041991
N7    N     N_R   0.953670 0.953920 0.613510 -0.041121
N8    N     N_R   0.046330 0.046080 0.386490 -0.041515
N9    N     N_R   0.003110 0.958750 0.343260 -0.042098
N10   N     N_R   0.116500 0.956710 0.456640 -0.041110
N11   N     N_R   0.883500 0.043290 0.543360 -0.041567
N12   N     N_R   0.955840 0.840160 0.499880 -0.040849
N13   N     N_R   0.044160 0.159840 0.500120 -0.041408
N14   N     N_R   0.157540 0.157800 0.613510 -0.041860
N15   N     N_R   0.842460 0.842200 0.386490 -0.040549
N16   N     N_R   0.000720 0.840930 0.456640 -0.040951
Ni1   Ni    Ni4+2 0.998100 0.099260 0.599150 0.213533
Ni2   Ni    Ni4+2 0.001900 0.900740 0.400850 0.211883
Ni3   Ni    Ni4+2 0.898980 0.898980 0.500000 0.211906
Ni4   Ni    Ni4+2 0.101020 0.101020 0.500000 0.213592

loop_
_geom_bond_atom_site_label_1
_geom_bond_atom_site_label_2
_ccdc_geom_bond_type
C1    N1    A    
C14   C18   T    
C48   H15   S    
C47   C49   A    
C29   C49   S    
C36   N12   A    
C15   C19   T    
C12   N9    A    
C16   H20   S    
C24   C45   S    
C19   C21   S    
C24   C26   T    
C4    C10   S    
C5    C11   T    
C37   C51   A    
C3    C54   S    
C38   C52   A    
N1    N7    A    
N2    Ni1   S    
N6    N11   A    
N8    Ni4   S    
N3    N14   A    
N10   Ni2   S    
C46   N6    A    
C37   H2    S    
C43   C53   A    
N12   N16   A    
C22   C25   T    
C31   C33   S    
C5    C52   S    
C34   C46   A    
C47   N7    A    
C36   H22   S    
C15   C34   S    
N5    N10   A    
C48   C50   A    
C30   C50   S    
N12   Ni3   S    
C42   N3    A    
C44   H9    S    
C40   H5    S    
C16   N10   A    
C3    H11   S    
C4    C7    S    
C39   N15   A    
N2    N13   A    
C40   C45   A    
C8    H18   S    
C32   C35   S    
N8    N9    A    
C7    H19   S    
C44   N5    A    
C41   N2    A    
N5    Ni4   S    
C43   N4    A    
C39   H4    S    
C12   H12   S    
C23   C44   A    
C48   N8    A    
C46   H10   S    
C14   C23   S    
C2    C4    S    
C3    C9    S    
C38   H3    S    
N9    Ni2   S    
C54   H16   S    
N7    Ni3   S    
N16   Ni2   S    
C36   C45   A    
C40   N16   A    
N14   Ni4   S    
C9    C11   S    
C42   H7    S    
C3    C8    S    
C16   C23   A    
C17   C34   A    
C6    C53   S    
N4    Ni2   S    
C2    H17   S    
C47   H14   S    
C7    C9    S    
N6    Ni3   S    
C17   N11   A    
C2    C8    S    
C41   H6    S    
C10   C13   S    
C4    H13   S    
C12   C50   A    
N3    Ni1   S    
C25   C27   S    
C38   N14   A    
C26   C28   S    
C37   N13   A    
N4    N15   A    
C1    H1    S    
C29   C31   T    
C6    C13   T    
C30   C32   T    
C39   C53   A    
N13   Ni4   S    
N11   Ni1   S    
N1    Ni1   S    
C33   C35   T    
C18   C20   S    
C10   C54   S    
N15   Ni3   S    
C20   C21   T    
C8    C10   S    
C27   C28   T    
C17   H21   S    
C7    C54   S    
C2    C9    S    
C1    C49   A    
C41   C51   A    
C43   H8    S    
C42   C52   A    
C22   C51   S    
