data_mof_unit_44096.cif
_audit_creation_date              2012-10-26T19:42:39-0400
_audit_creation_method            fapswitch 2.2
_symmetry_space_group_name_H-M    P1
_symmetry_Int_Tables_number       1
_space_group_crystal_system       triclinic
_cell_length_a                    19.338301
_cell_length_b                    10.772916
_cell_length_c                    9.610792
_cell_angle_alpha                 90.062069
_cell_angle_beta                  90.018452
_cell_angle_gamma                 92.423843
_cell_volume                      2000.4226055

loop_
_atom_site_label
_atom_site_type_symbol
_atom_type_description
_atom_site_fract_x
_atom_site_fract_y
_atom_site_fract_z
_atom_type_partial_charge
C1    C     C_R   0.498855 0.262858 0.499893 0.534577
C2    C     C_R   0.854133 0.513769 0.498092 0.035961
C3    C     C_R   0.376597 0.119042 0.590082 -0.097696
C4    C     C_R   0.367603 0.496246 0.499995 0.514859
C5    C     C_R   0.318279 0.048880 0.633109 -0.106537
C6    C     C_R   0.318865 0.919775 0.632886 -0.109595
C7    C     C_R   0.377815 0.860170 0.589850 -0.089443
C8    C     C_R   0.437826 0.929365 0.546609 0.001303
C9    C     C_R   0.436972 0.060374 0.546544 0.009282
C10   C     C_R   0.496032 0.129067 0.499603 -0.044194
C11   C     C_R   0.554370 0.070356 0.452464 -0.072655
C12   C     C_R   0.291524 0.492434 0.500251 0.002770
C13   C     C_R   0.557054 0.942301 0.455721 0.214511
C14   C     C_R   0.498256 0.871149 0.501390 0.003118
C15   C     C_R   0.592144 0.664412 0.143818 -0.072912
C16   C     C_R   0.499756 0.737151 0.500193 0.515217
C17   C     C_R   0.637250 0.744754 0.071927 -0.151977
C18   C     C_R   0.637163 0.744998 0.928571 -0.174450
C19   C     C_R   0.591990 0.664867 0.856300 -0.086938
C20   C     C_R   0.545193 0.581004 0.925286 0.157938
C21   C     C_R   0.545228 0.580859 0.074742 0.151922
C22   C     C_R   0.456960 0.422986 0.073728 0.016203
C23   C     C_R   0.930344 0.514701 0.497397 0.346072
C24   C     C_R   0.456984 0.422996 0.925912 0.008903
C25   C     C_R   0.632470 0.501409 0.499951 0.525485
C26   C     C_R   0.257363 0.554249 0.607078 -0.173355
C27   C     C_R   0.185600 0.560163 0.606407 -0.134325
C28   C     C_R   0.146498 0.505116 0.498173 -0.015453
C29   C     C_R   0.180352 0.441950 0.391967 -0.046973
C30   C     C_R   0.252062 0.431891 0.393652 0.236057
C31   C     C_R   0.070499 0.510616 0.497373 0.345094
C32   C     C_R   0.817832 0.527197 0.623411 -0.113020
C33   C     C_R   0.745679 0.522713 0.624220 -0.131143
C34   C     C_R   0.708574 0.505581 0.499586 0.013171
C35   C     C_R   0.744850 0.493701 0.374108 -0.129563
C36   C     C_R   0.816929 0.497264 0.373445 -0.112791
Cu1   Cu    Cu3+1 0.500000 0.499990 0.640660 0.921156
Cu2   Cu    Cu3+1 0.500000 0.500010 0.359340 0.940942
H1    H     H_    0.286344 0.600281 0.690207 0.134338
H2    H     H_    0.596260 0.672953 0.746659 0.181904
H3    H     H_    0.160883 0.609378 0.689795 0.151611
H4    H     H_    0.421713 0.359773 0.870682 0.123898
H5    H     H_    0.150924 0.396196 0.309273 0.166455
H6    H     H_    0.845077 0.539815 0.721190 0.140513
H7    H     H_    0.719059 0.532907 0.722438 0.131701
H8    H     H_    0.717615 0.480926 0.276296 0.135664
H9    H     H_    0.843435 0.487248 0.275097 0.141106
H10   H     H_    0.599377 0.125074 0.417213 0.152690
H11   H     H_    0.620105 0.805294 0.450393 0.312399
H12   H     H_    0.373646 0.219113 0.589933 0.115427
H13   H     H_    0.323299 0.324234 0.329316 0.326728
H14   H     H_    0.272317 0.094871 0.665891 0.126548
H15   H     H_    0.273351 0.865497 0.665546 0.119048
H16   H     H_    0.375621 0.759826 0.589988 0.133942
H17   H     H_    0.421687 0.359746 0.128665 0.137502
H18   H     H_    0.596426 0.671952 0.253284 0.191794
H19   H     H_    0.672521 0.807386 0.128202 0.162169
H20   H     H_    0.672376 0.807808 0.872592 0.134760
N1    N     N_R   0.033606 0.476743 0.382329 -0.225376
N2    N     N_R   0.964918 0.478938 0.382267 -0.222830
N3    N     N_R   0.967228 0.549040 0.612367 -0.224422
N4    N     N_R   0.035979 0.547253 0.612277 -0.218767
N5    N     N_R   0.500660 0.501210 0.147910 -0.245415
N6    N     N_R   0.500680 0.501290 0.852040 -0.243377
O1    O     O_R   0.499990 0.319640 0.618810 -0.492186
O2    O     O_3   0.280775 0.359833 0.291829 -0.697170
O3    O     O_R   0.500000 0.319660 0.381240 -0.501055
O4    O     O_R   0.400140 0.499970 0.618820 -0.513091
O5    O     O_R   0.400150 0.500000 0.381250 -0.478007
O6    O     O_R   0.500000 0.680340 0.618760 -0.524826
O7    O     O_R   0.500010 0.680360 0.381190 -0.504053
O8    O     O_R   0.599850 0.500000 0.618750 -0.518966
O9    O     O_R   0.599860 0.500030 0.381180 -0.527546
O10   O     O_3   0.618450 0.891518 0.415770 -0.714632

loop_
_geom_bond_atom_site_label_1
_geom_bond_atom_site_label_2
_ccdc_geom_bond_type
C24   H4    S    
C19   C20   A    
C22   H17   S    
C7    C8    A    
C26   C27   A    
C29   C30   A    
C28   C29   A    
C18   C19   A    
C5    C6    A    
C26   H1    S    
Cu1   O4    S    
C33   H7    S    
C36   H9    S    
C2    C32   A    
C34   C35   A    
C31   N1    A    
C22   N5    A    
C18   H20   S    
C35   C36   A    
C8    C9    A    
Cu1   O1    S    
C1    O1    A    
C5    H14   S    
C14   C16   S    
C4    C12   S    
C9    C10   A    
C25   C34   S    
Cu2   O5    S    
N1    N2    A    
C24   N6    A    
Cu1   O6    S    
C29   H5    S    
C31   N4    A    
C11   H10   S    
C16   O7    A    
C4    O5    A    
C3    H12   S    
C33   C34   A    
C23   N2    A    
C16   O6    A    
C19   H2    S    
C4    O4    A    
C12   C26   A    
H13   O2    S    
C20   N6    A    
Cu1   Cu2   S    
C3    C9    A    
C27   H3    S    
C23   N3    A    
C20   C21   A    
C17   C18   A    
C32   H6    S    
C25   O8    A    
Cu2   O3    S    
C30   O2    S    
C22   C24   A    
C6    H15   S    
C2    C23   S    
Cu1   N6    S    
Cu2   N5    S    
C2    C36   A    
C15   C17   A    
Cu2   O7    S    
C8    C14   A    
C12   C30   A    
C28   C31   S    
C1    C10   S    
C3    C5    A    
C6    C7    A    
C32   C33   A    
C15   H18   S    
C11   C13   A    
C1    O3    A    
C25   O9    A    
N3    N4    A    
C21   N5    A    
C10   C11   A    
C15   C21   A    
C13   O10   S    
Cu1   O8    S    
C27   C28   A    
H11   O10   S    
C7    H16   S    
C13   C14   A    
C35   H8    S    
C17   H19   S    
Cu2   O9    S    
