data_mof_unit_14261.cif
_audit_creation_date              2012-12-10T18:42:30-0500
_audit_creation_method            fapswitch 2.2
_symmetry_space_group_name_H-M    P1
_symmetry_Int_Tables_number       1
_space_group_crystal_system       triclinic
_cell_length_a                    8.592064
_cell_length_b                    10.751412
_cell_length_c                    9.900996
_cell_angle_alpha                 89.320865
_cell_angle_beta                  97.908296
_cell_angle_gamma                 90.835689
_cell_volume                      905.7829286

loop_
_atom_site_label
_atom_site_type_symbol
_atom_type_description
_atom_site_fract_x
_atom_site_fract_y
_atom_site_fract_z
_atom_type_partial_charge
C1    C     C_R   0.503365 0.260210 0.501425 0.878881
C2    C     C_R   0.496633 0.739790 0.498575 0.878875
C3    C     C_R   0.201551 0.499101 0.464684 0.965146
C4    C     C_R   0.798449 0.500899 0.535316 0.965152
C5    C     C_2   0.036858 0.494193 0.445906 -0.359665
C6    C     C_2   0.963142 0.505808 0.554093 -0.359657
C7    C     C_R   0.451460 0.067743 0.381125 -0.260578
C8    C     C_R   0.548532 0.932257 0.618874 -0.260574
C9    C     C_R   0.444913 0.940182 0.375814 0.002029
C10   C     C_R   0.555081 0.059817 0.624184 0.002027
C11   C     C_R   0.494539 0.872396 0.496528 -0.059529
C12   C     C_R   0.505454 0.127604 0.503471 -0.059528
C13   C     C_R   0.620985 0.554714 0.083205 0.080555
C14   C     C_R   0.379015 0.445287 0.916795 0.080551
C15   C     C_R   0.620824 0.552870 0.940251 -0.188277
C16   C     C_R   0.379175 0.447130 0.059749 -0.188291
H1    H     H_    0.976733 0.478916 0.343473 0.159753
H2    H     H_    0.023267 0.521086 0.656526 0.159755
H3    H     H_    0.410329 0.120350 0.289310 0.156044
H4    H     H_    0.589667 0.879650 0.710689 0.156044
H5    H     H_    0.716395 0.596031 0.895252 0.127338
H6    H     H_    0.283604 0.403970 0.104748 0.127338
N1    N     N_R   0.499960 0.499970 0.857200 -0.083148
N2    N     N_R   0.500040 0.500030 0.142800 -0.083147
O1    O     O_R   0.499990 0.316750 0.614620 -0.552169
O2    O     O_R   0.500010 0.683250 0.385380 -0.552169
O3    O     O_R   0.499990 0.316780 0.385290 -0.647373
O4    O     O_R   0.500010 0.683220 0.614710 -0.647373
O5    O     O_R   0.271750 0.499990 0.587840 -0.593401
O6    O     O_R   0.728250 0.500010 0.412160 -0.593405
O7    O     O_R   0.271750 0.500010 0.358510 -0.640885
O8    O     O_R   0.728250 0.499990 0.641490 -0.640879
Zn1   Zn    Zn3+2 0.500000 0.499980 0.653120 0.980137
Zn2   Zn    Zn3+2 0.500000 0.500020 0.346880 0.980134
C17   C     C_R   0.386046 0.882782 0.242894 0.130278
C18   C     C_R   0.478979 0.887352 0.136836 -0.085608
C19   C     C_R   0.425810 0.831538 0.011900 -0.144639
C20   C     C_R   0.278782 0.772488 0.991299 -0.120824
C21   C     C_R   0.184911 0.768870 0.095894 -0.123191
C22   C     C_R   0.238163 0.823459 0.221697 -0.117530
H7    H     H_    0.593576 0.932329 0.151855 0.148189
H8    H     H_    0.498964 0.833550 0.931323 0.128463
H9    H     H_    0.237786 0.729291 0.894457 0.126331
H10   H     H_    0.070961 0.723801 0.079130 0.119683
H11   H     H_    0.164850 0.819353 0.302355 0.124929
C23   C     C_R   0.613962 0.117217 0.757101 0.130276
C24   C     C_R   0.761864 0.176510 0.778295 -0.117568
C25   C     C_R   0.815138 0.231091 0.904098 -0.123199
C26   C     C_R   0.721268 0.227499 0.008694 -0.120827
C27   C     C_R   0.574221 0.168481 0.988095 -0.144649
C28   C     C_R   0.521031 0.112672 0.863160 -0.085594
H12   H     H_    0.835177 0.180595 0.697636 0.124944
H13   H     H_    0.929105 0.276132 0.920861 0.119698
H14   H     H_    0.762282 0.270691 0.105535 0.126326
H15   H     H_    0.501069 0.166487 0.068675 0.128465
H16   H     H_    0.406421 0.067716 0.848145 0.148199
C29   C     C_2   0.755630 0.617658 0.162687 0.416128
H17   H     H_    0.872991 0.598480 0.140936 -0.016598
O9    O     O_2   0.737602 0.697122 0.245570 -0.550447
C30   C     C_2   0.244367 0.382345 0.837312 0.416106
H18   H     H_    0.127008 0.401526 0.859064 -0.016588
O10   O     O_2   0.262393 0.302881 0.754429 -0.550458

loop_
_geom_bond_atom_site_label_1
_geom_bond_atom_site_label_2
_ccdc_geom_bond_type
C14   N1    A    
C10   C23   S    
C3    O7    A    
C7    C9    A    
C24   H12   S    
C14   C30   S    
C27   H15   S    
O8    Zn1   S    
C15   N1    A    
C17   C22   A    
C18   H7    S    
O7    Zn2   S    
C4    O6    A    
C20   H9    S    
C16   N2    A    
C8    H4    S    
C2    O4    A    
C1    O1    A    
C9    C11   A    
C3    O5    A    
C29   H17   S    
C4    O8    A    
C1    C12   S    
C10   C12   A    
C8    C11   A    
C5    C6    D    
C28   H16   S    
C30   O10   D    
C18   C19   A    
C19   C20   A    
O4    Zn1   S    
C27   C28   A    
C7    H3    S    
C13   C15   A    
O3    Zn2   S    
C25   H13   S    
C6    H2    S    
C14   C16   A    
C7    C12   A    
C29   O9    D    
C4    C6    S    
C5    H1    S    
C2    C11   S    
C21   H10   S    
C9    C17   S    
C26   H14   S    
C21   C22   A    
O5    Zn1   S    
C15   H5    S    
C13   C29   S    
C22   H11   S    
C2    O2    A    
C26   C27   A    
C19   H8    S    
C1    O3    A    
O6    Zn2   S    
C23   C24   A    
C25   C26   A    
C16   H6    S    
C3    C5    S    
C23   C28   A    
O2    Zn2   S    
C8    C10   A    
N2    Zn2   S    
C24   C25   A    
C13   N2    A    
O1    Zn1   S    
C30   H18   S    
N1    Zn1   S    
C17   C18   A    
C20   C21   A    
