data_mof_unit_57513.cif
_audit_creation_date              2012-10-26T20:25:36-0400
_audit_creation_method            fapswitch 2.2
_symmetry_space_group_name_H-M    P1
_symmetry_Int_Tables_number       1
_space_group_crystal_system       triclinic
_cell_length_a                    23.404453
_cell_length_b                    10.73968
_cell_length_c                    9.573135
_cell_angle_alpha                 90.644829
_cell_angle_beta                  89.90914
_cell_angle_gamma                 91.910988
_cell_volume                      2404.77579535

loop_
_atom_site_label
_atom_site_type_symbol
_atom_type_description
_atom_site_fract_x
_atom_site_fract_y
_atom_site_fract_z
_atom_type_partial_charge
C1    C     C_R   0.503740 0.260389 0.499606 0.553189
C2    C     C_R   0.703775 0.578566 0.585702 0.066476
C3    C     C_R   0.235708 0.428874 0.423889 -0.068281
C4    C     C_R   0.762896 0.569953 0.589818 -0.072462
C5    C     C_R   0.210044 0.520743 0.504866 0.218561
C6    C     C_R   0.790004 0.476431 0.514809 0.216283
C7    C     C_3   0.512400 0.040775 0.627485 0.293632
C8    C     C_3   0.485075 0.958696 0.373563 0.289069
C9    C     C_3   0.547418 0.949532 0.539720 -0.159057
C10   C     C_3   0.449864 0.050093 0.462475 -0.177509
C11   C     C_3   0.492117 0.876589 0.501267 -0.022834
C12   C     C_R   0.495085 0.739299 0.500580 0.556327
C13   C     C_3   0.505437 0.123105 0.500021 -0.030319
C14   C     C_3   0.456850 0.966574 0.592067 0.094259
C15   C     C_3   0.540836 0.032670 0.409693 0.097176
C16   C     C_R   0.391423 0.499764 0.500046 0.556300
C17   C     C_R   0.608597 0.499241 0.500176 0.556548
C18   C     C_3   0.539751 0.574285 0.051721 0.144338
C19   C     C_3   0.460092 0.425342 0.947362 0.109616
C20   C     C_3   0.491518 0.610034 0.952957 0.169390
C21   C     C_3   0.508602 0.389257 0.046966 0.124865
C22   C     C_3   0.547763 0.464928 0.949860 0.323059
C23   C     C_R   0.244004 0.606695 0.582299 0.121374
C24   C     C_3   0.452141 0.534993 0.050167 0.328572
C25   C     C_R   0.878612 0.566020 0.429508 0.417202
C26   C     C_R   0.121895 0.438334 0.601639 0.431436
C27   C     C_R   0.880327 0.402494 0.595890 0.427001
C28   C     C_R   0.119527 0.599097 0.432370 0.423064
C29   C     C_R   0.940438 0.413260 0.604980 0.007243
C30   C     C_R   0.059507 0.601075 0.440650 0.004678
C31   C     C_R   0.969790 0.501807 0.520184 -0.116352
C32   C     C_R   0.030276 0.510228 0.522361 -0.114888
C33   C     C_R   0.938786 0.579980 0.430867 -0.026870
C34   C     C_R   0.757352 0.388310 0.436858 0.132562
C35   C     C_R   0.061597 0.426415 0.603805 -0.010019
C36   C     C_R   0.971844 0.336580 0.694482 0.267788
C37   C     C_R   0.028077 0.688642 0.365729 0.281554
C38   C     C_R   0.031633 0.335333 0.684583 0.107885
C39   C     C_R   0.968969 0.670328 0.349081 0.106447
C40   C     C_3   0.927162 0.320692 0.907939 0.053060
C41   C     C_3   0.973199 0.318803 0.021408 -0.274101
C42   C     C_3   0.952361 0.376249 0.157755 -0.465356
C43   C     C_3   0.074477 0.879699 0.400463 0.063872
C44   C     C_3   0.036461 0.993576 0.403625 -0.274671
C45   C     C_R   0.303317 0.597429 0.580990 -0.166528
C46   C     C_3   0.986839 0.978920 0.506708 -0.381978
C47   C     C_3   0.641219 0.404768 0.990638 -0.008320
C48   C     C_3   0.700543 0.437008 0.931592 -0.253083
C49   C     C_3   0.747930 0.396798 0.028122 -0.446549
C50   C     C_3   0.353498 0.542134 0.034034 0.006151
C51   C     C_3   0.300876 0.610995 0.082268 -0.277082
C52   C     C_3   0.246096 0.549269 0.024154 -0.410615
C53   C     C_3   0.584691 0.132440 0.764517 0.047696
C54   C     C_3   0.628203 0.032822 0.797898 -0.267040
C55   C     C_3   0.676791 0.080703 0.891772 -0.427046
C56   C     C_R   0.698075 0.399494 0.428487 -0.165589
C57   C     C_3   0.412155 0.930539 0.207594 0.061516
C58   C     C_3   0.369725 0.850152 0.294093 -0.306741
C59   C     C_3   0.308461 0.891727 0.276729 -0.453109
C60   C     C_R   0.329129 0.505077 0.500288 0.001518
C61   C     C_R   0.670989 0.494414 0.502534 0.007267
C62   C     C_R   0.294981 0.420677 0.420502 0.058264
Cu1   Cu    Cu3+1 0.500010 0.499990 0.643150 1.078241
Cu2   Cu    Cu3+1 0.499990 0.500010 0.356850 1.079593
H1    H     H_    0.329380 0.662970 0.641993 0.159111
H2    H     H_    0.011816 0.372627 0.986090 0.189509
H3    H     H_    0.939360 0.473288 0.140359 0.185095
H4    H     H_    0.987340 0.377381 0.236029 0.160641
H5    H     H_    0.915453 0.320832 0.199612 0.188786
H6    H     H_    0.117788 0.912525 0.366659 0.192769
H7    H     H_    0.080160 0.843108 0.508123 0.143766
H8    H     H_    0.062846 0.076866 0.436302 0.149066
H9    H     H_    0.019740 0.011481 0.297385 0.210690
H10   H     H_    0.957569 0.900375 0.475900 0.191766
H11   H     H_    0.962240 0.065600 0.508957 0.192564
H12   H     H_    0.673000 0.332579 0.367001 0.155015
H13   H     H_    0.003105 0.962149 0.613492 0.185906
H14   H     H_    0.637837 0.304680 0.015497 0.141326
H15   H     H_    0.636117 0.455495 0.091128 0.159726
H16   H     H_    0.705575 0.391087 0.827872 0.186739
H17   H     H_    0.704982 0.539250 0.917743 0.216506
H18   H     H_    0.744692 0.445329 0.130709 0.193855
H19   H     H_    0.790180 0.421357 0.981139 0.171725
H20   H     H_    0.744893 0.294491 0.043128 0.179289
H21   H     H_    0.345534 0.442005 0.055743 0.198346
H22   H     H_    0.358926 0.557536 0.919662 0.154765
H23   H     H_    0.209215 0.362283 0.365320 0.148760
H24   H     H_    0.298271 0.610927 0.198110 0.186452
H25   H     H_    0.304439 0.708508 0.045338 0.185097
H26   H     H_    0.248425 0.541383 0.908560 0.196471
H27   H     H_    0.208985 0.605970 0.053152 0.207390
H28   H     H_    0.239468 0.454705 0.068458 0.180324
H29   H     H_    0.586250 0.204641 0.846565 0.213259
H30   H     H_    0.597152 0.181616 0.666613 0.122642
H31   H     H_    0.606520 0.951735 0.848885 0.250494
H32   H     H_    0.648165 0.001999 0.699008 0.176123
H33   H     H_    0.697991 0.164686 0.845988 0.155552
H34   H     H_    0.788260 0.637316 0.650210 0.154310
H35   H     H_    0.708973 0.007656 0.901716 0.205594
H36   H     H_    0.660340 0.101986 0.997564 0.193442
H37   H     H_    0.404904 0.905816 0.096301 0.210252
H38   H     H_    0.403054 0.031255 0.214441 0.171203
H39   H     H_    0.372825 0.751813 0.262113 0.224080
H40   H     H_    0.379887 0.853729 0.406418 0.172655
H41   H     H_    0.303353 0.983482 0.328820 0.205980
H42   H     H_    0.278449 0.823076 0.326243 0.187524
H43   H     H_    0.297369 0.899749 0.164595 0.176192
H44   H     H_    0.586404 0.900419 0.567499 0.162581
H45   H     H_    0.409462 0.095396 0.436746 0.163628
H46   H     H_    0.887889 0.272336 0.948257 0.193283
H47   H     H_    0.915385 0.418733 0.887440 0.127552
H48   H     H_    0.984945 0.221089 0.040835 0.211410
I1    I     I_    0.488447 0.801277 0.904699 -0.163054
I2    I     I_    0.667849 0.724374 0.702865 -0.359309
I3    I     I_    0.378267 0.938884 0.705608 -0.293116
I4    I     I_    0.621314 0.063075 0.306910 -0.319980
I5    I     I_    0.512448 0.197438 0.096366 -0.215782
I6    I     I_    0.603385 0.704740 0.136142 -0.183420
I7    I     I_    0.400395 0.290514 0.854020 -0.200858
I8    I     I_    0.071026 0.181381 0.783871 -0.264800
I9    I     I_    0.931867 0.780693 0.188595 -0.229357
I10   I     I_    0.207439 0.750537 0.702535 -0.321974
I11   I     I_    0.795642 0.235940 0.335132 -0.331434
I12   I     I_    0.329034 0.272894 0.301785 -0.396355
N1    N     N_R   0.851289 0.478993 0.510786 -0.392154
N2    N     N_R   0.148944 0.520601 0.514120 -0.391538
N3    N     N_3   0.500040 0.499970 0.858290 -0.269612
N4    N     N_3   0.499960 0.500030 0.141710 -0.271306
O1    O     O_R   0.500030 0.316850 0.620870 -0.457671
O2    O     O_2   0.153929 0.370666 0.687120 -0.437305
O3    O     O_2   0.850699 0.315903 0.670006 -0.448395
O4    O     O_2   0.148533 0.672389 0.341185 -0.469503
O5    O     O_3   0.944509 0.255117 0.786223 -0.505433
O6    O     O_3   0.054714 0.789564 0.300230 -0.498509
O7    O     O_3   0.600075 0.432255 0.888490 -0.544656
O8    O     O_3   0.402264 0.585003 0.108865 -0.549131
O9    O     O_3   0.527931 0.081775 0.763067 -0.485903
O10   O     O_3   0.470091 0.908517 0.240414 -0.479819
O11   O     O_R   0.499970 0.683150 0.379130 -0.436139
O12   O     O_R   0.500000 0.316860 0.379090 -0.474577
O13   O     O_R   0.500000 0.683140 0.620910 -0.480373
O14   O     O_R   0.417890 0.499960 0.620920 -0.500597
O15   O     O_R   0.582110 0.500040 0.379080 -0.505927
O16   O     O_R   0.417870 0.499970 0.379140 -0.444636
O17   O     O_R   0.582130 0.500030 0.620860 -0.433470
O18   O     O_2   0.846770 0.639627 0.350218 -0.439791

loop_
_geom_bond_atom_site_label_1
_geom_bond_atom_site_label_2
_ccdc_geom_bond_type
C45   C60   A    
C34   C56   A    
C34   I11   S    
C23   C45   A    
C4    H34   S    
C27   C29   A    
C27   O3    S    
C41   C42   S    
C52   H26   S    
C47   H15   S    
C36   O5    S    
C62   I12   S    
C22   N3    S    
C53   C54   S    
C12   O13   A    
C9    H44   S    
C57   H38   S    
C29   C36   A    
C59   H41   S    
C53   O9    S    
C49   H20   S    
C8    O10   S    
C16   O16   A    
C1    O1    A    
C16   C60   S    
C20   I1    S    
C11   C14   S    
C17   C61   S    
C14   I3    S    
C37   O6    S    
C48   H17   S    
C10   H45   S    
C60   C62   A    
C26   N2    A    
C19   N3    S    
C25   N1    A    
C21   I5    S    
C50   H21   S    
C18   N4    S    
C7    C14   S    
C20   C24   S    
C44   C46   S    
Cu2   N4    S    
C41   H48   S    
C5    N2    S    
C31   C33   A    
C25   O18   S    
C23   I10   S    
C18   I6    S    
C54   H32   S    
C26   O2    S    
C2    C61   A    
C38   I8    S    
C24   O8    S    
C19   I7    S    
C21   C22   S    
C42   H4    S    
C46   H11   S    
C28   N2    A    
C40   H47   S    
C37   C39   A    
C59   H42   S    
C3    H23   S    
C51   C52   S    
C32   C35   A    
C2    I2    S    
C35   C38   A    
C20   N3    S    
C4    C6    A    
C10   C14   S    
C7    O9    S    
C40   H46   S    
Cu2   O16   S    
C58   C59   S    
C53   H29   S    
C42   H5    S    
C59   H43   S    
C6    C34   A    
C30   C37   A    
C28   O4    S    
C49   H18   S    
C55   H36   S    
C43   O6    S    
C16   O14   A    
C43   C44   S    
C47   C48   S    
C5    C23   A    
C55   H33   S    
C50   C51   S    
Cu1   O13   S    
C12   O11   A    
C33   C39   A    
C21   N4    S    
C9    C11   S    
C54   H31   S    
C1    O12   A    
C40   C41   S    
C8    C15   S    
C56   H12   S    
C13   C15   S    
C45   H1    S    
C17   O17   A    
C52   H28   S    
C1    C13   S    
C46   H10   S    
Cu2   O12   S    
C3    C62   A    
C7    C9    S    
C54   C55   S    
C48   C49   S    
C43   H7    S    
C47   O7    S    
C53   H30   S    
C18   C22   S    
C31   C32   A    
C6    N1    S    
C3    C5    A    
C10   C13   S    
C51   H24   S    
C46   H13   S    
C11   C12   S    
C41   H2    S    
Cu2   O15   S    
C43   H6    S    
C57   H37   S    
C40   O5    S    
C15   I4    S    
C39   I9    S    
C22   O7    S    
C17   O15   A    
C48   H16   S    
C36   C38   A    
C19   C24   S    
C9    C15   S    
C29   C31   A    
C50   O8    S    
C51   H25   S    
C30   C32   A    
C27   N1    A    
C49   H19   S    
C57   C58   S    
C42   H3    S    
C8    C11   S    
C2    C4    A    
C28   C30   A    
Cu1   O14   S    
C57   O10   S    
C44   H8    S    
C18   C20   S    
Cu1   O1    S    
C44   H9    S    
C50   H22   S    
Cu1   Cu2   S    
C26   C35   A    
C7    C13   S    
C58   H40   S    
C8    C10   S    
C55   H35   S    
C24   N4    S    
C56   C61   A    
C52   H27   S    
C58   H39   S    
C47   H14   S    
Cu1   O17   S    
Cu1   N3    S    
C25   C33   A    
C19   C21   S    
Cu2   O11   S    
