data_mof_unit_51522.cif
_audit_creation_date              2012-12-10T16:49:23-0500
_audit_creation_method            fapswitch 2.2
_symmetry_space_group_name_H-M    P1
_symmetry_Int_Tables_number       1
_space_group_crystal_system       triclinic
_cell_length_a                    7.799048
_cell_length_b                    8.563763
_cell_length_c                    12.872941
_cell_angle_alpha                 89.44861
_cell_angle_beta                  88.614094
_cell_angle_gamma                 93.763203
_cell_volume                      857.614461417

loop_
_atom_site_label
_atom_site_type_symbol
_atom_type_description
_atom_site_fract_x
_atom_site_fract_y
_atom_site_fract_z
_atom_type_partial_charge
C1    C     C_R   0.454698 0.205376 0.497367 0.946565
C2    C     C_R   0.701958 0.441037 0.142818 -0.286026
C3    C     C_R   0.581286 0.458542 0.869677 -0.251660
C4    C     C_R   0.418729 0.541497 0.130323 -0.251507
C5    C     C_R   0.573947 0.470855 0.976115 -0.021398
C6    C     C_R   0.426056 0.529168 0.023885 -0.021282
C7    C     C_2   0.431007 0.041704 0.495749 -0.386445
C8    C     C_2   0.568992 0.958296 0.504252 -0.386456
C9    C     C_3   0.138997 0.787390 0.000366 -0.377139
C10   C     C_3   0.860540 0.212468 0.999352 -0.377359
C11   C     C_3   0.069268 0.693784 0.331121 -0.148831
C12   C     C_R   0.545302 0.794623 0.502633 0.946558
C13   C     C_3   0.930732 0.306214 0.668879 -0.148899
C14   C     C_R   0.466338 0.501697 0.699561 0.888498
C15   C     C_R   0.533662 0.498305 0.300439 0.888528
C16   C     C_R   0.553829 0.495153 0.189522 -0.147367
C17   C     C_R   0.446174 0.504860 0.810478 -0.147251
C18   C     C_R   0.288177 0.574432 0.964428 0.588506
C19   C     C_R   0.711815 0.425572 0.035576 0.588550
C20   C     C_R   0.298030 0.558946 0.857183 -0.286106
H1    H     H_    0.307039 0.587275 0.167397 0.195256
H2    H     H_    0.974524 0.172696 0.956439 0.193577
H3    H     H_    0.744307 0.152629 0.965148 0.153028
H4    H     H_    0.871244 0.176874 0.082164 0.168577
H5    H     H_    0.069824 0.585602 0.283984 0.154647
H6    H     H_    0.200731 0.747451 0.341391 0.170749
H7    H     H_    0.997560 0.779198 0.287058 0.137606
H8    H     H_    0.799268 0.252550 0.658609 0.170750
H9    H     H_    0.930179 0.414396 0.716016 0.154624
H10   H     H_    0.002439 0.220799 0.712940 0.137587
H11   H     H_    0.692990 0.412791 0.832604 0.195247
H12   H     H_    0.808215 0.407994 0.189154 0.178497
H13   H     H_    0.191753 0.591927 0.810843 0.178419
H14   H     H_    0.300753 0.990416 0.487534 0.197376
H15   H     H_    0.699247 0.009584 0.512466 0.197375
H16   H     H_    0.255282 0.847622 0.034239 0.153001
H17   H     H_    0.025124 0.827131 0.043401 0.193550
H18   H     H_    0.127770 0.822563 0.917522 0.168600
N1    N     N_2   0.054030 0.541640 0.471970 0.190232
N2    N     N_2   0.945970 0.458360 0.528030 0.190239
O1    O     O_R   0.609680 0.261530 0.506880 -0.630824
O2    O     O_3   0.860026 0.376407 0.988454 -0.577069
O3    O     O_3   0.984412 0.664364 0.427144 -0.524833
O4    O     O_3   0.015587 0.335635 0.572855 -0.524813
O5    O     O_R   0.390320 0.738470 0.493120 -0.630828
O6    O     O_R   0.323330 0.288220 0.488910 -0.570781
O7    O     O_R   0.676670 0.711780 0.511090 -0.570790
O8    O     O_R   0.619510 0.488830 0.661140 -0.661435
O9    O     O_R   0.380490 0.511170 0.338860 -0.661420
O10   O     O_R   0.333160 0.515520 0.643180 -0.600915
O11   O     O_R   0.666840 0.484480 0.356820 -0.600909
O12   O     O_3   0.139947 0.623526 0.011575 -0.577149
Zn1   Zn    Zn3+2 0.691200 0.482180 0.511990 1.021673
Zn2   Zn    Zn3+2 0.308800 0.517820 0.488010 1.021681

loop_
_geom_bond_atom_site_label_1
_geom_bond_atom_site_label_2
_ccdc_geom_bond_type
C4    C16   A    
C9    H16   S    
C14   O8    A    
N2    Zn1   S    
C13   H8    S    
C11   O3    S    
C5    C19   A    
C15   O11   A    
C10   H3    S    
C10   O2    S    
C2    C16   A    
C19   O2    S    
C11   H7    S    
C8    C12   S    
O6    Zn2   S    
C9    H17   S    
C18   O12   S    
C7    C8    D    
O10   Zn2   S    
C10   H2    S    
C3    H11   S    
C4    H1    S    
C14   C17   S    
O1    Zn1   S    
C14   O10   A    
C9    O12   S    
C12   O7    A    
C5    C6    A    
O7    Zn1   S    
C1    O1    A    
C9    H18   S    
O5    Zn2   S    
C3    C17   A    
C18   C20   A    
C15   O9    A    
O8    Zn1   S    
C6    C18   A    
C7    H14   S    
C1    O6    A    
N1    Zn2   S    
C20   H13   S    
C15   C16   S    
C3    C5    A    
C13   H10   S    
N2    O4    S    
C17   C20   A    
C2    H12   S    
C4    C6    A    
C13   H9    S    
N1    N2    D    
C11   H5    S    
N1    O3    S    
C11   H6    S    
C10   H4    S    
C2    C19   A    
C1    C7    S    
C13   O4    S    
O9    Zn2   S    
C12   O5    A    
O11   Zn1   S    
C8    H15   S    
