data_mof_unit_35771.cif
_audit_creation_date              2013-03-05T16:44:03-0500
_audit_creation_method            fapswitch 2.2
_symmetry_space_group_name_H-M    P1
_symmetry_Int_Tables_number       1
_space_group_crystal_system       triclinic
_cell_length_a                    19.124854
_cell_length_b                    10.760137
_cell_length_c                    9.896512
_cell_angle_alpha                 89.991792
_cell_angle_beta                  89.57157
_cell_angle_gamma                 91.122659
_cell_volume                      2036.11615996

loop_
_atom_site_label
_atom_site_type_symbol
_atom_site_description
_atom_site_fract_x
_atom_site_fract_y
_atom_site_fract_z
_atom_type_partial_charge
O1    O     O_R   0.500010 0.316790 0.614690 -0.589945
O2    O     O_R   0.500000 0.316760 0.385350 -0.582145
C1    C     C_R   0.502502 0.259965 0.499850 0.951666
O3    O     O_R   0.398140 0.500000 0.614710 -0.600509
O4    O     O_R   0.398130 0.499970 0.385370 -0.614019
C2    C     C_R   0.365576 0.503226 0.500842 0.945685
Zn1   Zn    Zn3+2 0.500000 0.500020 0.653130 1.035427
Zn2   Zn    Zn3+2 0.500000 0.499980 0.346870 0.982869
O5    O     O_R   0.500000 0.683240 0.614650 -0.605167
O6    O     O_R   0.499990 0.683210 0.385310 -0.632090
O7    O     O_R   0.601870 0.500030 0.614630 -0.552452
O8    O     O_R   0.601860 0.500000 0.385290 -0.628355
C3    C     C_R   0.502834 0.739685 0.500169 0.895056
C4    C     C_R   0.634367 0.496589 0.499102 0.927470
C5    C     C_R   0.251322 0.606486 0.541957 0.408771
C6    C     C_R   0.182681 0.620395 0.494904 0.083188
C7    C     C_R   0.147540 0.516316 0.436924 -0.031693
C8    C     C_R   0.185075 0.408465 0.409164 -0.157354
H1    H     H_    0.159873 0.327228 0.365057 0.192574
C9    C     C_R   0.255762 0.403953 0.436544 -0.245168
H2    H     H_    0.284357 0.321276 0.411515 0.209490
C10   C     C_R   0.289619 0.503216 0.499396 -0.172699
N1    N     N_R   0.032089 0.611543 0.423660 -0.120256
N2    N     N_R   0.963031 0.603465 0.434614 -0.093398
C11   C     C_R   0.930599 0.491281 0.448830 0.349159
N3    N     N_R   0.968948 0.387024 0.445084 -0.133663
N4    N     N_R   0.038136 0.395520 0.435025 -0.158870
C12   C     C_R   0.071124 0.508214 0.426195 0.304983
C13   C     C_R   0.822114 0.415721 0.568414 0.119050
C14   C     C_R   0.748702 0.415333 0.580195 0.102855
C15   C     C_R   0.710172 0.491658 0.493255 -0.180078
C16   C     C_R   0.743650 0.558801 0.389646 -0.294996
H3    H     H_    0.714010 0.615408 0.320733 0.176889
C17   C     C_R   0.815110 0.552048 0.370961 0.482475
C18   C     C_R   0.854913 0.484356 0.462955 -0.137138
C19   C     C_R   0.492627 0.061931 0.617448 -0.017691
C20   C     C_R   0.511865 0.128165 0.501093 -0.109019
C21   C     C_R   0.544417 0.064481 0.392807 0.171182
C22   C     C_R   0.543565 0.934984 0.394034 -0.215886
H4    H     H_    0.564820 0.884773 0.308907 0.170527
C23   C     C_R   0.512974 0.871073 0.503142 -0.118357
C24   C     C_R   0.495355 0.935094 0.619525 -0.112630
C25   C     C_3   0.430720 0.922314 0.705761 0.191285
C26   C     C_3   0.428316 0.064648 0.705824 0.502734
H5    H     H_    0.387636 0.876027 0.648903 0.153942
C27   C     C_R   0.446595 0.443934 0.071036 0.239357
N5    N     N_R   0.499530 0.499140 0.142800 -0.143703
C28   C     C_R   0.556443 0.542412 0.072085 -0.260744
H6    H     H_    0.599048 0.582556 0.129081 0.166166
C29   C     C_R   0.557626 0.541452 0.926537 0.534690
N6    N     N_R   0.499530 0.499180 0.857150 -0.143423
C30   C     C_R   0.445807 0.449906 0.929697 0.157956
C31   C     C_3   0.372637 0.488710 0.923696 -0.537753
C32   C     C_3   0.370274 0.472951 0.075903 -0.036364
H7    H     H_    0.369986 0.587019 0.891187 0.213205
H8    H     H_    0.339782 0.421455 0.865873 0.237240
H9    H     H_    0.358229 0.559786 0.131549 0.162190
O9    O     O_3   0.278936 0.689612 0.635163 -0.618096
C33   C     C_3   0.244309 0.666975 0.760796 0.107052
H10   H     H_    0.259355 0.575746 0.802072 0.144278
H11   H     H_    0.186309 0.664259 0.752404 0.166010
C34   C     C_3   0.262016 0.768900 0.861879 -0.791781
H12   H     H_    0.319170 0.780585 0.871649 0.292905
H13   H     H_    0.239226 0.857804 0.829081 0.248200
H14   H     H_    0.239693 0.743947 0.962406 0.224251
O10   O     O_3   0.435940 0.871406 0.838277 -0.627799
C35   C     C_3   0.504685 0.855046 0.885639 0.166026
H15   H     H_    0.539404 0.937367 0.867154 0.171068
H16   H     H_    0.527898 0.773810 0.836167 0.210325
C36   C     C_3   0.501109 0.832778 0.037218 -0.773982
H17   H     H_    0.466283 0.751560 0.059887 0.243498
H18   H     H_    0.554124 0.815125 0.076178 0.202653
H19   H     H_    0.480110 0.915662 0.089211 0.284524
O11   O     O_3   0.370505 0.114537 0.636808 -0.632769
C37   C     C_3   0.306947 0.080278 0.702625 0.095858
H20   H     H_    0.312028 0.070911 0.814202 0.181150
H21   H     H_    0.287313 0.990521 0.660900 0.183337
C38   C     C_3   0.252162 0.177303 0.675776 -0.750036
H22   H     H_    0.237174 0.174288 0.567813 0.255526
H23   H     H_    0.204736 0.156993 0.737975 0.227639
H24   H     H_    0.272830 0.271343 0.702019 0.254967
I1    I     I_    0.451895 0.153743 0.894765 -0.294475
O12   O     O_3   0.611176 0.598491 0.851695 -0.602101
C39   C     C_3   0.678396 0.590608 0.909605 0.095682
H25   H     H_    0.715628 0.567755 0.827155 0.201307
H26   H     H_    0.683538 0.515141 0.985668 0.135557
C40   C     C_3   0.701349 0.716644 0.966292 -0.859600
H27   H     H_    0.669438 0.741875 0.055556 0.236245
H28   H     H_    0.756801 0.713671 0.997473 0.241461
H29   H     H_    0.696111 0.789618 0.887811 0.279476
I2    I     I_    0.139680 0.802437 0.515382 -0.303739
I3    I     I_    0.308738 0.310320 0.124527 -0.353319
I4    I     I_    0.883042 0.321231 0.715771 -0.297352
I5    I     I_    0.696217 0.289484 0.717275 -0.289099
O13   O     O_3   0.846481 0.617389 0.265697 -0.590754
C41   C     C_3   0.853501 0.536647 0.154027 0.082426
H30   H     H_    0.801566 0.518371 0.107380 0.146633
H31   H     H_    0.876695 0.446171 0.182937 0.154338
C42   C     C_3   0.901880 0.597353 0.049533 -0.735230
H32   H     H_    0.954792 0.612073 0.093102 0.264098
H33   H     H_    0.906104 0.536349 0.959438 0.227967
H34   H     H_    0.881249 0.688511 0.017881 0.257042
I6    I     I_    0.595321 0.151025 0.224201 -0.303885

loop_
_geom_bond_atom_site_label_1
_geom_bond_atom_site_label_2
_geom_bond_distance
_ccdc_geom_bond_type
C40   H27   1.106826 S    
C23   C24   1.384995 A    
C19   C24   1.366960 A    
O13   C41   1.413080 S    
C39   C40   1.525508 S    
C4    C15   1.452490 S    
C25   C26   1.533124 S    
C3    C23   1.423566 S    
C22   C23   1.398467 A    
C31   C32   1.516048 S    
Zn1   O7    1.982355 S    
N3    N4    1.327558 A    
C13   C14   1.407878 A    
C19   C20   1.397285 A    
C20   C21   1.418633 A    
C39   H26   1.113453 S    
C8    H1    1.083359 S    
C26   I1    2.148246 S    
O4    C2    1.298082 A    
O7    C4    1.298118 A    
C38   H23   1.110490 S    
C5    C6    1.406906 A    
C2    C10   1.452832 S    
C41   C42   1.521187 S    
C27   C30   1.400438 A    
C17   C18   1.403843 A    
O5    C3    1.285700 A    
C34   H13   1.108514 S    
C5    C10   1.405716 A    
O12   C39   1.415499 S    
C6    C7    1.418297 A    
C41   H31   1.115848 S    
N1    N2    1.325510 A    
N2    C11   1.353126 A    
C36   H17   1.110214 S    
C28   C29   1.440467 A    
O10   C35   1.413313 S    
C33   H10   1.107237 S    
C36   H19   1.110186 S    
O3    Zn1   1.987603 S    
C29   O12   1.392124 S    
C29   N6    1.380082 A    
C31   H7    1.107843 S    
C21   C22   1.393233 A    
C33   H11   1.112787 S    
O11   C37   1.417122 S    
C35   H15   1.110891 S    
C39   H25   1.109745 S    
O3    C2    1.292395 A    
C22   H4    1.081901 S    
C38   H22   1.108623 S    
C11   N3    1.352638 A    
N6    C30   1.348971 A    
O1    C1    1.291639 A    
C16   C17   1.381063 A    
C37   H20   1.113935 S    
C32   I3    2.142295 S    
C21   I6    2.130477 S    
C25   H5    1.111099 S    
N5    C28   1.363806 A    
Zn2   O8    1.987601 S    
C41   H30   1.112462 S    
C27   C32   1.499040 S    
C34   H12   1.102777 S    
C7    C8    1.402613 A    
N1    C12   1.351642 A    
C17   O13   1.383257 S    
C26   O11   1.418280 S    
C37   H21   1.110175 S    
C11   C18   1.453627 S    
C28   H6    1.077874 S    
C42   H33   1.110656 S    
O8    C4    1.291451 A    
C40   H28   1.107754 S    
C5    O9    1.385208 S    
C19   C26   1.504615 S    
C24   C25   1.500935 S    
C30   C31   1.469771 S    
C31   H8    1.110709 S    
Zn1   O5    2.007863 S    
C27   N5    1.367284 A    
C33   C34   1.519564 S    
C34   H14   1.110501 S    
O1    Zn1   2.008003 S    
C7    C12   1.466961 S    
C15   C16   1.398257 A    
O2    Zn2   2.007861 S    
C9    C10   1.387832 A    
O6    C3    1.290017 A    
O4    Zn2   1.982357 S    
C13   C18   1.414203 A    
C42   H32   1.111431 S    
C35   C36   1.519908 S    
C16   H3    1.084745 S    
O2    C1    1.289011 A    
O9    C33   1.423038 S    
Zn2   N5    2.019689 S    
Zn1   N6    2.019057 S    
C14   I5    2.146519 S    
C13   I4    2.142351 S    
C38   H24   1.110645 S    
C14   C15   1.410942 A    
C25   O10   1.426121 S    
C8    C9    1.382545 A    
C37   C38   1.518311 S    
C42   H34   1.110328 S    
C9    H2    1.081181 S    
C1    C20   1.432990 S    
C6    I2    2.148260 S    
Zn2   O6    2.008003 S    
C40   H29   1.110810 S    
N4    C12   1.358401 A    
C36   H18   1.107305 S    
C35   H16   1.101342 S    
C32   H9    1.111770 S    
