data_mof_unit_7758.cif
_audit_creation_date              2012-12-10T17:24:45-0500
_audit_creation_method            fapswitch 2.2
_symmetry_space_group_name_H-M    P1
_symmetry_Int_Tables_number       1
_space_group_crystal_system       triclinic
_cell_length_a                    23.536898
_cell_length_b                    10.861279
_cell_length_c                    9.631794
_cell_angle_alpha                 88.685773
_cell_angle_beta                  89.034854
_cell_angle_gamma                 93.602927
_cell_volume                      2456.35399381

loop_
_atom_site_label
_atom_site_type_symbol
_atom_type_description
_atom_site_fract_x
_atom_site_fract_y
_atom_site_fract_z
_atom_type_partial_charge
C1    C     C_R   0.496698 0.262292 0.501836 0.811589
C2    C     C_R   0.965118 0.285580 0.498672 0.496966
C3    C     C_R   0.024493 0.287950 0.486023 -0.241859
C4    C     C_R   0.057302 0.400067 0.474426 -0.080217
C5    C     C_R   0.030291 0.511773 0.469789 -0.088034
C6    C     C_R   0.063276 0.625103 0.464654 -0.104737
C7    C     C_R   0.035555 0.736665 0.451389 0.492334
C8    C     C_R   0.976200 0.732858 0.438800 -0.247982
C9    C     C_R   0.116839 0.402823 0.468326 0.633861
C10   C     C_R   0.122973 0.622703 0.475671 0.547629
C11   C     C_R   0.245469 0.583866 0.394522 -0.176613
C12   C     C_R   0.391212 0.498948 0.500351 0.846690
C13   C     C_R   0.304464 0.582354 0.403124 -0.316783
C14   C     C_R   0.329007 0.502526 0.498036 -0.198154
C15   C     C_R   0.293567 0.421703 0.581854 0.348892
C16   C     C_R   0.234686 0.435716 0.587344 0.449054
C17   C     C_R   0.209838 0.511859 0.487227 0.163915
C18   C     C_R   0.757318 0.429758 0.393240 -0.182336
C19   C     C_R   0.698105 0.425110 0.403324 -0.305264
C20   C     C_R   0.671000 0.504246 0.492024 -0.202814
C21   C     C_R   0.703802 0.592355 0.565873 0.336014
C22   C     C_R   0.763257 0.587933 0.567747 0.458749
C23   C     C_R   0.496631 0.736818 0.498675 0.799254
C24   C     C_R   0.790520 0.509184 0.476949 0.157966
C25   C     C_R   0.427976 0.110534 0.713194 -0.146108
C26   C     C_R   0.397819 0.039307 0.815007 -0.146365
C27   C     C_R   0.396001 0.911738 0.810099 -0.177391
C28   C     C_R   0.424701 0.855134 0.704028 -0.141029
C29   C     C_R   0.458963 0.925539 0.604458 0.034005
C30   C     C_R   0.460162 0.056060 0.608690 0.062342
C31   C     C_R   0.491289 0.127481 0.504321 -0.190902
C32   C     C_R   0.516041 0.069747 0.392928 -0.284161
C33   C     C_R   0.512659 0.942634 0.383949 0.474708
C34   C     C_R   0.608697 0.500775 0.498296 0.852373
C35   C     C_R   0.489210 0.869653 0.496075 -0.224627
C36   C     C_R   0.578863 0.657081 0.138285 -0.249436
C37   C     C_R   0.617530 0.736659 0.064821 0.393701
C38   C     C_R   0.613950 0.746417 0.921574 0.416331
C39   C     C_R   0.577293 0.664091 0.851266 -0.265548
C40   C     C_R   0.539177 0.577533 0.922384 0.034540
C41   C     C_R   0.539090 0.576978 0.071601 0.104833
C42   C     C_R   0.462404 0.428176 0.078526 -0.143930
C43   C     C_R   0.459149 0.435275 0.930960 0.567272
C44   C     C_R   0.883736 0.617218 0.444372 0.632443
C45   C     C_R   0.877372 0.400009 0.491775 0.551704
C46   C     C_R   0.937213 0.397020 0.486079 -0.111185
C47   C     C_R   0.970209 0.509834 0.469128 -0.084690
C48   C     C_R   0.943273 0.620782 0.450628 -0.080618
Cu1   Cu    Cu3+1 0.500000 0.499990 0.640660 0.971456
Cu2   Cu    Cu3+1 0.500000 0.500010 0.359340 0.934764
H1    H     H_    0.538449 0.123658 0.310583 0.183292
H2    H     H_    0.373638 0.083431 0.894236 0.161393
H3    H     H_    0.579043 0.675019 0.741591 0.258382
H4    H     H_    0.227500 0.641572 0.315588 0.190715
N1    N     N_R   0.851848 0.508864 0.470391 -0.448845
N2    N     N_R   0.148644 0.512602 0.476467 -0.451083
N3    N     N_R   0.500540 0.501210 0.147910 -0.199082
N4    N     N_R   0.500560 0.501290 0.852040 -0.212432
O1    O     O_R   0.500000 0.319640 0.618810 -0.566806
O2    O     O_2   0.844825 0.295472 0.519942 -0.491243
O3    O     O_2   0.142738 0.296301 0.453965 -0.526263
O4    O     O_2   0.155046 0.729083 0.488027 -0.499221
O5    O     O_R   0.500000 0.319660 0.381240 -0.582503
O6    O     O_R   0.417880 0.499950 0.618810 -0.536693
O7    O     O_R   0.417880 0.499980 0.381240 -0.596480
O8    O     O_R   0.500000 0.680340 0.618760 -0.625675
O9    O     O_R   0.500000 0.680360 0.381190 -0.555278
O10   O     O_R   0.582120 0.500020 0.618760 -0.566829
O11   O     O_R   0.582120 0.500050 0.381190 -0.608322
O12   O     O_2   0.857911 0.721340 0.412025 -0.521790
O13   O     O_3   0.934772 0.172712 0.513223 -0.532640
C49   C     C_3   0.935471 0.134359 0.654116 -0.230503
H5    H     H_    0.911245 0.043663 0.666045 0.205274
H6    H     H_    0.914439 0.200445 0.721729 0.173817
H7    H     H_    0.979544 0.122272 0.689756 0.115910
H8    H     H_    0.673363 0.360423 0.340905 0.189998
O14   O     O_3   0.678487 0.687365 0.630478 -0.555739
C50   C     C_3   0.672600 0.782580 0.530210 -0.188006
H9    H     H_    0.652248 0.860031 0.579401 0.199783
H10   H     H_    0.644449 0.751459 0.444539 0.132179
H11   H     H_    0.714799 0.819125 0.487904 0.188508
O15   O     O_3   0.794869 0.667320 0.650885 -0.525976
C51   C     C_3   0.796785 0.612621 0.784679 -0.256466
H12   H     H_    0.817392 0.523135 0.781971 0.142513
H13   H     H_    0.753512 0.599579 0.833333 0.173412
H14   H     H_    0.822820 0.675187 0.851333 0.188029
H15   H     H_    0.422765 0.207659 0.713479 0.235183
H16   H     H_    0.370542 0.856361 0.885791 0.133426
H17   H     H_    0.417163 0.756409 0.698844 0.160546
O16   O     O_3   0.535177 0.890295 0.267399 -0.559468
C52   C     C_3   0.497024 0.904069 0.157017 -0.270929
H18   H     H_    0.493855 0.002761 0.126482 0.150810
H19   H     H_    0.454054 0.860181 0.183615 0.155121
H20   H     H_    0.513083 0.857331 0.064604 0.171331
H21   H     H_    0.432031 0.368288 0.137854 0.149923
H22   H     H_    0.044752 0.201166 0.489768 0.190829
H23   H     H_    0.579989 0.666722 0.247420 0.247424
O17   O     O_3   0.654564 0.815748 0.134984 -0.539664
C53   C     C_3   0.704839 0.755056 0.158717 -0.267036
H24   H     H_    0.734828 0.817731 0.215475 0.204013
H25   H     H_    0.726101 0.732580 0.059134 0.178560
H26   H     H_    0.696301 0.669973 0.224369 0.141436
O18   O     O_3   0.646983 0.836760 0.849557 -0.515100
C54   C     C_3   0.615137 0.942121 0.836388 -0.272959
H27   H     H_    0.641464 0.015499 0.779054 0.189832
H28   H     H_    0.604101 0.978755 0.939775 0.188550
H29   H     H_    0.575857 0.922375 0.775731 0.140312
O19   O     O_3   0.413599 0.375384 0.867211 -0.576489
C55   C     C_3   0.362016 0.425263 0.910400 -0.266595
H30   H     H_    0.327007 0.352557 0.904510 0.225035
H31   H     H_    0.352553 0.503679 0.840432 0.183698
H32   H     H_    0.360741 0.457571 0.019053 0.101985
O20   O     O_3   0.066563 0.848917 0.437566 -0.530511
C56   C     C_3   0.060108 0.914778 0.560749 -0.217904
H33   H     H_    0.088829 0.999744 0.554100 0.209024
H34   H     H_    0.072413 0.860269 0.653664 0.157126
H35   H     H_    0.015872 0.943353 0.573539 0.139512
H36   H     H_    0.956002 0.818792 0.422353 0.208588
H37   H     H_    0.331048 0.641764 0.333387 0.179724
O21   O     O_3   0.315588 0.324091 0.652456 -0.571667
C57   C     C_3   0.309463 0.219086 0.568896 -0.250097
H38   H     H_    0.341354 0.225911 0.482073 0.134514
H39   H     H_    0.265705 0.203855 0.527520 0.201226
H40   H     H_    0.317076 0.136216 0.633241 0.193190
O22   O     O_3   0.201342 0.365618 0.682803 -0.534464
C58   C     C_3   0.190944 0.439367 0.797844 -0.297659
H41   H     H_    0.166050 0.519375 0.768049 0.158736
H42   H     H_    0.231378 0.471728 0.847634 0.141465
H43   H     H_    0.165254 0.382762 0.876231 0.197703
H44   H     H_    0.777481 0.369993 0.321499 0.193786

loop_
_geom_bond_atom_site_label_1
_geom_bond_atom_site_label_2
_ccdc_geom_bond_type
C45   O2    S    
C58   H41   S    
Cu1   O10   S    
C38   O18   S    
O19   C55   S    
C19   C20   A    
C50   H11   S    
C25   H15   S    
C54   H28   S    
C56   H33   S    
C8    H36   S    
C7    C8    A    
O14   C50   S    
C2    C46   A    
C24   N1    S    
C5    C47   A    
C28   C29   A    
C26   C27   A    
C29   C30   A    
C51   H12   S    
C9    O3    S    
C5    C6    A    
C22   O15   S    
C23   O8    A    
C19   H8    S    
Cu2   O11   S    
C1    O1    A    
C30   C31   A    
C12   O6    A    
C50   H10   S    
C15   C16   A    
C1    C31   S    
C15   O21   S    
C18   C19   A    
C23   O9    A    
Cu1   Cu2   S    
C54   H27   S    
C57   H40   S    
C43   N4    A    
C11   C17   A    
C47   C48   A    
C16   C17   A    
C44   O12   S    
C3    H22   S    
C13   C14   A    
C10   N2    A    
C16   O22   S    
C20   C34   S    
Cu1   O6    S    
C21   C22   A    
Cu2   O5    S    
C36   C41   A    
C10   O4    S    
C49   H7    S    
C1    O5    A    
C42   N3    A    
C37   O17   S    
C13   H37   S    
C38   C39   A    
C40   N4    A    
Cu1   O8    S    
C42   H21   S    
C49   H6    S    
C55   H32   S    
C34   O10   A    
C52   H18   S    
C50   H9    S    
C4    C5    A    
C58   H43   S    
C25   C26   A    
C45   C46   A    
Cu1   N4    S    
C36   H23   S    
C8    C48   A    
C32   H1    S    
C37   C38   A    
C26   H2    S    
C52   H19   S    
C53   H24   S    
C34   O11   A    
C51   H14   S    
C9    N2    A    
C17   N2    S    
C57   H38   S    
C28   H17   S    
C11   H4    S    
C40   C41   A    
C53   H25   S    
C12   C14   S    
O15   C51   S    
C23   C35   S    
O22   C58   S    
C18   C24   A    
C18   H44   S    
C42   C43   A    
C3    C4    A    
C39   C40   A    
O21   C57   S    
O20   C56   S    
Cu2   O9    S    
C25   C30   A    
C46   C47   A    
C36   C37   A    
C58   H42   S    
C51   H13   S    
Cu2   N3    S    
C31   C32   A    
C49   H5    S    
C6    C10   A    
C56   H34   S    
C6    C7    A    
C12   O7    A    
C29   C35   A    
Cu1   O1    S    
C32   C33   A    
C7    O20   S    
C55   H31   S    
C2    C3    A    
C41   N3    A    
O13   C49   S    
C55   H30   S    
C52   H20   S    
C11   C13   A    
C44   N1    A    
O16   C52   S    
C39   H3    S    
C33   C35   A    
C22   C24   A    
C43   O19   S    
C27   H16   S    
Cu2   O7    S    
C57   H39   S    
C56   H35   S    
C44   C48   A    
C53   H26   S    
C20   C21   A    
C45   N1    A    
O17   C53   S    
C21   O14   S    
O18   C54   S    
C14   C15   A    
C4    C9    A    
C33   O16   S    
C54   H29   S    
C2    O13   S    
C27   C28   A    
