data_mof_unit_32968.cif
_audit_creation_date              2012-12-10T19:01:20-0500
_audit_creation_method            fapswitch 2.2
_symmetry_space_group_name_H-M    P1
_symmetry_Int_Tables_number       1
_space_group_crystal_system       triclinic
_cell_length_a                    9.564047
_cell_length_b                    10.908457
_cell_length_c                    15.565105
_cell_angle_alpha                 88.535578
_cell_angle_beta                  74.025636
_cell_angle_gamma                 90.308648
_cell_volume                      1560.54483928

loop_
_atom_site_label
_atom_site_type_symbol
_atom_type_description
_atom_site_fract_x
_atom_site_fract_y
_atom_site_fract_z
_atom_type_partial_charge
C1    C     C_R   0.998342 0.262857 0.502745 0.864009
C2    C     C_R   0.682011 0.502381 0.912480 -0.116483
C3    C     C_R   0.785181 0.472957 0.959262 0.013854
C4    C     C_R   0.540571 0.540179 0.960524 -0.118513
C5    C     C_R   0.491045 0.514627 0.053948 -0.112860
C6    C     C_R   0.596926 0.483852 0.100198 0.280746
C7    C     C_R   0.741385 0.458475 0.052513 0.382565
C8    C     C_R   0.449712 0.609806 0.919125 0.437974
C9    C     C_R   0.303687 0.624256 0.962824 -0.241203
C10   C     C_R   0.246646 0.581225 0.050353 0.060018
C11   C     C_R   0.338888 0.525995 0.097305 0.093212
C12   C     C_R   0.917414 0.495719 0.672282 0.812096
C13   C     C_R   0.098723 0.598298 0.092766 -0.126660
C14   C     C_R   0.041668 0.565847 0.182723 -0.135419
C15   C     C_R   0.274061 0.482303 0.185331 -0.220498
C16   C     C_R   0.114678 0.065655 0.517484 -0.005057
C17   C     C_R   0.992263 0.130625 0.513326 -0.107184
C18   C     C_R   0.862179 0.065846 0.520794 -0.341795
C19   C     C_R   0.858376 0.936265 0.523581 0.457396
C20   C     C_R   0.991750 0.872071 0.510828 -0.164183
C21   C     C_R   0.115409 0.939500 0.513195 -0.129815
C22   C     C_3   0.270489 0.942812 0.456310 0.297313
C23   C     C_R   0.998730 0.738138 0.502003 0.826914
C24   C     C_3   0.271104 0.082012 0.466202 0.156179
C25   C     C_R   0.607220 0.539011 0.425749 0.244027
C26   C     C_R   0.544764 0.446663 0.568057 -0.038032
C27   C     C_R   0.396916 0.444102 0.567949 0.442487
C28   C     C_R   0.459331 0.541274 0.426682 0.214210
C29   C     C_3   0.474751 0.668189 0.388828 -0.412298
C30   C     C_3   0.635441 0.662756 0.381719 -0.488864
C31   C     C_R   0.082405 0.499147 0.328010 0.795139
C32   C     C_R   0.871442 0.487681 0.771098 -0.098851
C33   C     C_R   0.130353 0.510996 0.230090 -0.082640
C34   C     C_R   0.932163 0.460419 0.911506 -0.143415
C35   C     C_R   0.975514 0.474799 0.818780 -0.295515
C36   C     C_R   0.722803 0.488221 0.818545 0.390763
Cu1   Cu    Cu3+1 0.140670 0.499980 0.500000 0.970777
Cu2   Cu    Cu3+1 0.859330 0.500020 0.500000 0.977281
H1    H     H_    0.028467 0.641892 0.057356 0.141905
H2    H     H_    0.766064 0.116496 0.519629 0.170263
H3    H     H_    0.342799 0.901228 0.493281 0.041020
H4    H     H_    0.338598 0.114858 0.509254 0.067554
H5    H     H_    0.576196 0.402990 0.622821 0.201971
H6    H     H_    0.447844 0.678407 0.324419 0.213990
H7    H     H_    0.333575 0.426809 0.221187 0.211962
H8    H     H_    0.417287 0.730501 0.440565 0.222937
H9    H     H_    0.704137 0.658870 0.311594 0.200634
H10   H     H_    0.671019 0.731233 0.422606 0.261842
H11   H     H_    0.930053 0.587959 0.215854 0.155821
H12   H     H_    0.235552 0.673926 0.928839 0.162901
H13   H     H_    0.014979 0.443289 0.945669 0.202277
H14   H     H_    0.090234 0.470431 0.784319 0.223430
N1    N     N_R   0.648210 0.500930 0.499430 -0.229453
N2    N     N_R   0.352300 0.500890 0.499430 -0.243203
O1    O     O_R   0.118810 0.319640 0.500000 -0.573764
O2    O     O_R   0.881230 0.319680 0.499990 -0.604738
O3    O     O_R   0.055580 0.499970 0.629840 -0.589606
O4    O     O_R   0.818000 0.500010 0.629830 -0.528661
O5    O     O_R   0.118770 0.680320 0.500010 -0.575490
O6    O     O_R   0.881190 0.680360 0.500000 -0.537384
O7    O     O_R   0.182000 0.499990 0.370170 -0.567572
O8    O     O_R   0.944420 0.500030 0.370160 -0.583922
O9    O     O_3   0.843008 0.420954 0.095727 -0.748884
H15   H     H_    0.794351 0.399864 0.159220 0.369122
O10   O     O_3   0.731094 0.870886 0.527711 -0.613169
C37   C     C_3   0.605433 0.915477 0.590055 0.055559
H16   H     H_    0.514438 0.852290 0.589027 0.169054
H17   H     H_    0.572813 0.006582 0.569412 0.114285
C38   C     C_3   0.619643 0.914611 0.686043 -0.357988
H18   H     H_    0.657329 0.823083 0.702202 0.248661
H19   H     H_    0.701120 0.984382 0.692125 0.202339
C39   C     C_3   0.474695 0.942835 0.753037 -0.838455
H20   H     H_    0.436460 0.034718 0.737777 0.243999
H21   H     H_    0.488429 0.942439 0.821597 0.263062
H22   H     H_    0.391406 0.872519 0.750795 0.274681
O11   O     O_3   0.295168 0.894899 0.368564 -0.608714
C40   C     C_3   0.210332 0.945660 0.314816 0.154302
H23   H     H_    0.281036 0.008553 0.263539 0.181100
H24   H     H_    0.115007 0.998284 0.352183 0.175932
C41   C     C_3   0.155370 0.843914 0.266332 -0.386859
H25   H     H_    0.249241 0.794775 0.223162 0.227751
H26   H     H_    0.088477 0.777073 0.315928 0.214737
C42   C     C_3   0.062738 0.897105 0.208929 -0.906139
H27   H     H_    0.967842 0.945887 0.251239 0.260721
H28   H     H_    0.021316 0.822689 0.175158 0.258257
H29   H     H_    0.128555 0.961936 0.157088 0.261067
O12   O     O_3   0.291138 0.151715 0.386791 -0.721252
H30   H     H_    0.397827 0.156490 0.359536 0.330654
O13   O     O_3   0.301733 0.383450 0.638663 -0.753313
H31   H     H_    0.228109 0.342768 0.615514 0.355720
O14   O     O_3   0.620127 0.466572 0.773106 -0.700459
H32   H     H_    0.534201 0.425648 0.814743 0.334395
O15   O     O_3   0.570166 0.496730 0.190843 -0.774313
H33   H     H_    0.513325 0.572483 0.205267 0.318377
O16   O     O_3   0.501990 0.674002 0.839221 -0.707406
H34   H     H_    0.603543 0.699393 0.834371 0.320785

loop_
_geom_bond_atom_site_label_1
_geom_bond_atom_site_label_2
_ccdc_geom_bond_type
C37   H17   S    
O12   H30   S    
C16   C21   A    
C24   H4    S    
C31   O7    A    
O16   H34   S    
C22   O11   S    
C4    C8    A    
C14   C33   A    
C27   N2    A    
C40   H23   S    
C25   C28   A    
C23   O5    A    
C34   H13   S    
O15   H33   S    
C32   C36   A    
C30   H10   S    
C28   C29   S    
Cu1   Cu2   S    
C25   N1    A    
C5    C11   A    
C3    C7    A    
C41   C42   S    
C5    C6    A    
C14   H11   S    
C34   C35   A    
C38   H19   S    
C18   H2    S    
Cu2   O4    S    
C11   C15   A    
C19   C20   A    
C8    C9    A    
C31   C33   S    
C19   O10   S    
C9    C10   A    
C39   H20   S    
C12   O4    A    
C37   H16   S    
C16   C24   S    
C21   C22   S    
C12   C32   S    
C31   O8    A    
C8    O16   S    
C39   H22   S    
C26   H5    S    
C40   H24   S    
C23   O6    A    
C32   C35   A    
C30   H9    S    
O11   C40   S    
C41   H26   S    
O14   H32   S    
C28   N2    A    
C18   C19   A    
C3    C34   A    
Cu1   O1    S    
C38   C39   S    
C2    C4    A    
C29   C30   S    
C22   H3    S    
C42   H27   S    
C20   C23   S    
C6    O15   S    
C17   C18   A    
C26   C27   A    
C7    O9    S    
Cu1   O5    S    
Cu2   O6    S    
Cu1   N2    S    
C36   O14   S    
C39   H21   S    
C42   H28   S    
C29   H6    S    
C22   C24   S    
C12   O3    A    
C26   N1    A    
C40   C41   S    
C2    C36   A    
C25   C30   S    
C1    O2    A    
C9    H12   S    
C41   H25   S    
C10   C13   A    
Cu1   O7    S    
C6    C7    A    
C1    C17   S    
C29   H8    S    
C2    C3    A    
C1    O1    A    
C16   C17   A    
Cu2   N1    S    
C27   O13   S    
C38   H18   S    
C24   O12   S    
C13   H1    S    
C10   C11   A    
O9    H15   S    
C37   C38   S    
C4    C5    A    
C42   H29   S    
Cu2   O2    S    
C20   C21   A    
O10   C37   S    
C35   H14   S    
C15   H7    S    
O13   H31   S    
C13   C14   A    
C15   C33   A    
Cu1   O3    S    
Cu2   O8    S    
