data_mof_unit_19809.cif
_audit_creation_date              2012-12-10T18:42:49-0500
_audit_creation_method            fapswitch 2.2
_symmetry_space_group_name_H-M    P1
_symmetry_Int_Tables_number       1
_space_group_crystal_system       triclinic
_cell_length_a                    18.081366
_cell_length_b                    18.111445
_cell_length_c                    18.096846
_cell_angle_alpha                 119.84994
_cell_angle_beta                  90.016315
_cell_angle_gamma                 59.843023
_cell_volume                      4190.68980196

loop_
_atom_site_label
_atom_site_type_symbol
_atom_type_description
_atom_site_fract_x
_atom_site_fract_y
_atom_site_fract_z
_atom_type_partial_charge
C1    C     C_R   0.887761 0.217303 0.609267 0.903396
C2    C     C_R   0.110602 0.782604 0.391042 0.916044
C3    C     C_3   0.552330 0.421162 0.416260 0.611099
C4    C     C_3   0.447436 0.580276 0.584823 0.617151
C5    C     C_3   0.446227 0.966616 0.982080 -0.130451
C6    C     C_3   0.553599 0.033276 0.016744 -0.129990
C7    C     C_3   0.447843 0.035459 0.956194 -0.184745
C8    C     C_3   0.551951 0.964522 0.042716 -0.179697
C9    C     C_3   0.449458 0.101964 0.050495 0.059288
C10   C     C_3   0.550378 0.897970 0.948455 0.064946
C11   C     C_3   0.446998 0.034886 0.077255 -0.179972
C12   C     C_3   0.552815 0.964968 0.921591 -0.187821
C13   C     C_3   0.981627 0.429315 0.445684 -0.295232
C14   C     C_3   0.018378 0.570162 0.553970 -0.288399
C15   C     C_3   0.076429 0.405270 0.447458 0.109439
C16   C     C_3   0.923598 0.594165 0.552126 0.107408
C17   C     C_3   0.051899 0.500402 0.448891 -0.022360
C18   C     C_3   0.948155 0.499120 0.550777 -0.022299
C19   C     C_3   0.957089 0.526183 0.448931 0.111384
C20   C     C_3   0.042966 0.473244 0.550663 0.105953
C21   C     C_3   0.950626 0.033810 0.455193 -0.130669
C22   C     C_3   0.045365 0.963926 0.546023 -0.066197
C23   C     C_R   0.608154 0.783331 0.891441 0.766828
C24   C     C_R   0.391822 0.216647 0.108146 0.775515
C25   C     C_3   0.950280 0.960225 0.474141 0.446459
C26   C     C_3   0.046604 0.038040 0.527851 0.319968
C27   C     C_3   0.053920 0.896006 0.447195 -0.232681
C28   C     C_3   0.941055 0.103502 0.554985 -0.321236
C29   C     C_3   0.054459 0.970473 0.428530 0.354767
C30   C     C_3   0.941548 0.027867 0.573926 0.395328
C31   C     C_3   0.983781 0.428322 0.982307 -0.214730
C32   C     C_3   0.016319 0.571487 0.017551 -0.212579
C33   C     C_3   0.958168 0.524262 0.075806 0.145182
C34   C     C_3   0.041934 0.475552 0.924061 0.143979
C35   C     C_3   0.051806 0.500210 0.050923 0.015696
C36   C     C_3   0.948298 0.499617 0.948948 0.014249
C37   C     C_3   0.079414 0.403658 0.956259 -0.212633
C38   C     C_3   0.920696 0.596149 0.043604 -0.210389
C39   C     C_3   0.555499 0.404909 0.925843 0.500105
C40   C     C_3   0.445073 0.596078 0.075741 0.403535
C41   C     C_3   0.450524 0.468182 0.954735 -0.531506
C42   C     C_3   0.549877 0.532922 0.046313 -0.520339
C43   C     C_3   0.449622 0.499309 0.051793 -0.218284
C44   C     C_3   0.550554 0.501757 0.949540 -0.180820
C45   C     C_R   0.608221 0.500188 0.891521 0.876411
C46   C     C_R   0.391794 0.500227 0.108947 0.866420
C47   C     C_3   0.553782 0.435912 0.021891 0.484605
C48   C     C_3   0.446039 0.565865 0.980136 0.455748
C49   C     C_R   0.891328 0.499906 0.608489 0.836512
C50   C     C_R   0.108692 0.499993 0.391463 0.835650
C51   C     C_R   0.891619 0.499696 0.891426 0.813016
C52   C     C_R   0.108425 0.500244 0.108521 0.806347
C53   C     C_R   0.608139 0.500458 0.608723 0.811140
C54   C     C_R   0.391849 0.499700 0.391360 0.814403
C55   C     C_3   0.561806 0.511193 0.473760 -0.324064
C56   C     C_3   0.437751 0.490299 0.526892 -0.256062
C57   C     C_3   0.457089 0.591332 0.506651 -0.384616
C58   C     C_3   0.541971 0.410080 0.493972 -0.361683
C59   C     C_3   0.449445 0.499692 0.448199 -0.058657
C60   C     C_3   0.550285 0.501169 0.552281 -0.073507
H1    H     H_    0.422721 0.663189 0.508175 0.149830
H2    H     H_    0.577389 0.336385 0.489545 0.149468
H3    H     H_    0.968509 0.371495 0.969070 0.151766
H4    H     H_    0.031544 0.628318 0.030710 0.154739
H5    H     H_    0.145458 0.325857 0.920535 0.139545
H6    H     H_    0.854648 0.673938 0.079307 0.139663
H7    H     H_    0.407710 0.443960 0.921645 0.164094
H8    H     H_    0.589021 0.561564 0.082636 0.172735
H9    H     H_    0.613581 0.519471 0.453407 0.151415
H10   H     H_    0.385208 0.483556 0.548366 0.160633
H11   H     H_    0.404139 0.066896 0.921930 0.136909
H12   H     H_    0.595618 0.933360 0.077154 0.130720
H13   H     H_    0.403055 0.937482 0.966779 0.149015
H14   H     H_    0.596822 0.062340 0.031725 0.152131
H15   H     H_    0.402630 0.065541 0.142082 0.136097
H16   H     H_    0.597265 0.933830 0.856594 0.136296
H17   H     H_    0.966904 0.372195 0.401577 0.160875
H18   H     H_    0.033073 0.627276 0.598117 0.168117
O1    O     O_3   0.750010 0.499980 0.749990 -0.488235
O2    O     O_3   0.249990 0.500020 0.250010 -0.498642
O3    O     O_R   0.571190 0.561490 0.867270 -0.605915
O4    O     O_R   0.428810 0.438510 0.132730 -0.648285
O5    O     O_R   0.867310 0.438490 0.571220 -0.649343
O6    O     O_R   0.132690 0.561510 0.428780 -0.638881
O7    O     O_R   0.867280 0.265380 0.694210 -0.660526
O8    O     O_R   0.132720 0.734620 0.305790 -0.607750
O9    O     O_R   0.694250 0.734550 0.867270 -0.643233
O10   O     O_R   0.305750 0.265450 0.132730 -0.646202
O11   O     O_R   0.867280 0.265410 0.571220 -0.643460
O12   O     O_R   0.132720 0.734590 0.428780 -0.632642
O13   O     O_R   0.571230 0.734580 0.867270 -0.657796
O14   O     O_R   0.428770 0.265420 0.132730 -0.641192
O15   O     O_R   0.694200 0.438470 0.867270 -0.660389
O16   O     O_R   0.305800 0.561530 0.132730 -0.629045
O17   O     O_R   0.867340 0.561470 0.694210 -0.648480
O18   O     O_R   0.132660 0.438530 0.305790 -0.651194
O19   O     O_R   0.867310 0.438430 0.867270 -0.650507
O20   O     O_R   0.132690 0.561570 0.132730 -0.649552
O21   O     O_R   0.694200 0.438520 0.571220 -0.658759
O22   O     O_R   0.305800 0.561480 0.428780 -0.654224
O23   O     O_R   0.867340 0.561440 0.867270 -0.646113
O24   O     O_R   0.132660 0.438560 0.132730 -0.647914
O25   O     O_R   0.571190 0.561530 0.694210 -0.613376
O26   O     O_R   0.428810 0.438470 0.305790 -0.611578
Zn1   Zn    Zn3+2 0.618190 0.587870 0.793920 0.984957
Zn2   Zn    Zn3+2 0.381810 0.412130 0.206080 0.975784
Zn3   Zn    Zn3+2 0.793940 0.412090 0.793920 0.951510
Zn4   Zn    Zn3+2 0.206060 0.587910 0.206080 0.996227
Zn5   Zn    Zn3+2 0.793970 0.587840 0.793920 0.961295
Zn6   Zn    Zn3+2 0.206030 0.412160 0.206080 0.959136
Zn7   Zn    Zn3+2 0.793940 0.412130 0.618200 0.955511
Zn8   Zn    Zn3+2 0.206060 0.587870 0.381800 0.984280
O27   O     O_3   0.904316 0.912397 0.443492 -0.629956
C61   C     C_3   0.810198 0.988671 0.472027 0.146782
H19   H     H_    0.794491 0.998547 0.416871 0.147635
H20   H     H_    0.785681 0.066521 0.534391 0.135032
C62   C     C_3   0.758503 0.950928 0.490986 -0.313259
H21   H     H_    0.780365 0.874323 0.429220 0.231569
H22   H     H_    0.774516 0.940406 0.545793 0.239308
C63   C     C_3   0.656228 0.028779 0.519669 -1.005188
H23   H     H_    0.632673 0.105796 0.581814 0.258694
H24   H     H_    0.620769 0.999595 0.533905 0.273094
H25   H     H_    0.638388 0.038455 0.464877 0.268327
O28   O     O_3   0.092462 0.085464 0.562425 -0.642407
C64   C     C_3   0.187548 0.011129 0.520471 0.107895
H26   H     H_    0.211166 0.025209 0.475415 0.149299
H27   H     H_    0.210306 0.928215 0.478868 0.128838
C65   C     C_3   0.233391 0.026763 0.592529 -0.340233
H28   H     H_    0.214021 0.108063 0.631949 0.239469
H29   H     H_    0.210182 0.014544 0.639647 0.209457
C66   C     C_3   0.336503 0.950759 0.549898 -0.992578
H30   H     H_    0.357645 0.869011 0.514102 0.261181
H31   H     H_    0.368043 0.966531 0.603393 0.270058
H32   H     H_    0.361264 0.960334 0.501284 0.270396
N1    N     N_3   0.895997 0.070312 0.406189 -0.466688
H33   H     H_    0.920600 0.005354 0.339859 0.201844
H34   H     H_    0.906953 0.120296 0.403338 0.209543
N2    N     N_3   0.098649 0.923159 0.593511 -0.398356
H35   H     H_    0.093859 0.984926 0.651150 0.176712
H36   H     H_    0.166702 0.870540 0.552550 0.177374
O29   O     O_3   0.115766 0.932798 0.349823 -0.629089
C67   C     C_3   0.104662 0.016102 0.350087 0.112714
H37   H     H_    0.166677 0.013839 0.355372 0.145445
H38   H     H_    0.046396 0.095395 0.407279 0.148716
C68   C     C_3   0.094522 0.000943 0.260663 -0.329373
H39   H     H_    0.153610 0.922872 0.203628 0.227748
H40   H     H_    0.032051 0.004299 0.253883 0.215547
C69   C     C_3   0.089210 0.084811 0.255137 -1.002788
H41   H     H_    0.030834 0.163723 0.311756 0.270294
H42   H     H_    0.080161 0.072920 0.190327 0.272199
H43   H     H_    0.152636 0.080178 0.258152 0.260289
O30   O     O_3   0.889069 0.032082 0.635969 -0.642775
C70   C     C_3   0.843940 0.126532 0.722526 0.130571
H44   H     H_    0.795829 0.125707 0.759658 0.189126
H45   H     H_    0.800666 0.194749 0.720112 0.169217
C71   C     C_3   0.909256 0.134744 0.775142 -0.352613
H46   H     H_    0.953064 0.061121 0.770280 0.228868
H47   H     H_    0.953218 0.146136 0.745832 0.237565
C72   C     C_3   0.858287 0.225415 0.874734 -0.890595
H48   H     H_    0.817653 0.300575 0.882077 0.308161
H49   H     H_    0.907578 0.226458 0.911140 0.237070
H50   H     H_    0.812760 0.217036 0.906096 0.274442
N3    N     N_3   0.912901 0.551870 0.161042 -0.459506
H51   H     H_    0.850725 0.562593 0.158716 0.176767
H52   H     H_    0.951520 0.487171 0.163486 0.188695
N4    N     N_3   0.087189 0.448007 0.838859 -0.459909
H53   H     H_    0.149342 0.437329 0.841237 0.176972
H54   H     H_    0.048560 0.512746 0.836469 0.190889
O31   O     O_3   0.622925 0.305084 0.847473 -0.657618
C73   C     C_3   0.591455 0.241330 0.810307 0.038946
H55   H     H_    0.640707 0.173335 0.741446 0.165608
H56   H     H_    0.525382 0.281031 0.800705 0.134897
C74   C     C_3   0.587680 0.200147 0.865629 -0.298704
H57   H     H_    0.654072 0.163449 0.875740 0.244877
H58   H     H_    0.534281 0.265530 0.932836 0.235348
C75   C     C_3   0.566222 0.119843 0.818099 -0.998163
H59   H     H_    0.499896 0.155083 0.807555 0.263306
H60   H     H_    0.562448 0.093074 0.860505 0.268516
H61   H     H_    0.620139 0.051247 0.751754 0.271265
O32   O     O_3   0.383741 0.693776 0.158141 -0.642532
C76   C     C_3   0.389581 0.771428 0.164299 0.139063
H62   H     H_    0.332900 0.816270 0.146608 0.157144
H63   H     H_    0.454510 0.740204 0.118778 0.127686
C77   C     C_3   0.380114 0.844648 0.261573 -0.345330
H64   H     H_    0.318907 0.871621 0.308676 0.235232
H65   H     H_    0.440229 0.801347 0.277005 0.216100
C78   C     C_3   0.372554 0.939268 0.276702 -1.001786
H66   H     H_    0.434145 0.913971 0.231499 0.268316
H67   H     H_    0.365798 0.990517 0.347928 0.268242
H68   H     H_    0.311871 0.984757 0.263260 0.262742
O33   O     O_3   0.609767 0.361920 0.039934 -0.642461
C79   C     C_3   0.616359 0.411940 0.126920 0.148642
H69   H     H_    0.615565 0.372303 0.157703 0.179006
H70   H     H_    0.557596 0.495491 0.174359 0.139667
C80   C     C_3   0.706389 0.400779 0.119190 -0.384300
H71   H     H_    0.762667 0.319483 0.093759 0.217797
H72   H     H_    0.719729 0.415843 0.069992 0.239791
C81   C     C_3   0.705581 0.476816 0.210108 -0.983324
H73   H     H_    0.655185 0.558450 0.232204 0.265762
H74   H     H_    0.773676 0.461637 0.203680 0.265122
H75   H     H_    0.687812 0.467531 0.262132 0.264271
O34   O     O_3   0.393142 0.636231 0.957705 -0.624773
C82   C     C_3   0.300584 0.676458 0.987021 0.102247
H76   H     H_    0.259840 0.762247 0.020967 0.143434
H77   H     H_    0.283045 0.664692 0.037632 0.168956
C83   C     C_3   0.272726 0.629168 0.905413 -0.326155
H78   H     H_    0.280614 0.651882 0.860667 0.243957
H79   H     H_    0.317530 0.542667 0.866102 0.217309
C84   C     C_3   0.174512 0.666406 0.934612 -0.987523
H80   H     H_    0.165887 0.641671 0.977249 0.268695
H81   H     H_    0.156109 0.631698 0.873980 0.264215
H82   H     H_    0.128089 0.752830 0.973328 0.268146
O35   O     O_3   0.604065 0.338211 0.324477 -0.638812
C85   C     C_3   0.695076 0.269682 0.314582 0.072247
H83   H     H_    0.715029 0.188558 0.267981 0.161522
H84   H     H_    0.706321 0.278856 0.378348 0.140408
C86   C     C_3   0.757300 0.282678 0.272808 -0.339805
H85   H     H_    0.748726 0.270057 0.207623 0.230246
H86   H     H_    0.738745 0.363076 0.319176 0.213140
C87   C     C_3   0.856560 0.205542 0.256341 -0.965645
H87   H     H_    0.866778 0.218311 0.321105 0.270068
H88   H     H_    0.899820 0.217223 0.226310 0.267772
H89   H     H_    0.877807 0.123981 0.209002 0.262554
O36   O     O_3   0.395110 0.656536 0.677739 -0.631819
C88   C     C_3   0.357458 0.758685 0.702626 0.093845
H90   H     H_    0.301538 0.813380 0.768128 0.167965
H91   H     H_    0.325303 0.773051 0.654496 0.122641
C89   C     C_3   0.427632 0.784102 0.716430 -0.345475
H92   H     H_    0.456702 0.770506 0.766070 0.258350
H93   H     H_    0.483632 0.732521 0.651627 0.207163
C90   C     C_3   0.384753 0.897519 0.751486 -0.998490
H94   H     H_    0.353371 0.913854 0.703992 0.272797
H95   H     H_    0.437731 0.912441 0.757766 0.268184
H96   H     H_    0.332094 0.950972 0.819015 0.264616
N5    N     N_3   0.162010 0.302309 0.391102 -0.465927
H97   H     H_    0.158737 0.253777 0.404213 0.193617
H98   H     H_    0.165329 0.273347 0.323876 0.189914
N6    N     N_3   0.837846 0.696943 0.608359 -0.466237
H99   H     H_    0.840809 0.745499 0.595066 0.199400
H100  H     H_    0.834468 0.726098 0.675618 0.190853
N7    N     N_3   0.909768 0.558141 0.394209 -0.454047
H101  H     H_    0.847461 0.569334 0.407812 0.190606
H102  H     H_    0.946963 0.495172 0.326547 0.187186
N8    N     N_3   0.090255 0.441210 0.605357 -0.453959
H103  H     H_    0.152641 0.429817 0.591660 0.191169
H104  H     H_    0.053135 0.504196 0.673024 0.187957

loop_
_geom_bond_atom_site_label_1
_geom_bond_atom_site_label_2
_ccdc_geom_bond_type
O11   Zn7   S    
C58   H2    S    
N4    H54   S    
C82   H76   S    
N8    H104  S    
C51   O19   A    
C62   H21   S    
C48   O34   S    
C27   C29   S    
C34   C37   S    
N5    H98   S    
O31   C73   S    
O13   Zn1   S    
N3    H51   S    
C67   C68   S    
C69   H43   S    
O12   Zn8   S    
C66   H32   S    
C45   O15   A    
O36   C88   S    
C84   H82   S    
C6    C9    S    
C89   H93   S    
C68   H39   S    
C50   O6    A    
N1    H33   S    
C41   H7    S    
C74   H57   S    
C53   O21   A    
C86   C87   S    
C82   H77   S    
C52   O24   A    
O6    Zn8   S    
C42   C44   S    
C13   C18   S    
C54   O26   A    
C71   H46   S    
N3    H52   S    
C69   H42   S    
C5    C11   S    
C62   H22   S    
C7    H11   S    
C33   C35   S    
C85   H84   S    
C74   C75   S    
C73   H55   S    
C58   C60   S    
O2    Zn2   S    
C4    C56   S    
C88   C89   S    
O20   Zn4   S    
N8    H103  S    
O1    Zn1   S    
C15   C17   S    
N7    H101  S    
C52   O20   A    
C2    O12   A    
C87   H87   S    
C78   H68   S    
C17   C19   S    
C40   O32   S    
C3    C55   S    
C71   H47   S    
O25   Zn1   S    
C75   H61   S    
C38   H6    S    
O5    Zn7   S    
C77   H65   S    
C28   C30   S    
C37   H5    S    
C4    C57   S    
C1    C28   S    
N5    H97   S    
C72   H49   S    
C81   H73   S    
C14   C16   S    
C32   C38   S    
C70   H45   S    
C31   C36   S    
C18   C20   S    
C63   H25   S    
C80   C81   S    
O10   Zn6   S    
C40   C42   S    
O23   Zn5   S    
C16   N6    S    
C23   O9    A    
C2    C27   S    
C65   H28   S    
C42   H8    S    
C41   C43   S    
C14   C17   S    
C54   O22   A    
C15   C20   S    
C26   O28   S    
C24   O14   A    
O26   Zn2   S    
C89   H92   S    
C68   H40   S    
C53   C60   S    
C63   H24   S    
C6    H14   S    
C13   H17   S    
C54   C59   S    
C40   C43   S    
C1    O7    A    
C7    C12   S    
C88   H91   S    
C82   C83   S    
N6    H100  S    
C8    H12   S    
O34   C82   S    
O1    Zn5   S    
O33   C79   S    
C32   C35   S    
C14   C20   S    
C69   H41   S    
C32   H4    S    
C39   C41   S    
O17   Zn5   S    
C76   H63   S    
C5    C7    S    
C13   C19   S    
C83   H78   S    
C89   C90   S    
C6    C8    S    
C86   H85   S    
C4    O36   S    
C21   C29   S    
O2    Zn8   S    
C9    C24   S    
C31   C37   S    
N7    H102  S    
C79   H70   S    
C76   H62   S    
C79   C80   S    
C25   O27   S    
C14   H18   S    
C64   C65   S    
C24   O10   A    
C8    C11   S    
C30   O30   S    
C72   H48   S    
C46   O16   A    
O35   C85   S    
C55   C60   S    
O16   Zn4   S    
C4    C60   S    
C81   H75   S    
C31   C33   S    
C84   H80   S    
C72   H50   S    
O1    Zn3   S    
C90   H95   S    
C16   C18   S    
C49   O17   A    
C70   C71   S    
C57   H1    S    
C9    C11   S    
C55   H9    S    
C36   C51   S    
C10   C12   S    
O9    Zn5   S    
O14   Zn2   S    
C75   H59   S    
C21   C28   S    
O22   Zn8   S    
C56   H10   S    
C22   C27   S    
C55   C57   S    
C12   H16   S    
C64   H26   S    
N1    H34   S    
C23   O13   A    
C62   C63   S    
C57   C59   S    
C51   O23   A    
C47   O33   S    
O2    Zn6   S    
C66   H30   S    
C29   O29   S    
C65   C66   S    
C90   H94   S    
C68   C69   S    
C63   H23   S    
C35   C37   S    
O7    Zn3   S    
C39   C47   S    
O27   C61   S    
C76   C77   S    
C25   C30   S    
C40   C48   S    
O3    Zn1   S    
C21   C25   S    
N6    H99   S    
C1    O11   A    
C22   C30   S    
C88   H90   S    
C85   H83   S    
C71   C72   S    
O8    Zn4   S    
C44   C45   S    
C74   H58   S    
C81   H74   S    
C66   H31   S    
C85   C86   S    
C65   H29   S    
C17   C50   S    
C61   H20   S    
C77   C78   S    
C33   N3    S    
C61   H19   S    
C39   C44   S    
N2    H36   S    
C46   O4    A    
C10   C23   S    
C25   C27   S    
C31   H3    S    
C5    H13   S    
O21   Zn7   S    
O2    Zn4   S    
C26   C28   S    
C33   C38   S    
C56   C59   S    
O1    Zn7   S    
C87   H88   S    
C79   H69   S    
C49   O5    A    
C13   C15   S    
C5    C10   S    
C39   O31   S    
C11   H15   S    
O29   C67   S    
O15   Zn3   S    
C36   C38   S    
C6    C12   S    
C83   C84   S    
C50   O18   A    
C22   N2    S    
N4    H53   S    
O18   Zn6   S    
C53   O25   A    
C16   C19   S    
C75   H60   S    
C84   H81   S    
C41   C48   S    
C56   C58   S    
C2    O8    A    
C90   H96   S    
C34   C36   S    
C42   C47   S    
O4    Zn2   S    
C20   N8    S    
C86   H86   S    
C43   C46   S    
C78   H67   S    
C61   C62   S    
O24   Zn6   S    
N2    H35   S    
C19   N7    S    
C80   H71   S    
O19   Zn3   S    
C3    C58   S    
C7    C9    S    
C3    O35   S    
C78   H66   S    
O30   C70   S    
C26   C29   S    
C8    C10   S    
C22   C26   S    
C15   N5    S    
C35   C52   S    
C64   H27   S    
C67   H37   S    
C77   H64   S    
C73   H56   S    
C45   O3    A    
C70   H44   S    
C34   N4    S    
C83   H79   S    
C43   C47   S    
C21   N1    S    
C87   H89   S    
C67   H38   S    
O32   C76   S    
C44   C48   S    
C18   C49   S    
C32   C34   S    
O28   C64   S    
C80   H72   S    
C73   C74   S    
C3    C59   S    
