data_mof_unit_57663.cif
_audit_creation_date              2012-12-11T14:38:10-0500
_audit_creation_method            fapswitch 2.2
_symmetry_space_group_name_H-M    P1
_symmetry_Int_Tables_number       1
_space_group_crystal_system       triclinic
_cell_length_a                    19.462697
_cell_length_b                    11.014891
_cell_length_c                    19.717923
_cell_angle_alpha                 89.888707
_cell_angle_beta                  96.534864
_cell_angle_gamma                 89.741013
_cell_volume                      4199.59797242

loop_
_atom_site_label
_atom_site_type_symbol
_atom_type_description
_atom_site_fract_x
_atom_site_fract_y
_atom_site_fract_z
_atom_type_partial_charge
C1    C     C_R   0.707432 0.997427 0.366312 0.553253
C2    C     C_R   0.292556 0.997753 0.633506 0.556504
C3    C     C_R   0.207432 0.497426 0.366312 0.553257
C4    C     C_R   0.792556 0.497753 0.633506 0.556506
C5    C     C_3   0.683592 0.450305 0.458896 -0.039413
C6    C     C_3   0.316336 0.449158 0.540949 -0.041582
C7    C     C_3   0.183592 0.950305 0.458896 -0.039411
C8    C     C_3   0.816336 0.949158 0.540949 -0.041581
C9    C     C_3   0.827724 0.535829 0.516933 -0.259900
C10   C     C_3   0.172073 0.536370 0.482492 -0.260525
C11   C     C_3   0.327724 0.035828 0.516933 -0.259901
C12   C     C_3   0.672073 0.036371 0.482492 -0.260525
C13   C     C_3   0.792732 0.330755 0.550181 -0.224560
C14   C     C_3   0.207550 0.330657 0.450086 -0.225509
C15   C     C_3   0.292732 0.830755 0.550181 -0.224560
C16   C     C_3   0.707550 0.830657 0.450086 -0.225510
C17   C     C_3   0.777839 0.465942 0.560320 0.007790
C18   C     C_3   0.222135 0.465636 0.439495 0.010482
C19   C     C_3   0.277839 0.965942 0.560320 0.007787
C20   C     C_3   0.722135 0.965637 0.439495 0.010480
C21   C     C_3   0.752599 0.412133 0.430846 0.033980
C22   C     C_3   0.247296 0.412272 0.569107 0.030282
C23   C     C_3   0.252599 0.912133 0.430846 0.033979
C24   C     C_3   0.747296 0.912273 0.569107 0.030284
C25   C     C_3   0.806621 0.514955 0.439773 -0.239760
C26   C     C_3   0.193302 0.516039 0.559750 -0.238039
C27   C     C_3   0.306621 0.014954 0.439773 -0.239759
C28   C     C_3   0.693302 0.016039 0.559750 -0.238041
C29   C     C_3   0.784920 0.303907 0.474834 -0.262469
C30   C     C_3   0.214980 0.304378 0.525510 -0.263614
C31   C     C_3   0.284920 0.803907 0.474834 -0.262470
C32   C     C_3   0.714979 0.804378 0.525510 -0.263614
C33   C     C_3   0.486221 0.302297 0.962612 -0.297728
C34   C     C_3   0.511034 0.303388 0.037360 -0.299629
C35   C     C_3   0.985943 0.802179 0.962663 -0.297727
C36   C     C_3   0.010755 0.803275 0.037411 -0.299592
C37   C     C_3   0.450312 0.086394 0.970000 -0.195814
C38   C     C_3   0.597463 0.135146 0.023183 -0.197996
C39   C     C_3   0.950428 0.586071 0.969971 -0.195774
C40   C     C_3   0.097484 0.635545 0.023169 -0.198007
C41   C     C_3   0.574735 0.142433 0.945041 0.157383
C42   C     C_3   0.474935 0.083478 0.047140 0.163634
C43   C     C_3   0.074749 0.642867 0.945036 0.157326
C44   C     C_3   0.975051 0.583166 0.047113 0.163540
C45   C     C_R   0.535698 0.180336 0.338627 0.532237
C46   C     C_R   0.464241 0.180232 0.661332 0.540321
C47   C     C_R   0.035701 0.680337 0.338628 0.532225
C48   C     C_R   0.964241 0.680232 0.661333 0.540343
C49   C     C_3   0.495738 0.173453 0.931740 0.024519
C50   C     C_3   0.536033 0.174641 0.062617 0.037401
C51   C     C_3   0.995703 0.673453 0.931745 0.024467
C52   C     C_3   0.035993 0.674631 0.062620 0.037401
C53   C     C_1   0.779094 0.472165 0.913942 -0.023705
C54   C     C_1   0.242867 0.412614 0.099230 -0.015535
C55   C     C_1   0.279095 0.972180 0.913943 -0.023698
C56   C     C_1   0.742862 0.912624 0.099228 -0.015615
C57   C     C_1   0.756539 0.433558 0.040648 -0.063896
C58   C     C_1   0.264883 0.361945 0.973446 -0.039437
C59   C     C_1   0.256531 0.933573 0.040647 -0.063932
C60   C     C_1   0.764867 0.861969 0.973441 -0.039298
C61   C     C_1   0.767961 0.455470 0.972183 -0.058581
C62   C     C_1   0.254905 0.386987 0.042148 -0.042465
C63   C     C_1   0.267955 0.955488 0.972182 -0.058554
C64   C     C_1   0.754893 0.887004 0.042143 -0.042486
C65   C     C_1   0.747601 0.407111 0.098376 -0.026633
C66   C     C_1   0.271134 0.340844 0.914293 -0.012633
C67   C     C_1   0.247596 0.907117 0.098375 -0.026727
C68   C     C_1   0.771121 0.840866 0.914289 -0.012458
C69   C     C_R   0.740368 0.366117 0.360131 0.556078
C70   C     C_R   0.259526 0.366182 0.639915 0.568098
C71   C     C_R   0.240369 0.866116 0.360131 0.556078
C72   C     C_R   0.759526 0.866182 0.639915 0.568092
C73   C     C_R   0.722793 0.952491 0.163708 0.544623
C74   C     C_R   0.294091 0.995991 0.845507 0.536402
C75   C     C_R   0.222794 0.452490 0.163708 0.544674
C76   C     C_R   0.794090 0.495985 0.845508 0.536404
C77   C     C_R   0.559527 0.181980 0.136480 0.554006
C78   C     C_R   0.469059 0.179001 0.858823 0.563691
C79   C     C_R   0.059508 0.681976 0.136476 0.554004
C80   C     C_R   0.969049 0.679002 0.858826 0.563743
C81   C     C_R   0.736628 0.360843 0.164380 0.539803
C82   C     C_R   0.277257 0.311494 0.844033 0.536474
C83   C     C_R   0.236628 0.860843 0.164379 0.539796
C84   C     C_R   0.777253 0.811503 0.844034 0.536459
C85   C     C_1   0.485608 0.173132 0.594220 -0.015334
C86   C     C_1   0.514146 0.173195 0.405667 -0.018923
C87   C     C_1   0.985609 0.673132 0.594221 -0.015333
C88   C     C_1   0.014148 0.673195 0.405669 -0.018925
C89   C     C_1   0.503951 0.170511 0.464823 -0.053822
C90   C     C_1   0.495697 0.170482 0.535039 -0.053197
C91   C     C_1   0.003954 0.670511 0.464824 -0.053823
C92   C     C_1   0.995699 0.670482 0.535040 -0.053198
C93   C     C_3   0.699376 0.484485 0.534421 -0.218347
C94   C     C_3   0.300526 0.483532 0.465378 -0.217839
C95   C     C_3   0.199376 0.984485 0.534421 -0.218346
C96   C     C_3   0.800526 0.983532 0.465378 -0.217839
Cr1   Cr    Cr6+3 0.765780 0.160710 0.267420 1.015943
Cr2   Cr    Cr6+3 0.234220 0.160710 0.732580 1.025798
Cr3   Cr    Cr6+3 0.265780 0.660710 0.267420 1.015979
Cr4   Cr    Cr6+3 0.734220 0.660710 0.732580 1.025824
Cr5   Cr    Cr6+3 0.612200 0.009560 0.248850 1.047374
Cr6   Cr    Cr6+3 0.387800 0.009560 0.751150 1.025238
Cr7   Cr    Cr6+3 0.112200 0.509560 0.248850 1.047273
Cr8   Cr    Cr6+3 0.887800 0.509560 0.751150 1.025156
Cr9   Cr    Cr6+3 0.616030 0.323720 0.248510 1.055645
Cr10  Cr    Cr6+3 0.383970 0.323720 0.751490 1.064303
Cr11  Cr    Cr6+3 0.116030 0.823720 0.248510 1.055638
Cr12  Cr    Cr6+3 0.883970 0.823720 0.751490 1.064310
H1    H     H_    0.680734 0.576188 0.544785 0.150776
H2    H     H_    0.318782 0.575210 0.454850 0.151607
H3    H     H_    0.180734 0.076188 0.544785 0.150776
H4    H     H_    0.818782 0.075210 0.454850 0.151607
H5    H     H_    0.837283 0.281350 0.460410 0.163015
H6    H     H_    0.162476 0.283185 0.539800 0.162916
H7    H     H_    0.337283 0.781350 0.460410 0.163017
H8    H     H_    0.662476 0.783185 0.539800 0.162918
H9    H     H_    0.880784 0.498035 0.529761 0.134339
H10   H     H_    0.119137 0.498854 0.469922 0.134719
H11   H     H_    0.380784 0.998035 0.529761 0.134340
H12   H     H_    0.619136 0.998855 0.469922 0.134719
H13   H     H_    0.853334 0.489591 0.415121 0.127197
H14   H     H_    0.146653 0.491902 0.584671 0.132152
H15   H     H_    0.353334 0.989591 0.415121 0.127205
H16   H     H_    0.646653 0.991903 0.584671 0.132156
H17   H     H_    0.430707 0.330357 0.955255 0.147841
H18   H     H_    0.554010 0.370030 0.046974 0.150394
H19   H     H_    0.930382 0.829924 0.955306 0.147633
H20   H     H_    0.053607 0.870152 0.047039 0.150487
H21   H     H_    0.515760 0.372223 0.937140 0.150030
H22   H     H_    0.467433 0.335322 0.064991 0.155273
H23   H     H_    0.015356 0.872332 0.937229 0.150116
H24   H     H_    0.967107 0.834896 0.065068 0.155180
H25   H     H_    0.395763 0.119133 0.962835 0.055246
H26   H     H_    0.642135 0.196878 0.036459 0.072011
H27   H     H_    0.895826 0.618525 0.962815 0.055313
H28   H     H_    0.142055 0.697483 0.036472 0.072103
H29   H     H_    0.431859 0.115929 0.075657 0.110821
H30   H     H_    0.601396 0.224150 0.927605 0.151068
H31   H     H_    0.931920 0.615336 0.075640 0.110806
H32   H     H_    0.101265 0.724765 0.927632 0.151119
H33   H     H_    0.616168 0.043356 0.039563 0.170841
H34   H     H_    0.448741 0.993598 0.948404 0.148480
H35   H     H_    0.116335 0.543813 0.039501 0.170796
H36   H     H_    0.949018 0.493299 0.948345 0.148596
H37   H     H_    0.667905 0.424690 0.564403 0.137812
H38   H     H_    0.332229 0.423590 0.435546 0.135513
H39   H     H_    0.167905 0.924690 0.564403 0.137817
H40   H     H_    0.832229 0.923590 0.435546 0.135512
H41   H     H_    0.649635 0.368789 0.456091 0.106599
H42   H     H_    0.350256 0.367029 0.543950 0.105311
H43   H     H_    0.149635 0.868789 0.456091 0.106599
H44   H     H_    0.850256 0.867029 0.543950 0.105310
H45   H     H_    0.335456 0.132599 0.529088 0.088165
H46   H     H_    0.664104 0.133076 0.469674 0.089334
H47   H     H_    0.835456 0.632600 0.529088 0.088165
H48   H     H_    0.164104 0.633075 0.469674 0.089336
H49   H     H_    0.286333 0.098705 0.414399 0.151520
H50   H     H_    0.713722 0.099741 0.584499 0.154904
H51   H     H_    0.786333 0.598705 0.414399 0.151520
H52   H     H_    0.213721 0.599741 0.584499 0.154910
H53   H     H_    0.846539 0.306010 0.570985 0.187823
H54   H     H_    0.153900 0.306214 0.429145 0.188569
H55   H     H_    0.346539 0.806010 0.570985 0.187824
H56   H     H_    0.653900 0.806214 0.429145 0.188569
H57   H     H_    0.756689 0.275894 0.576825 0.157963
H58   H     H_    0.243955 0.275292 0.423979 0.154182
H59   H     H_    0.256689 0.775894 0.576825 0.157967
H60   H     H_    0.743954 0.775293 0.423979 0.154181
H61   H     H_    0.752776 0.224649 0.465192 0.112809
H62   H     H_    0.246928 0.224473 0.535803 0.112567
H63   H     H_    0.252776 0.724649 0.465192 0.112808
H64   H     H_    0.746928 0.724473 0.535803 0.112566
O1    O     O_R   0.783100 0.287550 0.345460 -0.543575
O2    O     O_R   0.216900 0.287550 0.654540 -0.539475
O3    O     O_R   0.283100 0.787550 0.345460 -0.543566
O4    O     O_R   0.716900 0.787550 0.654540 -0.539471
O5    O     O_R   0.554710 0.081900 0.170950 -0.450795
O6    O     O_R   0.445290 0.081900 0.829050 -0.521300
O7    O     O_R   0.054710 0.581900 0.170950 -0.450980
O8    O     O_R   0.945290 0.581900 0.829050 -0.521448
O9    O     O_R   0.545650 0.284910 0.163740 -0.533681
O10   O     O_R   0.454350 0.284910 0.836260 -0.533773
O11   O     O_R   0.045650 0.784910 0.163740 -0.533677
O12   O     O_R   0.954350 0.784910 0.836260 -0.533730
O13   O     O_R   0.677950 0.374280 0.185410 -0.498968
O14   O     O_R   0.322050 0.374280 0.814590 -0.472279
O15   O     O_R   0.177950 0.874280 0.185410 -0.498935
O16   O     O_R   0.822050 0.874280 0.814590 -0.472340
O17   O     O_3   0.664670 0.164660 0.254930 -0.301069
O18   O     O_3   0.335330 0.164660 0.745070 -0.324144
O19   O     O_3   0.164670 0.664660 0.254930 -0.301030
O20   O     O_3   0.835330 0.664660 0.745070 -0.324133
O21   O     O_R   0.760020 0.037400 0.337700 -0.505478
O22   O     O_R   0.239980 0.037400 0.662300 -0.497463
O23   O     O_R   0.260020 0.537400 0.337700 -0.505479
O24   O     O_R   0.739980 0.537400 0.662300 -0.497472
O25   O     O_R   0.666600 0.921990 0.332020 -0.499720
O26   O     O_R   0.333400 0.921990 0.667980 -0.489905
O27   O     O_R   0.166600 0.421990 0.332020 -0.499733
O28   O     O_R   0.833400 0.421990 0.667980 -0.489911
O29   O     O_R   0.557260 0.082670 0.312540 -0.518131
O30   O     O_R   0.442740 0.082670 0.687460 -0.513517
O31   O     O_R   0.057260 0.582670 0.312540 -0.518170
O32   O     O_R   0.942740 0.582670 0.687460 -0.513537
O33   O     O_R   0.548410 0.285740 0.316480 -0.487195
O34   O     O_R   0.451590 0.285740 0.683520 -0.486461
O35   O     O_R   0.048410 0.785740 0.316480 -0.487195
O36   O     O_R   0.951590 0.785740 0.683520 -0.486440
O37   O     O_R   0.680500 0.375040 0.327000 -0.462537
O38   O     O_R   0.319500 0.375040 0.673000 -0.457200
O39   O     O_R   0.180500 0.875040 0.327000 -0.462542
O40   O     O_R   0.819500 0.875040 0.673000 -0.457205
O41   O     O_R   0.780350 0.286720 0.192720 -0.516512
O42   O     O_R   0.219650 0.286720 0.807280 -0.500210
O43   O     O_R   0.280350 0.786720 0.192720 -0.516509
O44   O     O_R   0.719650 0.786720 0.807280 -0.500039
O45   O     O_R   0.757470 0.036630 0.196110 -0.494046
O46   O     O_R   0.242530 0.036630 0.803890 -0.489439
O47   O     O_R   0.257470 0.536630 0.196110 -0.494060
O48   O     O_R   0.742530 0.536630 0.803890 -0.489482
O49   O     O_R   0.663840 0.921160 0.179280 -0.488216
O50   O     O_R   0.336160 0.921160 0.820720 -0.486961
O51   O     O_R   0.163840 0.421160 0.179280 -0.488077
O52   O     O_R   0.836160 0.421160 0.820720 -0.486932
O53   O     O_3   0.600227 0.047219 0.905730 -0.557166
C97   C     C_3   0.572837 0.931259 0.916411 -0.087163
H65   H     H_    0.562813 0.913276 0.969476 0.154077
H66   H     H_    0.611181 0.862362 0.904078 0.154340
H67   H     H_    0.525675 0.915998 0.880534 0.145531
O54   O     O_3   0.496888 0.964056 0.067025 -0.569819
C98   C     C_3   0.440918 0.894340 0.084613 -0.109342
H68   H     H_    0.400768 0.884103 0.040328 0.117723
H69   H     H_    0.418357 0.934054 0.129017 0.133776
H70   H     H_    0.460257 0.802173 0.099668 0.151098
O55   O     O_3   0.100410 0.547861 0.905700 -0.557204
C99   C     C_3   0.073155 0.431766 0.916286 -0.087254
H71   H     H_    0.063032 0.413680 0.969326 0.154166
H72   H     H_    0.111639 0.363037 0.904016 0.154512
H73   H     H_    0.026061 0.416374 0.880310 0.145547
O56   O     O_3   0.997188 0.463821 0.066945 -0.569857
C100  C     C_3   0.941350 0.393898 0.084650 -0.109478
H74   H     H_    0.900869 0.384271 0.040610 0.117511
H75   H     H_    0.919203 0.433088 0.129408 0.134223
H76   H     H_    0.960710 0.301533 0.099180 0.150936
C101  C     C_2   0.641022 0.549407 0.419969 0.560364
O57   O     O_2   0.660888 0.599404 0.370366 -0.530158
O58   O     O_R   0.577043 0.581332 0.440777 -0.693034
H77   H     H_    0.552576 0.647433 0.411254 0.335132
C102  C     C_2   0.358975 0.547627 0.579529 0.559838
O59   O     O_2   0.339160 0.598203 0.628969 -0.522707
O60   O     O_R   0.422944 0.578298 0.558567 -0.692755
H78   H     H_    0.447448 0.644085 0.587844 0.336091
C103  C     C_2   0.141022 0.049407 0.419968 0.560363
O61   O     O_2   0.160888 0.099405 0.370366 -0.530166
O62   O     O_R   0.077043 0.081332 0.440777 -0.693036
H79   H     H_    0.052576 0.147433 0.411253 0.335125
C104  C     C_2   0.858975 0.047627 0.579529 0.559839
O63   O     O_2   0.839160 0.098203 0.628969 -0.522714
O64   O     O_R   0.922944 0.078298 0.558567 -0.692755
H80   H     H_    0.947448 0.144085 0.587844 0.336089

loop_
_geom_bond_atom_site_label_1
_geom_bond_atom_site_label_2
_ccdc_geom_bond_type
C94   H38   S    
C39   C51   S    
C79   O11   A    
C58   C62   S    
C8    C24   S    
C9    H47   S    
Cr11  O15   S    
C16   C32   S    
C9    H9    S    
C14   C18   S    
C1    O21   A    
C35   C36   S    
C8    C96   S    
C12   H46   S    
Cr12  O36   S    
C83   O15   A    
Cr7   O19   S    
C9    C25   S    
O60   H78   S    
C36   H20   S    
C16   H56   S    
C67   C83   S    
C40   H28   S    
C11   C19   S    
C102  O59   D    
Cr3   O43   S    
C48   O36   A    
C82   O14   A    
Cr8   O32   S    
C13   C29   S    
C8    H44   S    
C10   C18   S    
C75   O47   A    
C100  H74   S    
Cr5   O17   S    
C74   O46   A    
Cr6   O26   S    
C103  O61   D    
Cr2   O2    S    
Cr5   O25   S    
Cr7   O7    S    
Cr11  O39   S    
Cr9   O13   S    
Cr10  O38   S    
Cr3   O23   S    
C37   C42   S    
Cr11  O19   S    
Cr9   O37   S    
C49   C78   S    
Cr2   O22   S    
C3    C18   S    
C46   O34   A    
C104  O63   D    
C26   H52   S    
Cr1   O21   S    
C8    C104  S    
Cr2   O46   S    
C51   C80   S    
C30   H62   S    
C21   C25   S    
C59   C67   T    
C43   C51   S    
C82   O42   A    
C55   C74   S    
C13   H57   S    
C58   C66   T    
C40   C43   S    
C81   O41   A    
C71   O3    A    
C78   O6    A    
C6    C94   S    
Cr8   O20   S    
C55   C63   T    
C13   H53   S    
C25   H51   S    
C77   O9    A    
O55   C99   S    
C56   C64   T    
C93   H37   S    
C100  H75   S    
C23   C27   S    
C14   H58   S    
C52   C79   S    
Cr11  O35   S    
C36   C52   S    
C34   H18   S    
Cr5   O29   S    
C46   C85   S    
Cr7   O51   S    
C5    C93   S    
C44   C52   S    
Cr1   O17   S    
C20   C96   S    
C46   O30   A    
C75   O51   A    
C28   H50   S    
C12   H12   S    
C87   C92   T    
C7    C103  S    
C42   H29   S    
Cr8   O28   S    
C15   H59   S    
Cr4   O20   S    
C69   O1    A    
C14   C30   S    
C44   O56   S    
C31   H7    S    
C22   C70   S    
Cr12  O40   S    
O53   C97   S    
Cr7   O31   S    
Cr4   O24   S    
C24   C72   S    
C43   O55   S    
C96   H40   S    
C85   C90   T    
C41   O53   S    
C102  O60   S    
C34   C50   S    
C37   H34   S    
Cr12  O12   S    
C73   O45   A    
C68   C84   S    
Cr9   O17   S    
C95   H39   S    
Cr10  O14   S    
C38   C41   S    
C99   H71   S    
C10   H48   S    
C76   O52   A    
C81   O13   A    
C101  O57   D    
C27   H15   S    
C39   H27   S    
C54   C62   T    
C40   C52   S    
C21   C29   S    
C15   C31   S    
C94   H2    S    
C3    O23   A    
C60   C68   T    
Cr11  O11   S    
C78   O10   A    
C23   C31   S    
C14   H54   S    
C15   C19   S    
C24   C32   S    
Cr4   O4    S    
C10   H10   S    
C23   C71   S    
C66   C82   S    
C37   C49   S    
C72   O40   A    
C65   C81   S    
C88   C91   T    
C11   C27   S    
C16   C20   S    
C57   C65   T    
C12   C20   S    
C33   H17   S    
C33   C34   S    
C48   C87   S    
C47   O31   A    
C43   H32   S    
C98   H69   S    
Cr7   O27   S    
C32   H8    S    
C3    O27   A    
C57   C61   S    
C70   O2    A    
C34   H22   S    
C41   H30   S    
Cr12  O20   S    
Cr2   O18   S    
C42   C50   S    
C7    H43   S    
C4    C17   S    
C42   O54   S    
C9    C17   S    
C33   H21   S    
Cr3   O47   S    
C44   H31   S    
C97   H66   S    
C25   H13   S    
C101  O58   S    
C35   C51   S    
Cr6   O6    S    
C38   H33   S    
Cr1   O45   S    
C84   O16   A    
C53   C76   S    
C17   C93   S    
Cr10  O18   S    
C53   C61   T    
O62   H79   S    
C97   H67   S    
C50   C77   S    
C35   H23   S    
C91   C92   S    
C19   C95   S    
Cr6   O50   S    
C103  O62   S    
C12   C28   S    
C30   H6    S    
Cr5   O49   S    
C4    O24   A    
C29   H5    S    
Cr4   O44   S    
C1    C20   S    
C45   O33   A    
C56   C73   S    
C22   C30   S    
C11   H11   S    
C2    C19   S    
C2    O26   A    
Cr12  O16   S    
C1    O25   A    
C24   C28   S    
C80   O12   A    
C5    C101  S    
C86   C89   T    
C6    C102  S    
Cr10  O34   S    
C83   O43   A    
O58   H77   S    
C28   H16   S    
Cr9   O33   S    
C39   C44   S    
C38   C50   S    
C32   H64   S    
C47   O35   A    
C27   H49   S    
C41   C49   S    
C7    C95   S    
C74   O50   A    
C73   O49   A    
C59   C63   S    
C96   H4    S    
C99   H73   S    
C13   C17   S    
C60   C64   S    
C100  H76   S    
Cr9   O9    S    
C48   O32   A    
C35   H19   S    
C36   H24   S    
C45   C86   S    
Cr6   O30   S    
C80   O8    A    
C95   H3    S    
C47   C88   S    
Cr3   O19   S    
C10   C26   S    
Cr8   O8    S    
C7    C23   S    
C31   H63   S    
C16   H60   S    
C18   C94   S    
C5    H41   S    
O56   C100  S    
Cr6   O18   S    
C99   H72   S    
C29   H61   S    
C69   O37   A    
C37   H25   S    
Cr10  O10   S    
C38   H26   S    
Cr2   O42   S    
O54   C98   S    
C72   O4    A    
C77   O5    A    
Cr3   O3    S    
Cr5   O5    S    
C98   H70   S    
C11   H45   S    
C54   C75   S    
C6    H42   S    
C84   O44   A    
C4    O28   A    
C79   O7    A    
C5    C21   S    
C39   H36   S    
Cr4   O48   S    
C45   O29   A    
C97   H65   S    
C22   C26   S    
C40   H35   S    
C21   C69   S    
C98   H68   S    
C76   O48   A    
C71   O39   A    
Cr1   O41   S    
C26   H14   S    
C70   O38   A    
C2    O22   A    
C89   C90   S    
C104  O64   S    
C33   C49   S    
Cr8   O52   S    
C15   H55   S    
Cr1   O1    S    
O64   H80   S    
C93   H1    S    
C6    C22   S    
