data_mof_unit_32113.cif
_audit_creation_date              2013-03-05T16:45:22-0500
_audit_creation_method            fapswitch 2.2
_symmetry_space_group_name_H-M    P1
_symmetry_Int_Tables_number       1
_space_group_crystal_system       triclinic
_cell_length_a                    9.114374
_cell_length_b                    10.660032
_cell_length_c                    9.920935
_cell_angle_alpha                 89.42583
_cell_angle_beta                  90.220657
_cell_angle_gamma                 93.729818
_cell_volume                      961.818361393

loop_
_atom_site_label
_atom_site_type_symbol
_atom_site_description
_atom_site_fract_x
_atom_site_fract_y
_atom_site_fract_z
_atom_type_partial_charge
O1    O     O_R   0.500020 0.316790 0.614690 -0.572864
O2    O     O_R   0.500000 0.316760 0.385350 -0.599161
C1    C     C_R   0.519815 0.261816 0.500365 0.921454
O3    O     O_R   0.285350 0.500020 0.614650 -0.562215
O4    O     O_R   0.285340 0.499980 0.385310 -0.597059
C2    C     C_R   0.218515 0.500320 0.499897 0.921955
Zn1   Zn    Zn3+2 0.500010 0.500020 0.653130 0.987568
Zn2   Zn    Zn3+2 0.499990 0.499980 0.346870 0.976372
O5    O     O_R   0.500000 0.683240 0.614650 -0.596374
O6    O     O_R   0.499980 0.683210 0.385310 -0.584408
O7    O     O_R   0.714660 0.500020 0.614690 -0.643553
O8    O     O_R   0.714650 0.499980 0.385350 -0.627460
C3    C     C_R   0.514261 0.740221 0.499172 0.920036
C4    C     C_R   0.781635 0.501353 0.500225 0.872144
C5    C     C_1   0.065135 0.501557 0.500090 -0.149696
C6    C     C_1   0.935197 0.502053 0.500566 -0.218034
C7    C     C_R   0.592799 0.065584 0.614925 -0.020199
C8    C     C_R   0.566040 0.133622 0.498480 -0.236876
C9    C     C_R   0.592119 0.072602 0.375538 0.357569
C10   C     C_R   0.590069 0.939152 0.375367 0.328519
C11   C     C_R   0.554627 0.872685 0.496516 -0.306350
C12   C     C_R   0.575871 0.939061 0.614682 0.025029
C13   C     C_3   0.563980 0.925595 0.763355 0.375902
C14   C     C_3   0.587867 0.069845 0.764195 -0.547592
H1    H     H_    0.655769 0.873324 0.806224 0.038699
H2    H     H_    0.496173 0.121268 0.798278 0.265610
H3    H     H_    0.696767 0.102474 0.805779 0.158919
C15   C     C_R   0.375718 0.465389 0.070777 0.107399
N1    N     N_R   0.499010 0.499140 0.142800 -0.114644
C16   C     C_R   0.612524 0.558476 0.071833 -0.144811
H4    H     H_    0.705812 0.601176 0.125566 0.170192
C17   C     C_R   0.610180 0.561502 0.927728 -0.179514
H5    H     H_    0.697713 0.612951 0.873584 0.151277
N2    N     N_R   0.499010 0.499180 0.857150 -0.101525
C18   C     C_R   0.375759 0.466373 0.930603 0.089567
C19   C     C_3   0.258145 0.363649 0.918452 0.779544
C20   C     C_3   0.278455 0.347189 0.073060 0.108714
H6    H     H_    0.344620 0.267463 0.100102 0.036774
O9    O     O_3   0.657289 0.144539 0.272915 -0.604868
C21   C     C_3   0.590500 0.120997 0.147051 0.158014
H7    H     H_    0.468878 0.110871 0.155255 0.100199
H8    H     H_    0.629855 0.035522 0.101091 0.191676
C22   C     C_3   0.639395 0.229191 0.053624 -0.902102
H9    H     H_    0.660079 0.316398 0.111776 0.306201
H10   H     H_    0.743929 0.208740 0.004667 0.214704
H11   H     H_    0.556156 0.244422 0.975126 0.222961
O10   O     O_3   0.298829 0.265689 0.833235 -0.640042
C23   C     C_3   0.230814 0.146419 0.870158 0.004420
H12   H     H_    0.135954 0.147589 0.938453 0.096397
H13   H     H_    0.309679 0.092943 0.928101 0.150971
C24   C     C_3   0.183058 0.074423 0.743299 -0.733602
H14   H     H_    0.277548 0.065973 0.674783 0.275332
H15   H     H_    0.136548 0.978912 0.770749 0.225114
H16   H     H_    0.097909 0.123349 0.687325 0.204742
O11   O     O_3   0.148686 0.358899 0.147837 -0.573923
C25   C     C_3   0.127880 0.255848 0.238634 0.065234
H17   H     H_    0.193819 0.274041 0.331465 0.176008
H18   H     H_    0.158350 0.164963 0.195048 0.096163
C26   C     C_3   0.967172 0.237669 0.275075 -0.747371
H19   H     H_    0.907922 0.195457 0.187524 0.266697
H20   H     H_    0.952564 0.172995 0.363176 0.205941
H21   H     H_    0.921471 0.328705 0.298241 0.286122
O12   O     O_3   0.634770 0.876693 0.262674 -0.621398
C27   C     C_3   0.784964 0.851725 0.277212 0.151537
H22   H     H_    0.792254 0.754599 0.317121 0.156117
H23   H     H_    0.848277 0.917536 0.346426 0.122390
C28   C     C_3   0.860132 0.861902 0.140227 -0.915359
H24   H     H_    0.874102 0.961864 0.107572 0.242299
H25   H     H_    0.970430 0.823779 0.147368 0.225311
H26   H     H_    0.793963 0.808496 0.063285 0.246786
O13   O     O_3   0.419915 0.881215 0.799964 -0.585495
C29   C     C_3   0.416745 0.845910 0.937438 0.130244
H27   H     H_    0.434945 0.929357 0.002015 0.114575
H28   H     H_    0.501749 0.779584 0.961888 0.157393
C30   C     C_3   0.267210 0.781995 0.971545 -0.794411
H29   H     H_    0.240568 0.703120 0.901501 0.283799
H30   H     H_    0.268417 0.744623 0.076433 0.223496
H31   H     H_    0.180834 0.850363 0.963398 0.224408
O14   O     O_3   0.134072 0.425471 0.874360 -0.601172
C31   C     C_3   0.005257 0.346733 0.867993 0.123245
H32   H     H_    0.988302 0.285679 0.958110 0.154976
H33   H     H_    0.002385 0.292413 0.773372 0.162500
C32   C     C_3   0.879469 0.429596 0.866173 -0.814083
H34   H     H_    0.902756 0.508906 0.794588 0.281082
H35   H     H_    0.777229 0.374449 0.836341 0.240323
H36   H     H_    0.868464 0.468137 0.968877 0.255537

loop_
_geom_bond_atom_site_label_1
_geom_bond_atom_site_label_2
_geom_bond_distance
_ccdc_geom_bond_type
O11   C25   1.417227 S    
C21   H7    1.109961 S    
C9    C10   1.421500 A    
C14   H3    1.109573 S    
C30   H29   1.110254 S    
Zn1   O7    1.994664 S    
C20   H6    1.103998 S    
C1    C8    1.456289 S    
Zn2   N1    2.024657 S    
C19   C20   1.553842 S    
C14   H2    1.085708 S    
C8    C9    1.416168 A    
O1    C1    1.300408 A    
O3    Zn1   1.991945 S    
O4    C2    1.291904 A    
O7    C4    1.290852 A    
C5    C6    1.184691 T    
C25   H17   1.109564 S    
C19   O10   1.418880 S    
N2    C18   1.365784 A    
O5    C3    1.294334 A    
C2    C5    1.398894 S    
C21   C22   1.517507 S    
C18   C19   1.487187 S    
C15   C18   1.390593 A    
O10   C23   1.422977 S    
C13   C14   1.539052 S    
C21   H8    1.104037 S    
C26   H19   1.105057 S    
C11   C12   1.381852 A    
C29   C30   1.521309 S    
C22   H11   1.103343 S    
C23   C24   1.527791 S    
C26   H20   1.110794 S    
C7    C14   1.482994 S    
C28   H24   1.110142 S    
C27   C28   1.524018 S    
C13   O13   1.413956 S    
C31   H33   1.107218 S    
O9    C21   1.404748 S    
C29   H27   1.104835 S    
O12   C27   1.417994 S    
C19   O14   1.411334 S    
C24   H14   1.108014 S    
C28   H25   1.110323 S    
C27   H23   1.118308 S    
C22   H9    1.104399 S    
N1    C16   1.370312 A    
C22   H10   1.106297 S    
C32   H34   1.109039 S    
Zn2   O8    1.991945 S    
C7    C8    1.387146 A    
C3    C11   1.435872 S    
C30   H30   1.110773 S    
C9    O9    1.381008 S    
C29   H28   1.106966 S    
C23   H12   1.101283 S    
C32   H35   1.109785 S    
O8    C4    1.290592 A    
Zn1   N2    2.024052 S    
C4    C6    1.399141 S    
O3    C2    1.289187 A    
C31   C32   1.492078 S    
Zn1   O5    1.986337 S    
C15   N1    1.359829 A    
C26   H21   1.107192 S    
O1    Zn1   1.993872 S    
O2    Zn2   1.986339 S    
C31   H32   1.105936 S    
O6    C3    1.290220 A    
O4    Zn2   1.994663 S    
C7    C12   1.347559 A    
C25   C26   1.509807 S    
C24   H16   1.107352 S    
C17   H5    1.079953 S    
C28   H26   1.109508 S    
C10   O12   1.383116 S    
O2    C1    1.294783 A    
O13   C29   1.411104 S    
C27   H22   1.110718 S    
C16   C17   1.429804 A    
C16   H4    1.079505 S    
C15   C20   1.492749 S    
C23   H13   1.102564 S    
C25   H18   1.116728 S    
C13   H1    1.115541 S    
C30   H31   1.109263 S    
O14   C31   1.399718 S    
C20   O11   1.411620 S    
C32   H36   1.109776 S    
C10   C11   1.416727 A    
Zn2   O6    1.993872 S    
C12   C13   1.484207 S    
C24   H15   1.108908 S    
C17   N2    1.369161 A    
