data_mof_unit_28926.cif
_audit_creation_date              2012-12-11T15:30:41-0500
_audit_creation_method            fapswitch 2.2
_symmetry_space_group_name_H-M    P1
_symmetry_Int_Tables_number       1
_space_group_crystal_system       triclinic
_cell_length_a                    6.978969
_cell_length_b                    20.47147
_cell_length_c                    24.410243
_cell_angle_alpha                 89.652461
_cell_angle_beta                  90.330323
_cell_angle_gamma                 89.872028
_cell_volume                      3487.35433747

loop_
_atom_site_label
_atom_site_type_symbol
_atom_type_description
_atom_site_fract_x
_atom_site_fract_y
_atom_site_fract_z
_atom_type_partial_charge
O1    O     O_R   0.507310 0.423620 0.460450 -0.536990
O2    O     O_R   0.170760 0.556060 0.437190 -0.536631
O3    O     O_R   0.004040 0.576380 0.539550 -0.535965
C1    C     C_R   0.339267 0.576065 0.421313 0.728746
O4    O     O_R   0.177350 0.422870 0.454070 -0.536266
O5    O     O_R   0.010680 0.442240 0.556560 -0.536139
C2    C     C_R   0.345856 0.399256 0.443163 0.692754
O6    O     O_R   0.500670 0.557760 0.443440 -0.534945
O7    O     O_3   0.340380 0.506510 0.533610 -0.368414
V1    V     V_3+5 0.064130 0.498790 0.493770 1.416421
O8    O     O_R   0.681170 0.443940 0.562810 -0.540662
C3    C     C_R   0.849992 0.423623 0.578446 0.726814
O9    O     O_R   0.674570 0.577130 0.545930 -0.537312
C4    C     C_R   0.843368 0.600672 0.556878 0.693231
V2    V     V_3+5 0.564560 0.501210 0.506230 1.408567
O10   O     O_3   0.838170 0.493490 0.466390 -0.365935
C5    C     C_R   0.971641 0.838044 0.911933 -0.038223
C6    C     C_R   0.852150 0.660921 0.589507 -0.037680
C7    C     C_R   0.977946 0.720431 0.911225 -0.171951
C8    C     C_R   0.990578 0.778883 0.939549 -0.163844
C9    C     C_R   0.943966 0.838610 0.854982 -0.201443
C10   C     C_R   0.933210 0.779449 0.824406 0.069534
C11   C     C_R   0.946450 0.719204 0.853851 0.092074
C12   C     C_R   0.909585 0.778473 0.765937 0.056118
C13   C     C_R   0.898552 0.717490 0.737595 0.022798
C14   C     C_R   0.904487 0.659316 0.768779 -0.198430
C15   C     C_R   0.926503 0.658937 0.826039 0.060293
C16   C     C_R   0.897683 0.836727 0.734728 -0.179281
C17   C     C_R   0.875588 0.835809 0.678270 -0.206838
C18   C     C_R   0.866668 0.777070 0.649985 0.145067
C19   C     C_R   0.879409 0.716690 0.678719 0.096810
C20   C     C_R   0.845499 0.778709 0.592761 -0.166404
C21   C     C_R   0.837632 0.721159 0.562881 -0.171304
C22   C     C_R   0.873306 0.658437 0.646864 -0.218234
H1    H     H_    0.885519 0.610409 0.664783 0.086689
H2    H     H_    0.820927 0.723602 0.518754 0.102042
H3    H     H_    0.866525 0.881975 0.656372 0.117738
H4    H     H_    0.993705 0.676331 0.935370 0.108508
H5    H     H_    0.013620 0.777892 0.983497 0.102019
H6    H     H_    0.931175 0.886135 0.836236 0.087925
H7    H     H_    0.890686 0.613192 0.748847 0.118690
H8    H     H_    0.905047 0.884594 0.752486 0.118947
H9    H     H_    0.835069 0.824880 0.570959 0.109240
C23   C     C_3   0.767328 0.252062 0.798195 -0.349575
C24   C     C_3   0.128440 0.251959 0.786488 -0.060242
C25   C     C_3   0.118068 0.293955 0.731335 -0.038904
H10   H     H_    0.817702 0.354462 0.774521 0.139997
H11   H     H_    0.759969 0.272053 0.840351 0.143793
H12   H     H_    0.254128 0.218451 0.785632 0.108351
H13   H     H_    0.148709 0.345852 0.740882 0.119468
C26   C     C_1   0.860753 0.377500 0.623757 -0.210759
C27   C     C_3   0.944952 0.207590 0.790992 0.256332
C28   C     C_3   0.770672 0.308378 0.755080 -0.397485
C29   C     C_3   0.907754 0.291293 0.707362 0.275902
C30   C     C_3   0.859738 0.220189 0.689510 -0.340003
C31   C     C_3   0.917165 0.171140 0.735733 -0.375335
C32   C     C_1   0.878062 0.338557 0.661319 -0.084461
C33   C     C_1   0.958018 0.159618 0.837181 -0.100735
C34   C     C_1   0.965457 0.121179 0.875290 -0.196130
H14   H     H_    0.803651 0.133296 0.739546 0.147799
H15   H     H_    0.052003 0.145513 0.724590 0.138906
H16   H     H_    0.703291 0.215954 0.681932 0.150949
H17   H     H_    0.635395 0.222365 0.792354 0.145590
H18   H     H_    0.624497 0.318160 0.740093 0.146097
H19   H     H_    0.928102 0.206861 0.650185 0.133831
C35   C     C_3   0.592553 0.700618 0.265375 -0.332558
C36   C     C_3   0.232922 0.694978 0.244451 -0.093310
C37   C     C_3   0.265322 0.743090 0.195158 -0.356273
H20   H     H_    0.651581 0.721492 0.178716 0.136456
H21   H     H_    0.623008 0.649923 0.252203 0.141018
H22   H     H_    0.093354 0.709639 0.262761 0.095898
H23   H     H_    0.294190 0.716661 0.156444 0.139185
H24   H     H_    0.131767 0.771733 0.187697 0.127619
C38   C     C_1   0.474280 0.877450 0.123990 -0.195070
C39   C     C_3   0.388353 0.705949 0.290135 0.255121
C40   C     C_3   0.617512 0.749120 0.216539 -0.335433
C41   C     C_3   0.433438 0.790600 0.207491 0.275329
C42   C     C_3   0.388814 0.826682 0.261752 -0.330484
C43   C     C_3   0.365565 0.777457 0.310172 -0.363135
C44   C     C_1   0.458448 0.838412 0.161557 -0.091334
C45   C     C_1   0.365571 0.659390 0.337098 -0.088344
C46   C     C_1   0.350205 0.621338 0.375322 -0.188026
H25   H     H_    0.474492 0.788110 0.342369 0.147021
H26   H     H_    0.222435 0.784285 0.329208 0.135102
H27   H     H_    0.506345 0.861476 0.271442 0.141259
H28   H     H_    0.701290 0.711907 0.297474 0.134497
H29   H     H_    0.741428 0.781774 0.224932 0.137509
H30   H     H_    0.254913 0.855826 0.256908 0.138325
C47   C     C_R   0.473127 0.162091 0.088377 -0.040581
C48   C     C_R   0.350676 0.338800 0.410669 -0.039392
C49   C     C_R   0.531709 0.278278 0.093287 -0.164789
C50   C     C_R   0.524180 0.220827 0.063140 -0.169753
C51   C     C_R   0.429813 0.161136 0.144581 -0.215938
C52   C     C_R   0.439435 0.219078 0.176675 0.086523
C53   C     C_R   0.491397 0.277912 0.149579 0.143360
C54   C     C_R   0.401960 0.220690 0.234517 0.059494
C55   C     C_R   0.418542 0.281008 0.264067 0.059444
C56   C     C_R   0.469875 0.337819 0.234633 -0.196995
C57   C     C_R   0.504949 0.336114 0.178724 -0.213271
C58   C     C_R   0.348520 0.164011 0.263787 -0.190051
C59   C     C_R   0.312240 0.165696 0.319568 -0.205118
C60   C     C_R   0.327416 0.223697 0.348832 0.142436
C61   C     C_R   0.381933 0.282452 0.321993 0.085140
C62   C     C_R   0.285625 0.223162 0.404987 -0.164507
C63   C     C_R   0.295005 0.280297 0.435366 -0.169079
C64   C     C_R   0.394869 0.340040 0.354466 -0.216694
H31   H     H_    0.544430 0.381089 0.158043 0.117960
H32   H     H_    0.434231 0.386738 0.337406 0.096984
H33   H     H_    0.257107 0.279005 0.478288 0.104708
H34   H     H_    0.270601 0.120824 0.340068 0.119182
H35   H     H_    0.571777 0.323169 0.072593 0.111662
H36   H     H_    0.559402 0.222100 0.019967 0.103082
H37   H     H_    0.393955 0.114273 0.161927 0.092728
H38   H     H_    0.484161 0.384905 0.253601 0.128012
H39   H     H_    0.331997 0.117082 0.244738 0.121078
H40   H     H_    0.242525 0.178407 0.425376 0.109366
O11   O     O_R   0.323590 0.942280 0.056590 -0.534969
O12   O     O_R   0.647030 0.077140 0.045940 -0.537901
O13   O     O_R   0.813570 0.057750 0.943430 -0.534420
C65   C     C_R   0.478578 0.101221 0.056351 0.692758
O14   O     O_R   0.653510 0.943950 0.062820 -0.537012
O15   O     O_R   0.820100 0.923600 0.960440 -0.535903
C66   C     C_R   0.485059 0.923674 0.078556 0.725797
O16   O     O_R   0.317060 0.076430 0.039590 -0.535838
O17   O     O_3   0.483830 0.993520 0.966410 -0.367365
V3    V     V_3+5 0.760140 0.001200 0.006230 1.419571
O18   O     O_R   0.149560 0.922820 0.954030 -0.537931
C67   C     C_R   0.980751 0.899155 0.943313 0.690386
O19   O     O_R   0.143080 0.056020 0.937150 -0.538641
C68   C     C_R   0.974269 0.075925 0.921236 0.726142
V4    V     V_3+5 0.259690 0.998730 0.993720 1.419045
O20   O     O_3   0.986120 0.006480 0.033580 -0.367283
C69   C     C_3   0.926959 0.594812 0.858674 -0.354616
C70   C     C_3   0.882075 0.531850 0.827162 -0.311532
C71   C     C_3   0.875353 0.473446 0.866288 -0.791371
H41   H     H_    0.018206 0.465257 0.885385 0.233097
H42   H     H_    0.767944 0.481731 0.898933 0.227155
H43   H     H_    0.833740 0.429080 0.843517 0.209191
H44   H     H_    0.740393 0.536414 0.806403 0.195879
H45   H     H_    0.994762 0.522570 0.796136 0.189300
H46   H     H_    0.069916 0.588908 0.878480 0.173688
H47   H     H_    0.816972 0.599128 0.891265 0.175454
C72   C     C_3   0.153760 0.294841 0.838959 -0.372966
C73   C     C_3   0.333361 0.337703 0.839119 -0.336037
C74   C     C_3   0.387982 0.358830 0.897005 -0.776710
H48   H     H_    0.267651 0.385654 0.916219 0.229335
H49   H     H_    0.425157 0.315544 0.922644 0.224940
H50   H     H_    0.514610 0.391429 0.895299 0.219358
H51   H     H_    0.452722 0.310120 0.821897 0.205640
H52   H     H_    0.310230 0.382222 0.813701 0.192459
H53   H     H_    0.030469 0.328017 0.844929 0.183087
H54   H     H_    0.160011 0.261586 0.875110 0.192151
C75   C     C_3   0.273638 0.271262 0.689541 -0.389684
C76   C     C_3   0.341781 0.325342 0.649798 -0.297317
C77   C     C_3   0.422620 0.296580 0.597170 -0.746859
H55   H     H_    0.312247 0.266408 0.576436 0.210240
H56   H     H_    0.464850 0.336524 0.568838 0.225743
H57   H     H_    0.550046 0.265854 0.606157 0.221812
H58   H     H_    0.225701 0.359163 0.638201 0.208560
H59   H     H_    0.452457 0.355940 0.669714 0.183101
H60   H     H_    0.401239 0.252992 0.711777 0.154700
H61   H     H_    0.224946 0.228250 0.666246 0.189987
C78   C     C_R   0.212048 0.623667 0.227209 0.117080
C79   C     C_R   0.343147 0.593176 0.191753 -0.126520
C80   C     C_R   0.322436 0.527287 0.178188 -0.132777
C81   C     C_R   0.170851 0.490976 0.199547 -0.105648
C82   C     C_R   0.039287 0.520515 0.234462 -0.115594
C83   C     C_R   0.059475 0.586334 0.248240 -0.139536
H62   H     H_    0.461074 0.620007 0.174145 0.102567
H63   H     H_    0.424089 0.504384 0.150997 0.104663
H64   H     H_    0.155259 0.439971 0.189009 0.119353
H65   H     H_    0.921866 0.492333 0.251074 0.110731
H66   H     H_    0.957191 0.607883 0.276024 0.094577

loop_
_geom_bond_atom_site_label_1
_geom_bond_atom_site_label_2
_ccdc_geom_bond_type
C13   C19   A    
C71   H43   S    
C18   C20   A    
C30   C31   S    
C34   C68   S    
C59   C60   A    
C77   H56   S    
C4    C6    S    
O2    C1    A    
C7    C8    A    
C70   H44   S    
C1    O6    A    
O13   C68   A    
C55   C56   A    
C82   H65   S    
C71   H41   S    
C24   C25   S    
C65   O16   A    
C14   C15   A    
C80   C81   A    
O17   V3    S    
C16   C17   A    
O5    C3    A    
C43   H26   S    
C60   C62   A    
C28   H18   S    
C53   C57   A    
C56   H38   S    
C72   C73   S    
C30   H16   S    
C37   C41   S    
C21   H2    S    
H20   C40   S    
C22   H1    S    
C49   H35   S    
C73   H52   S    
C74   H49   S    
C62   H40   S    
O8    V2    S    
C23   C28   S    
C78   C79   A    
C26   C32   T    
V3    O20   S    
O7    V1    S    
H10   C28   S    
C23   C27   S    
C72   H53   S    
C38   C66   S    
O11   C66   A    
C81   H64   S    
C38   C44   T    
O9    C4    A    
C77   H57   S    
C47   C51   A    
C79   H62   S    
C52   C53   A    
C58   H39   S    
O4    V1    S    
C62   C63   A    
C30   H19   S    
C45   C46   T    
O12   C65   A    
C23   H17   S    
C83   H66   S    
V2    O10   S    
C36   C37   S    
C15   C69   S    
C12   C13   A    
C48   C64   A    
C49   C50   A    
O4    C2    A    
C8    H5    S    
C42   C43   S    
C39   C45   S    
C24   C27   S    
C37   H24   S    
C41   C42   S    
C2    C48   S    
C5    C9    A    
C31   H14   S    
O16   V4    S    
C75   H60   S    
O15   V3    S    
C7    C11   A    
C76   H59   S    
C17   C18   A    
C7    H4    S    
C36   C78   S    
C6    C22   A    
O17   V4    S    
C47   C65   S    
C24   H12   S    
C18   C19   A    
C37   H23   S    
C35   C40   S    
C54   C55   A    
C25   C29   S    
C69   H47   S    
C19   C22   A    
C31   H15   S    
C51   C52   A    
C51   H37   S    
C40   C41   S    
C47   C50   A    
C52   C54   A    
C59   H34   S    
C40   H29   S    
C76   C77   S    
C55   C61   A    
O3    C4    A    
C27   C33   S    
O1    V2    S    
C42   H27   S    
C72   H54   S    
O6    V2    S    
C11   C15   A    
O9    V2    S    
C69   C70   S    
C10   C12   A    
C33   C34   T    
C36   C39   S    
O18   C67   A    
O2    V1    S    
C74   H48   S    
C82   C83   A    
C3    C26   S    
C74   H50   S    
O19   C68   A    
C41   C44   S    
C42   H30   S    
C80   H63   S    
C71   H42   S    
C25   C75   S    
C63   H33   S    
C29   C30   S    
C79   C80   A    
C73   H51   S    
O1    C2    A    
C5    C8    A    
C50   H36   S    
C12   C16   A    
C48   C63   A    
C73   C74   S    
C35   H28   S    
O8    C3    A    
C5    C67   S    
C28   C29   S    
C70   C71   S    
C70   H45   S    
C57   H31   S    
C25   H13   S    
C69   H46   S    
C75   H61   S    
C20   C21   A    
C78   C83   A    
C13   C14   A    
O14   V3    S    
O3    V1    S    
V1    O10   S    
V4    O20   S    
C43   H25   S    
C35   H21   S    
C9    H6    S    
C64   H32   S    
C35   C39   S    
C54   C58   A    
C16   H8    S    
C58   C59   A    
C20   H9    S    
C61   C64   A    
C36   H22   S    
O15   C67   A    
C60   C61   A    
O11   V4    S    
C6    C21   A    
O18   V4    S    
O14   C66   A    
O5    V1    S    
C49   C53   A    
O13   V3    S    
C27   C31   S    
C76   H58   S    
C1    C46   S    
C14   H7    S    
C56   C57   A    
C17   H3    S    
C77   H55   S    
C24   C72   S    
C10   C11   A    
O12   V3    S    
C75   C76   S    
C9    C10   A    
C39   C43   S    
C81   C82   A    
C23   H11   S    
O7    V2    S    
O19   V4    S    
C29   C32   S    
