data_mof_unit_35535.cif
_audit_creation_date              2013-03-05T16:07:31-0500
_audit_creation_method            fapswitch 2.2
_symmetry_space_group_name_H-M    P1
_symmetry_Int_Tables_number       1
_space_group_crystal_system       triclinic
_cell_length_a                    11.00955
_cell_length_b                    10.897089
_cell_length_c                    9.687962
_cell_angle_alpha                 89.167777
_cell_angle_beta                  90.743988
_cell_angle_gamma                 93.750993
_cell_volume                      1159.58806514

loop_
_atom_site_label
_atom_site_type_symbol
_atom_site_description
_atom_site_fract_x
_atom_site_fract_y
_atom_site_fract_z
_atom_type_partial_charge
O1    O     O_R   0.499990 0.319660 0.618740 -0.561924
O2    O     O_R   0.500010 0.680340 0.381260 -0.561836
O3    O     O_R   0.499990 0.319630 0.381170 -0.548045
O4    O     O_R   0.500010 0.680370 0.618830 -0.548052
C1    C     C_R   0.501578 0.262676 0.501636 0.853920
C2    C     C_R   0.498416 0.737324 0.498363 0.853914
O5    O     O_R   0.319650 0.500020 0.618780 -0.589098
O6    O     O_R   0.680350 0.499980 0.381220 -0.589124
O7    O     O_R   0.319640 0.500000 0.381210 -0.550252
O8    O     O_R   0.680360 0.500000 0.618790 -0.550276
C3    C     C_R   0.262503 0.500219 0.498391 0.813137
C4    C     C_R   0.737497 0.499787 0.501609 0.813105
Cu1   Cu    Cu3+1 0.500000 0.500020 0.640660 1.046374
Cu2   Cu    Cu3+1 0.500000 0.499980 0.359340 1.046401
H1    H     H_    0.254136 0.528124 0.871481 0.198139
H2    H     H_    0.745868 0.471909 0.128521 0.198131
C5    C     C_R   0.223193 0.621391 0.055896 -0.114724
C6    C     C_R   0.776808 0.378639 0.944108 -0.114817
H3    H     H_    0.274712 0.704066 0.021944 0.215699
H4    H     H_    0.725285 0.295965 0.978057 0.215637
C7    C     C_R   0.172859 0.615065 0.186388 -0.018324
C8    C     C_R   0.827145 0.384961 0.813616 -0.018381
H5    H     H_    0.185066 0.693867 0.253284 0.176123
H6    H     H_    0.814938 0.306158 0.746722 0.176070
C9    C     C_R   0.109603 0.506789 0.232222 -0.013334
C10   C     C_R   0.890399 0.493237 0.767779 -0.013281
C11   C     C_R   0.090504 0.405243 0.143243 0.159012
C12   C     C_R   0.909498 0.594785 0.856755 0.158990
C13   C     C_R   0.140465 0.412581 0.009020 0.320205
C14   C     C_R   0.859537 0.587450 0.990979 0.320225
C15   C     C_R   0.208883 0.520856 0.969259 -0.340929
C16   C     C_R   0.791121 0.479175 0.030743 -0.340885
C17   C     C_R   0.932186 0.503093 0.379518 -0.142673
C18   C     C_R   0.067816 0.496937 0.620482 -0.142657
H7    H     H_    0.881572 0.504654 0.285006 0.177377
H8    H     H_    0.118430 0.495389 0.714994 0.177375
C19   C     C_R   0.871656 0.499141 0.504978 -0.080521
C20   C     C_R   0.128345 0.500878 0.495022 -0.080522
C21   C     C_R   0.941907 0.496505 0.628116 0.038111
C22   C     C_R   0.058095 0.503519 0.371884 0.038110
C23   C     C_R   0.529353 0.070142 0.382528 -0.179067
C24   C     C_R   0.470639 0.929860 0.617468 -0.178999
H9    H     H_    0.553270 0.123148 0.290471 0.228662
H10   H     H_    0.446706 0.876857 0.709522 0.228636
C25   C     C_R   0.522763 0.943040 0.375146 0.366009
C26   C     C_R   0.477210 0.056961 0.624842 0.366004
C27   C     C_R   0.495818 0.871363 0.494979 -0.232506
C28   C     C_R   0.504169 0.128637 0.505016 -0.232540
C29   C     C_R   0.456504 0.398360 0.072603 0.383208
C30   C     C_R   0.543494 0.601640 0.927396 0.383209
C31   C     C_R   0.459293 0.399241 0.925699 -0.099761
C32   C     C_R   0.540710 0.600758 0.074300 -0.099662
H11   H     H_    0.423099 0.320192 0.870526 0.261938
H12   H     H_    0.576911 0.679807 0.129471 0.261918
N1    N     N_R   0.500030 0.500030 0.852070 -0.262998
N2    N     N_R   0.499970 0.499970 0.147930 -0.262987
I1    I     I_    0.003328 0.237469 0.223425 -0.104107
I2    I     I_    0.996670 0.762559 0.776571 -0.104107
N3    N     N_R   0.126537 0.311235 0.914490 0.145654
O9    O     O_R   0.203310 0.302083 0.814922 -0.347065
O10   O     O_R   0.029843 0.236172 0.915564 -0.292030
N4    N     N_R   0.873464 0.688801 0.085502 0.145629
O11   O     O_R   0.796675 0.697975 0.185050 -0.347170
O12   O     O_R   0.970168 0.763851 0.084440 -0.292058
N5    N     N_R   0.538128 0.890202 0.243304 0.140273
O13   O     O_R   0.441259 0.852542 0.173709 -0.335220
O14   O     O_R   0.639117 0.916169 0.177662 -0.244627
N6    N     N_R   0.461747 0.109801 0.756659 0.140178
O15   O     O_R   0.558561 0.147198 0.826490 -0.334890
O16   O     O_R   0.360593 0.084073 0.822045 -0.244682
N7    N     N_R   0.401282 0.290482 0.138200 0.132221
O17   O     O_R   0.419371 0.182638 0.089622 -0.271970
O18   O     O_R   0.312676 0.299811 0.223668 -0.326858
N8    N     N_R   0.598703 0.709521 0.861797 0.132226
O19   O     O_R   0.580578 0.817364 0.910353 -0.271989
O20   O     O_R   0.687320 0.700203 0.776342 -0.326871

loop_
_geom_bond_atom_site_label_1
_geom_bond_atom_site_label_2
_geom_bond_distance
_ccdc_geom_bond_type
Cu2   N2    2.048129 S    
C11   C13   1.417628 A    
O5    C3    1.318031 A    
N8    O20   1.297670 A    
O1    C1    1.302072 A    
C30   N8    1.431845 S    
C9    C22   1.472907 S    
C10   C21   1.472909 S    
O4    Cu1   1.973572 S    
C6    H4    1.082102 S    
C24   C26   1.385018 A    
C4    C19   1.477442 S    
H2    C16   1.075508 S    
N4    O12   1.299449 A    
C5    H3    1.082097 S    
C13   N3    1.444101 S    
N6    O15   1.300890 A    
N5    O14   1.301021 A    
C30   C32   1.423804 A    
C14   C16   1.409232 A    
C18   H8    1.066167 S    
N3    O9    1.299940 A    
C18   C20   1.392491 A    
Cu1   Cu2   2.725425 S    
C23   H9    1.081481 S    
O2    C2    1.302068 A    
C24   H10   1.081479 S    
C32   H12   1.072135 S    
C25   C27   1.413550 A    
C7    H5    1.083632 S    
C1    C28   1.462656 S    
C26   C28   1.413524 A    
N3    O10   1.299448 A    
C17   C22   1.388834 A    
C2    C27   1.462670 S    
C18   C21   1.388831 A    
O4    C2    1.314312 A    
C11   I1    2.148388 S    
N7    O18   1.297667 A    
C29   C31   1.423807 A    
C17   C19   1.392493 A    
C31   H11   1.072125 S    
C3    C20   1.477443 S    
O7    Cu2   1.999704 S    
C26   N6    1.425199 S    
N4    O11   1.299943 A    
O6    C4    1.318032 A    
O7    C3    1.305112 A    
O3    Cu2   1.973572 S    
O8    C4    1.305110 A    
N6    O16   1.300927 A    
C14   N4    1.444104 S    
C25   N5    1.425237 S    
C5    C15   1.389316 A    
C8    H6    1.083633 S    
C6    C16   1.389325 A    
C7    C9    1.399868 A    
O6    Cu2   1.994115 S    
C6    C8    1.385901 A    
O3    C1    1.314302 A    
O8    Cu1   1.999703 S    
H1    C15   1.075511 S    
C12   I2    2.148386 S    
C9    C11   1.415739 A    
C29   N2    1.390199 A    
C10   C12   1.415739 A    
C30   N1    1.390188 A    
C12   C14   1.417625 A    
N7    O17   1.300515 A    
C19   C21   1.414255 A    
C20   C22   1.414252 A    
C17   H7    1.066169 S    
C23   C28   1.394628 A    
C31   N1    1.355489 A    
C24   C27   1.394632 A    
O2    Cu2   1.979895 S    
C5    C7    1.385902 A    
C8    C10   1.399868 A    
O5    Cu1   1.994116 S    
O1    Cu1   1.979895 S    
N8    O19   1.300513 A    
C13   C15   1.409231 A    
N5    O13   1.300956 A    
C29   N7    1.431860 S    
C23   C25   1.385032 A    
C32   N2    1.355495 A    
Cu1   N1    2.048129 S    
