data_mof_unit_6718.cif
_audit_creation_date              2012-12-10T16:49:28-0500
_audit_creation_method            fapswitch 2.2
_symmetry_space_group_name_H-M    P1
_symmetry_Int_Tables_number       1
_space_group_crystal_system       triclinic
_cell_length_a                    19.346989
_cell_length_b                    8.706742
_cell_length_c                    7.491627
_cell_angle_alpha                 101.572118
_cell_angle_beta                  95.496171
_cell_angle_gamma                 93.232703
_cell_volume                      1226.91908601

loop_
_atom_site_label
_atom_site_type_symbol
_atom_type_description
_atom_site_fract_x
_atom_site_fract_y
_atom_site_fract_z
_atom_type_partial_charge
C1    C     C_R   0.495220 0.201118 0.456506 0.849748
C2    C     C_R   0.504781 0.798882 0.543496 0.849690
C3    C     C_2   0.480325 0.036700 0.443727 -0.089106
C4    C     C_2   0.519671 0.963302 0.556287 -0.089051
C5    C     C_R   0.367443 0.499641 0.500498 0.794718
C6    C     C_R   0.632556 0.500378 0.499502 0.794744
C7    C     C_R   0.262794 0.589699 0.655894 -0.041577
C8    C     C_R   0.737228 0.410459 0.344122 -0.041545
C9    C     C_R   0.190274 0.581740 0.665437 0.050657
C10   C     C_R   0.809748 0.418561 0.334554 0.050691
C11   C     C_R   0.145607 0.505578 0.508564 -0.026973
C12   C     C_R   0.854402 0.494876 0.491386 -0.026891
C13   C     C_R   0.172983 0.428466 0.350382 -0.072744
C14   C     C_R   0.827010 0.571994 0.649541 -0.072708
C15   C     C_R   0.245038 0.417110 0.351875 -0.087304
C16   C     C_R   0.754947 0.583170 0.648073 -0.087393
C17   C     C_R   0.290838 0.501765 0.502650 -0.156901
C18   C     C_R   0.709164 0.498371 0.497348 -0.156988
C19   C     C_R   0.930041 0.495115 0.492151 0.413357
C20   C     C_R   0.069970 0.505399 0.507833 0.413435
Cu1   Cu    Cu3+1 0.507710 0.517380 0.684380 0.963001
Cu2   Cu    Cu3+1 0.492290 0.482620 0.315620 0.963014
N1    N     N_R   0.033756 0.596962 0.412064 -0.235222
N2    N     N_R   0.966255 0.403560 0.587927 -0.235380
N3    N     N_R   0.964761 0.592708 0.405403 -0.221172
N4    N     N_R   0.035248 0.407807 0.594579 -0.221259
N5    N     N_2   0.480680 0.456420 0.038530 -0.222192
N6    N     N_2   0.519320 0.543580 0.961470 -0.222191
O1    O     O_R   0.505010 0.286130 0.619770 -0.604261
O2    O     O_R   0.494990 0.713870 0.380230 -0.604271
O3    O     O_R   0.491990 0.256780 0.308370 -0.593871
O4    O     O_R   0.508010 0.743220 0.691630 -0.593863
O5    O     O_R   0.406650 0.514660 0.655750 -0.584633
O6    O     O_R   0.593350 0.485340 0.344250 -0.584629
O7    O     O_R   0.393640 0.485310 0.344340 -0.586373
O8    O     O_R   0.606360 0.514690 0.655660 -0.586420
C21   C     C_1   0.307732 0.698515 0.796803 0.246372
N7    N     N_1   0.343804 0.786468 0.907642 -0.301420
C22   C     C_1   0.692314 0.301530 0.203264 0.246390
N8    N     N_1   0.656260 0.213492 0.092466 -0.301387
C23   C     C_3   0.160803 0.652926 0.842523 -0.401247
C24   C     C_3   0.136720 0.817171 0.839988 -0.355578
C25   C     C_3   0.101508 0.879529 0.010965 -0.766186
H1    H     H_    0.056681 0.797629 0.021630 0.277114
H2    H     H_    0.139076 0.893936 0.135934 0.248697
H3    H     H_    0.081788 0.995130 0.002470 0.263066
H4    H     H_    0.182258 0.899111 0.834146 0.237227
H5    H     H_    0.099106 0.813452 0.717306 0.240708
H6    H     H_    0.116981 0.574177 0.865949 0.233347
H7    H     H_    0.199926 0.659904 0.963109 0.202038
C26   C     C_3   0.839231 0.347438 0.157457 -0.401411
C27   C     C_3   0.863546 0.183405 0.160146 -0.355456
C28   C     C_3   0.898627 0.121030 0.988939 -0.765926
H8    H     H_    0.860876 0.105914 0.864223 0.248606
H9    H     H_    0.943216 0.203281 0.977518 0.277115
H10   H     H_    0.918671 0.005786 0.997734 0.263067
H11   H     H_    0.901309 0.187486 0.282623 0.240769
H12   H     H_    0.818141 0.101267 0.166475 0.237155
H13   H     H_    0.800060 0.340123 0.036897 0.202120
H14   H     H_    0.882940 0.426427 0.133880 0.233252
C29   C     C_1   0.126687 0.359536 0.185966 0.251310
N9    N     N_1   0.089773 0.306162 0.054636 -0.292699
C30   C     C_1   0.873297 0.641119 0.813907 0.251422
N10   N     N_1   0.910203 0.694654 0.945203 -0.292772
C31   C     C_1   0.270545 0.311517 0.201438 0.259692
N11   N     N_1   0.290001 0.225687 0.081283 -0.285246
C32   C     C_1   0.729406 0.688714 0.798495 0.259694
N12   N     N_1   0.709926 0.774505 0.918643 -0.285157
C33   C     C_3   0.413066 0.964143 0.324591 -0.402692
C34   C     C_3   0.354429 0.934386 0.440979 -0.336471
C35   C     C_3   0.288894 0.854167 0.321575 -0.816932
H15   H     H_    0.270402 0.927098 0.223541 0.270342
H16   H     H_    0.299636 0.736683 0.244479 0.265598
H17   H     H_    0.247066 0.838334 0.409464 0.240018
H18   H     H_    0.371103 0.859253 0.537879 0.221747
H19   H     H_    0.341356 0.048458 0.521753 0.238313
H20   H     H_    0.394231 0.045314 0.236598 0.225532
H21   H     H_    0.422100 0.856072 0.226479 0.251289
C36   C     C_3   0.586927 0.035869 0.675440 -0.402696
C37   C     C_3   0.645575 0.065566 0.559062 -0.336354
C38   C     C_3   0.711053 0.146118 0.678476 -0.816918
H22   H     H_    0.700252 0.263726 0.755113 0.265544
H23   H     H_    0.729520 0.073537 0.776931 0.270381
H24   H     H_    0.752925 0.161730 0.590640 0.240019
H25   H     H_    0.658720 0.951437 0.478567 0.238212
H26   H     H_    0.628882 0.140459 0.461898 0.221797
H27   H     H_    0.577893 0.143953 0.773538 0.251288
H28   H     H_    0.605750 0.954715 0.763471 0.225505
C39   C     C_1   0.436271 0.337783 0.927474 0.583387
N13   N     N_1   0.398956 0.237974 0.836435 -0.346577
C40   C     C_1   0.563725 0.662224 0.072530 0.583367
N14   N     N_1   0.601036 0.762038 0.163576 -0.346514

loop_
_geom_bond_atom_site_label_1
_geom_bond_atom_site_label_2
_ccdc_geom_bond_type
C23   C24   S    
C33   H20   S    
C36   H27   S    
C38   H22   S    
Cu1   O8    S    
C28   H8    S    
Cu2   O7    S    
C37   H25   S    
C3    C33   S    
N2    N4    A    
Cu1   O5    S    
C15   C31   S    
C1    O3    A    
C26   C27   S    
C2    O4    A    
C37   H26   S    
C7    C17   A    
C5    O5    A    
C34   C35   S    
C8    C22   S    
Cu1   Cu2   S    
C33   H21   S    
C33   C34   S    
Cu2   O6    S    
C10   C26   S    
C10   C12   A    
C23   H6    S    
C36   H28   S    
C38   H23   S    
C28   H9    S    
C6    C18   S    
Cu1   O4    S    
C11   C20   S    
Cu2   O3    S    
C32   N12   T    
C36   C37   S    
C4    C36   S    
C22   N8    T    
C35   H16   S    
Cu1   O1    S    
C8    C18   A    
C6    O6    A    
C1    C3    S    
C2    C4    S    
C25   H1    S    
C21   N7    T    
C9    C11   A    
C20   N1    A    
C1    O1    A    
C7    C21   S    
C16   C32   S    
C24   H5    S    
C5    C17   S    
C25   H2    S    
C27   H12   S    
C16   C18   A    
Cu1   N6    S    
C12   C14   A    
Cu2   N5    S    
C13   C15   A    
C34   H19   S    
C14   C16   A    
C26   H13   S    
C24   C25   S    
C3    C4    D    
C23   H7    S    
C40   N14   T    
C38   H24   S    
C27   C28   S    
C28   H10   S    
C15   C17   A    
Cu2   O2    S    
C37   C38   S    
C35   H17   S    
C9    C23   S    
C2    O2    A    
C19   N2    A    
C35   H15   S    
C11   C13   A    
C20   N4    A    
C14   C30   S    
C5    O7    A    
C12   C19   S    
C6    O8    A    
N5    C39   S    
N6    C40   S    
C24   H4    S    
N1    N3    A    
C29   N9    T    
C19   N3    A    
C25   H3    S    
C27   H11   S    
C30   N10   T    
C7    C9    A    
C13   C29   S    
C8    C10   A    
C31   N11   T    
C34   H18   S    
C26   H14   S    
C39   N13   T    
N5    N6    D    
