data_mof_unit_62565.cif
_audit_creation_date              2012-12-10T19:31:56-0500
_audit_creation_method            fapswitch 2.2
_symmetry_space_group_name_H-M    P1
_symmetry_Int_Tables_number       1
_space_group_crystal_system       triclinic
_cell_length_a                    25.815887
_cell_length_b                    24.668705
_cell_length_c                    16.431615
_cell_angle_alpha                 90.000877
_cell_angle_beta                  90.000707
_cell_angle_gamma                 89.999887
_cell_volume                      10464.3836486

loop_
_atom_site_label
_atom_site_type_symbol
_atom_type_description
_atom_site_fract_x
_atom_site_fract_y
_atom_site_fract_z
_atom_type_partial_charge
C1    C     C_R   0.075220 0.430702 0.500000 0.893459
C2    C     C_R   0.924780 0.569298 0.500000 0.893459
C3    C     C_R   0.924780 0.430701 0.499999 0.893458
C4    C     C_R   0.075220 0.569299 0.500001 0.893457
C5    C     C_R   0.575220 0.930701 0.500000 0.893459
C6    C     C_R   0.424780 0.069298 0.500000 0.893459
C7    C     C_R   0.424780 0.930701 0.499999 0.893458
C8    C     C_R   0.575220 0.069299 0.500001 0.893457
C9    C     C_R   0.999996 0.548027 0.743916 0.182496
C10   C     C_R   0.999997 0.451973 0.256084 0.182496
C11   C     C_R   0.000004 0.451973 0.743914 0.182500
C12   C     C_R   0.000003 0.548027 0.256086 0.182500
C13   C     C_R   0.499996 0.048027 0.743916 0.182496
C14   C     C_R   0.499997 0.951973 0.256084 0.182496
C15   C     C_R   0.500004 0.951973 0.743914 0.182500
C16   C     C_R   0.500003 0.048027 0.256086 0.182500
C17   C     C_R   1.000000 0.500000 0.873568 0.113068
C18   C     C_R   1.000000 0.500000 0.126432 0.113068
C19   C     C_R   0.500000 0.000000 0.873568 0.113068
C20   C     C_R   0.500000 1.000000 0.126432 0.113068
C21   C     C_1   1.000000 0.500000 0.962816 0.042604
C22   C     C_1   1.000000 0.500000 0.037184 0.042604
C23   C     C_1   0.500000 0.000000 0.962816 0.042604
C24   C     C_1   0.500000 1.000000 0.037184 0.042604
C25   C     C_R   0.180993 0.665607 0.573930 0.244707
C26   C     C_R   0.818994 0.334407 0.426072 0.244709
C27   C     C_R   0.819006 0.334396 0.573927 0.244705
C28   C     C_R   0.181007 0.665589 0.426074 0.244708
C29   C     C_R   0.819005 0.665604 0.426071 0.244706
C30   C     C_R   0.181008 0.334410 0.573927 0.244709
C31   C     C_R   0.180995 0.334396 0.426072 0.244706
C32   C     C_R   0.818992 0.665590 0.573927 0.244709
C33   C     C_R   0.680993 0.165607 0.573930 0.244707
C34   C     C_R   0.318994 0.834407 0.426072 0.244709
C35   C     C_R   0.319006 0.834396 0.573927 0.244705
C36   C     C_R   0.681007 0.165590 0.426074 0.244708
C37   C     C_R   0.319005 0.165604 0.426071 0.244706
C38   C     C_R   0.681008 0.834410 0.573927 0.244709
C39   C     C_R   0.680995 0.834396 0.426072 0.244706
C40   C     C_R   0.318992 0.165590 0.573927 0.244709
C41   C     C_R   0.144043 0.623798 0.574399 0.206323
C42   C     C_R   0.855947 0.376213 0.425604 0.206314
C43   C     C_R   0.855956 0.376206 0.574396 0.206323
C44   C     C_R   0.144054 0.623783 0.425607 0.206314
C45   C     C_R   0.855955 0.623795 0.425601 0.206323
C46   C     C_R   0.144055 0.376217 0.574395 0.206314
C47   C     C_R   0.144044 0.376205 0.425602 0.206323
C48   C     C_R   0.855945 0.623783 0.574394 0.206314
C49   C     C_R   0.644043 0.123798 0.574399 0.206323
C50   C     C_R   0.355947 0.876213 0.425604 0.206314
C51   C     C_R   0.355956 0.876206 0.574396 0.206323
C52   C     C_R   0.644054 0.123783 0.425607 0.206314
C53   C     C_R   0.355955 0.123795 0.425601 0.206323
C54   C     C_R   0.644055 0.876217 0.574395 0.206314
C55   C     C_R   0.644045 0.876205 0.425602 0.206323
C56   C     C_R   0.355945 0.123783 0.574394 0.206314
C57   C     C_R   0.121379 0.605980 0.500002 -0.277505
C58   C     C_R   0.878621 0.394020 0.500000 -0.277505
C59   C     C_R   0.878621 0.605979 0.499998 -0.277505
C60   C     C_R   0.121379 0.394021 0.499999 -0.277505
C61   C     C_R   0.621379 0.105980 0.500002 -0.277505
C62   C     C_R   0.378621 0.894020 0.500000 -0.277505
C63   C     C_R   0.378621 0.105979 0.499998 -0.277505
C64   C     C_R   0.621379 0.894021 0.499999 -0.277505
C65   C     C_R   0.197981 0.687650 0.500001 -0.154699
C66   C     C_R   0.802019 0.312350 0.499999 -0.154698
C67   C     C_R   0.802018 0.687649 0.500000 -0.154699
C68   C     C_R   0.197982 0.312351 0.500000 -0.154698
C69   C     C_R   0.697981 0.187650 0.500001 -0.154699
C70   C     C_R   0.302019 0.812350 0.499999 -0.154698
C71   C     C_R   0.302018 0.187649 0.500000 -0.154699
C72   C     C_R   0.697982 0.812351 0.500000 -0.154698
C73   C     C_1   0.234691 0.731606 0.499999 0.173655
C74   C     C_1   0.765309 0.268394 0.499998 0.173655
C75   C     C_1   0.765309 0.731606 0.500001 0.173655
C76   C     C_1   0.234691 0.268394 0.500001 0.173655
C77   C     C_1   0.734691 0.231606 0.499999 0.173655
C78   C     C_1   0.265309 0.768393 0.499998 0.173655
C79   C     C_1   0.265309 0.231606 0.500001 0.173655
C80   C     C_1   0.734691 0.768394 0.500001 0.173655
C81   C     C_R   0.999996 0.548570 0.829782 -0.215511
C82   C     C_R   0.999997 0.451430 0.170217 -0.215512
C83   C     C_R   0.000004 0.451430 0.829781 -0.215513
C84   C     C_R   0.000003 0.548570 0.170219 -0.215513
C85   C     C_R   0.499996 0.048570 0.829782 -0.215511
C86   C     C_R   0.499997 0.951430 0.170217 -0.215512
C87   C     C_R   0.500004 0.951430 0.829781 -0.215513
C88   C     C_R   0.500003 0.048570 0.170219 -0.215513
Cu1   Cu    Cu3+1 0.000000 0.500000 0.580420 1.045186
Cu2   Cu    Cu3+1 0.000000 0.500000 0.419580 1.045186
Cu3   Cu    Cu3+1 0.500000 0.000000 0.580420 1.045186
Cu4   Cu    Cu3+1 0.500000 0.000000 0.419580 1.045186
H1    H     H_    0.999993 0.586838 0.862285 0.163950
H2    H     H_    0.999994 0.413162 0.137715 0.163950
H3    H     H_    0.000007 0.413162 0.862282 0.163949
H4    H     H_    0.000006 0.586838 0.137718 0.163949
H5    H     H_    0.499993 0.086838 0.862285 0.163950
H6    H     H_    0.499994 0.913162 0.137715 0.163950
H7    H     H_    0.500007 0.913162 0.862282 0.163949
H8    H     H_    0.500006 0.086838 0.137718 0.163949
N1    N     N_R   1.000000 0.500000 0.701220 -0.210007
N2    N     N_R   0.000000 0.500000 0.298780 -0.210007
N3    N     N_R   0.500000 0.000000 0.701220 -0.210007
N4    N     N_R   0.500000 0.000000 0.298780 -0.210007
O1    O     O_R   0.054370 0.445630 0.567930 -0.565778
O2    O     O_R   0.945630 0.554370 0.432070 -0.565769
O3    O     O_R   0.945630 0.554370 0.567930 -0.565777
O4    O     O_R   0.054370 0.445630 0.432070 -0.565768
O5    O     O_R   0.945630 0.445630 0.432070 -0.565777
O6    O     O_R   0.054370 0.554370 0.567930 -0.565767
O7    O     O_R   0.054370 0.554370 0.432070 -0.565778
O8    O     O_R   0.945630 0.445630 0.567930 -0.565768
O9    O     O_R   0.554370 0.945630 0.567930 -0.565778
O10   O     O_R   0.445630 0.054370 0.432070 -0.565769
O11   O     O_R   0.445630 0.054370 0.567930 -0.565777
O12   O     O_R   0.554370 0.945630 0.432070 -0.565768
O13   O     O_R   0.445630 0.945630 0.432070 -0.565777
O14   O     O_R   0.554370 0.054370 0.567930 -0.565767
O15   O     O_R   0.554370 0.054370 0.432070 -0.565778
O16   O     O_R   0.445630 0.945630 0.567930 -0.565768
Br1   Br    Br    0.208859 0.692508 0.675180 -0.268319
Br2   Br    Br    0.791105 0.307529 0.324823 -0.268327
Br3   Br    Br    0.791139 0.307501 0.675178 -0.268322
Br4   Br    Br    0.208897 0.692462 0.324825 -0.268329
Br5   Br    Br    0.791138 0.692501 0.324821 -0.268321
Br6   Br    Br    0.208898 0.307536 0.675176 -0.268328
Br7   Br    Br    0.208862 0.307499 0.324822 -0.268321
Br8   Br    Br    0.791102 0.692465 0.675175 -0.268328
Br9   Br    Br    0.708859 0.192508 0.675180 -0.268319
Br10  Br    Br    0.291105 0.807529 0.324823 -0.268327
Br11  Br    Br    0.291139 0.807501 0.675178 -0.268322
Br12  Br    Br    0.708897 0.192462 0.324825 -0.268329
Br13  Br    Br    0.291138 0.192501 0.324821 -0.268321
Br14  Br    Br    0.708898 0.807536 0.675176 -0.268328
Br15  Br    Br    0.708862 0.807499 0.324822 -0.268321
Br16  Br    Br    0.291102 0.192465 0.675175 -0.268328
Br17  Br    Br    0.131323 0.588100 0.677475 -0.340614
Br18  Br    Br    0.868658 0.411925 0.322537 -0.340610
Br19  Br    Br    0.868674 0.411910 0.677470 -0.340608
Br20  Br    Br    0.131345 0.588065 0.322541 -0.340604
Br21  Br    Br    0.868675 0.588094 0.322527 -0.340614
Br22  Br    Br    0.131345 0.411932 0.677461 -0.340610
Br23  Br    Br    0.131325 0.411905 0.322530 -0.340611
Br24  Br    Br    0.868656 0.588069 0.677459 -0.340607
Br25  Br    Br    0.631322 0.088100 0.677475 -0.340614
Br26  Br    Br    0.368658 0.911925 0.322537 -0.340610
Br27  Br    Br    0.368674 0.911910 0.677470 -0.340608
Br28  Br    Br    0.631345 0.088065 0.322541 -0.340604
Br29  Br    Br    0.368675 0.088094 0.322527 -0.340614
Br30  Br    Br    0.631344 0.911932 0.677461 -0.340610
Br31  Br    Br    0.631325 0.911905 0.322530 -0.340611
Br32  Br    Br    0.368656 0.088069 0.677459 -0.340607
C89   C     C_1   0.999992 0.599412 0.702451 0.409605
N5    N     N_1   0.999989 0.640940 0.669629 -0.223508
C90   C     C_1   0.999994 0.400588 0.297549 0.409606
N6    N     N_1   0.999991 0.359060 0.330371 -0.223508
C91   C     C_1   0.000008 0.400588 0.702447 0.409602
N7    N     N_1   0.000010 0.359060 0.669624 -0.223514
C92   C     C_1   0.000007 0.599412 0.297553 0.409602
N8    N     N_1   0.000009 0.640940 0.330376 -0.223514
C93   C     C_1   0.499992 0.099412 0.702451 0.409605
N9    N     N_1   0.499989 0.140940 0.669629 -0.223508
C94   C     C_1   0.499994 0.900588 0.297549 0.409606
N10   N     N_1   0.499991 0.859060 0.330371 -0.223508
C95   C     C_1   0.500008 0.900588 0.702447 0.409602
N11   N     N_1   0.500010 0.859060 0.669624 -0.223514
C96   C     C_1   0.500006 0.099412 0.297553 0.409602
N12   N     N_1   0.500009 0.140940 0.330376 -0.223514

loop_
_geom_bond_atom_site_label_1
_geom_bond_atom_site_label_2
_ccdc_geom_bond_type
C53   Br29  S    
C30   Br6   S    
C95   N11   T    
C82   H2    S    
C40   C71   A    
C29   Br5   S    
C42   Br18  S    
C7    O13   A    
C69   C77   S    
C94   N10   T    
C76   C79   T    
C31   Br7   S    
C42   C58   A    
C71   C79   S    
C93   N9    T    
C8    O14   A    
C46   Br22  S    
C39   Br15  S    
C40   Br16  S    
Cu1   O8    S    
C12   C84   A    
C91   N7    T    
C46   C60   A    
Cu4   O15   S    
C19   C87   A    
C52   C61   A    
C36   Br12  S    
C70   C78   S    
C16   C96   S    
C33   C49   A    
C66   C74   S    
C47   Br23  S    
C2    O3    A    
C65   C73   S    
C48   Br24  S    
C84   H4    S    
C14   C94   S    
C6    O10   A    
C43   C58   A    
C47   C60   A    
C29   C67   A    
C14   N4    A    
C16   N4    A    
C39   C55   A    
C20   C24   S    
C35   C70   A    
Cu3   O11   S    
C40   C56   A    
C74   C77   T    
C20   C86   A    
C4    C57   S    
C18   C84   A    
C73   C78   T    
C43   Br19  S    
C56   Br32  S    
C75   C80   T    
C44   C57   A    
C41   Br17  S    
C36   C52   A    
C33   C69   A    
C8    C61   S    
C37   C53   A    
C50   Br26  S    
C9    C89   S    
C52   Br28  S    
C31   C47   A    
C21   C22   T    
C45   Br21  S    
C32   C48   A    
C51   C62   A    
Cu2   O7    S    
C1    O1    A    
C87   H7    S    
C31   C68   A    
C38   C72   A    
C34   C50   A    
C49   C61   A    
C26   C66   A    
C10   N2    A    
C25   C65   A    
Cu2   O2    S    
C54   Br30  S    
C1    C60   S    
C25   C41   A    
C96   N12   T    
C27   Br3   S    
C2    C59   S    
C1    O4    A    
C11   C83   A    
Cu1   O6    S    
C28   C44   A    
C17   C21   S    
C2    O2    A    
Cu3   O9    S    
C5    C64   S    
C29   C45   A    
C17   C83   A    
C6    C63   S    
C19   C23   S    
Cu4   O13   S    
C7    C62   S    
C12   N2    A    
C81   H1    S    
C5    O9    A    
C92   N8    T    
C38   C54   A    
C51   Br27  S    
C3    O8    A    
C39   C72   A    
C83   H3    S    
C55   C64   A    
Cu1   O3    S    
C56   C63   A    
C49   Br25  S    
C11   N1    A    
C13   C93   S    
Cu4   O12   S    
C14   C86   A    
C88   H8    S    
C32   C67   A    
C9    N1    A    
C4    O7    A    
C37   C71   A    
C5    O12   A    
C35   C51   A    
C50   C62   A    
C37   Br13  S    
C13   N3    A    
Cu1   O1    S    
C35   Br11  S    
Cu3   Cu4   S    
C36   C69   A    
C11   C91   S    
C48   C59   A    
C15   C87   A    
C33   Br9   S    
C4    O6    A    
C45   C59   A    
Cu1   N1    S    
C18   C22   S    
C7    O16   A    
C30   C46   A    
Cu3   N3    S    
C19   C85   A    
C10   C90   S    
C28   Br4   S    
C55   Br31  S    
C68   C76   S    
Cu4   O10   S    
C32   Br8   S    
C28   C65   A    
C89   N5    T    
Cu2   O4    S    
C72   C80   S    
C27   C66   A    
Cu2   N2    S    
C53   C63   A    
C54   C64   A    
C3    O5    A    
C20   C88   A    
C18   C82   A    
C10   C82   A    
C17   C81   A    
C38   Br14  S    
C26   C42   A    
C86   H6    S    
Cu3   O14   S    
C6    O11   A    
C85   H5    S    
Cu4   N4    S    
C23   C24   T    
C41   C57   A    
C3    C58   S    
C27   C43   A    
C67   C75   S    
C34   Br10  S    
C44   Br20  S    
C13   C85   A    
C90   N6    T    
C16   C88   A    
Cu3   O16   S    
C15   C95   S    
C26   Br2   S    
Cu2   O5    S    
C15   N3    A    
Cu1   Cu2   S    
C25   Br1   S    
C34   C70   A    
C30   C68   A    
C8    O15   A    
C9    C81   A    
C12   C92   S    
