data_mof_unit_42366.cif
_audit_creation_date              2012-12-11T14:30:16-0500
_audit_creation_method            fapswitch 2.2
_symmetry_space_group_name_H-M    P1
_symmetry_Int_Tables_number       1
_space_group_crystal_system       triclinic
_cell_length_a                    12.764545
_cell_length_b                    12.731974
_cell_length_c                    26.953309
_cell_angle_alpha                 90.221786
_cell_angle_beta                  89.944118
_cell_angle_gamma                 120.275296
_cell_volume                      3782.93443967

loop_
_atom_site_label
_atom_site_type_symbol
_atom_type_description
_atom_site_fract_x
_atom_site_fract_y
_atom_site_fract_z
_atom_type_partial_charge
Br1   Br    Br    0.994553 0.716289 0.146667 -0.491104
Br2   Br    Br    0.763940 0.061546 0.864920 -0.497607
Br3   Br    Br    0.920283 0.694449 0.631389 -0.498248
Br4   Br    Br    0.295717 0.232423 0.864829 -0.520926
Br5   Br    Br    0.725879 0.028473 0.353763 -0.488036
Br6   Br    Br    0.277158 0.274683 0.145309 -0.539157
Br7   Br    Br    0.953888 0.672742 0.352914 -0.497480
Br8   Br    Br    0.724262 0.998242 0.142890 -0.433422
Br9   Br    Br    0.316371 0.270922 0.350155 -0.487983
Br10  Br    Br    0.766701 0.065368 0.634305 -0.498692
Br11  Br    Br    0.931735 0.701553 0.865617 -0.474715
Br12  Br    Br    0.306710 0.223783 0.631231 -0.519818
C1    C     C_R   0.556189 0.456263 0.822020 0.548650
C2    C     C_R   0.458112 0.555975 0.178599 0.564972
C3    C     C_R   0.053951 0.333435 0.481651 0.130641
C4    C     C_R   0.292683 0.958622 0.024864 0.125537
C5    C     C_R   0.671314 0.713717 0.478176 0.087929
C6    C     C_R   0.289548 0.949665 0.530432 0.085680
C7    C     C_R   0.038350 0.334900 0.970812 0.123295
C8    C     C_R   0.664378 0.706991 0.530014 0.140809
C9    C     C_R   0.293210 0.953261 0.973056 0.143230
C10   C     C_R   0.049705 0.335927 0.533334 0.093882
C11   C     C_R   0.667586 0.702342 0.973364 0.092402
C12   C     C_R   0.442358 0.901052 0.321729 0.555948
C13   C     C_R   0.098449 0.541268 0.178521 0.563888
C14   C     C_R   0.988253 0.496346 0.974504 -0.020539
C15   C     C_R   0.504184 0.009965 0.526303 -0.019538
C16   C     C_R   0.504916 0.489480 0.975123 -0.015482
C17   C     C_R   0.982759 0.485002 0.527508 -0.011423
C18   C     C_R   0.507605 0.012526 0.974829 -0.017420
C19   C     C_R   0.510972 0.491622 0.524507 -0.029636
C20   C     C_R   0.497424 0.003710 0.473833 -0.021604
C21   C     C_R   0.900493 0.444383 0.678743 0.582527
C22   C     C_R   0.994876 0.496569 0.027038 -0.011296
C23   C     C_R   0.512784 0.499609 0.472036 -0.018547
C24   C     C_R   0.503172 0.007036 0.027381 -0.013688
C25   C     C_R   0.994877 0.486792 0.475386 -0.013665
C26   C     C_R   0.504140 0.494168 0.027702 -0.018908
C27   C     C_R   0.940283 0.658311 0.979742 -0.091048
C28   C     C_R   0.718821 0.075331 0.520617 -0.119522
C29   C     C_R   0.347463 0.276518 0.979093 -0.117972
C30   C     C_R   0.901050 0.620406 0.519382 -0.137540
C31   C     C_R   0.720686 0.072227 0.978894 -0.119703
C32   C     C_R   0.543363 0.099911 0.821871 0.551258
C33   C     C_R   0.364297 0.275618 0.517872 -0.116296
C34   C     C_R   0.710690 0.064964 0.469411 -0.104131
C35   C     C_R   0.951445 0.661265 0.030959 -0.099222
C36   C     C_R   0.365682 0.283773 0.466482 -0.125026
C37   C     C_R   0.714826 0.063760 0.030211 -0.122708
C38   C     C_R   0.911233 0.620061 0.468218 -0.124671
C39   C     C_R   0.341019 0.284194 0.030283 -0.112112
C40   C     C_R   0.949987 0.576367 0.898599 0.099893
C41   C     C_R   0.624425 0.050918 0.601810 0.111761
C42   C     C_R   0.425090 0.373023 0.898438 0.109569
C43   C     C_R   0.556380 0.455807 0.677962 0.548234
C44   C     C_R   0.938122 0.565635 0.601289 0.105181
C45   C     C_R   0.624090 0.050750 0.898343 0.107492
C46   C     C_R   0.431974 0.370341 0.599780 0.107889
C47   C     C_R   0.588338 0.001695 0.393624 0.104722
C48   C     C_R   0.005585 0.594919 0.106995 0.096638
C49   C     C_R   0.422552 0.408393 0.391338 0.112463
C50   C     C_R   0.593032 0.996581 0.106374 0.123863
C51   C     C_R   0.994280 0.575072 0.394553 0.110095
C52   C     C_R   0.402778 0.406030 0.106889 0.089239
C53   C     C_R   0.032596 0.512726 0.130265 0.016000
C54   C     C_R   0.899887 0.444174 0.821868 0.579353
C55   C     C_R   0.476532 0.965633 0.370551 0.005782
C56   C     C_R   0.485976 0.515162 0.130862 0.010294
C57   C     C_R   0.058913 0.522492 0.374539 0.042841
C58   C     C_R   0.484280 0.969643 0.130634 0.011291
C59   C     C_R   0.492697 0.522910 0.369388 0.018219
C60   C     C_R   0.524594 0.036477 0.629883 0.046535
C61   C     C_R   0.960803 0.487736 0.870808 0.043421
C62   C     C_R   0.514837 0.472210 0.628502 0.000735
C63   C     C_R   0.524269 0.039055 0.870968 0.014507
C64   C     C_R   0.961112 0.487753 0.630491 0.055604
C65   C     C_R   0.543459 0.099302 0.678414 0.576928
C66   C     C_R   0.512387 0.474246 0.871030 0.013851
C67   C     C_R   0.960783 0.578518 0.950674 0.011732
C68   C     C_R   0.616001 0.043891 0.549811 0.019613
C69   C     C_R   0.424365 0.379428 0.950609 0.017582
C70   C     C_R   0.941502 0.558326 0.549593 0.017386
C71   C     C_R   0.617520 0.043530 0.950414 0.018412
C72   C     C_R   0.433881 0.378898 0.547632 0.024427
C73   C     C_R   0.599958 0.024879 0.445278 0.023380
C74   C     C_R   0.981988 0.583728 0.055369 0.017788
C75   C     C_R   0.434478 0.395924 0.442883 0.022593
C76   C     C_R   0.459353 0.557232 0.321390 0.565845
C77   C     C_R   0.605192 0.024335 0.055063 0.026902
C78   C     C_R   0.965468 0.560300 0.445632 0.029184
C79   C     C_R   0.416098 0.393273 0.055344 0.019569
C80   C     C_R   0.009931 0.423019 0.893354 0.084134
C81   C     C_R   0.409512 0.983313 0.607743 0.094780
C82   C     C_R   0.574461 0.589098 0.894603 0.083664
C83   C     C_R   0.017773 0.428468 0.609671 0.076974
C84   C     C_R   0.409599 0.987800 0.894319 0.070141
C85   C     C_R   0.575993 0.587634 0.606042 0.095268
C86   C     C_R   0.387125 0.977924 0.397598 0.088017
C87   C     C_R   0.443807 0.901716 0.178538 0.557740
C88   C     C_R   0.012471 0.407780 0.103561 0.064533
C89   C     C_R   0.594226 0.613899 0.396402 0.071604
C90   C     C_R   0.400974 0.991857 0.104780 0.060322
C91   C     C_R   0.085819 0.448026 0.404706 0.082450
C92   C     C_R   0.593040 0.597630 0.105200 0.090731
C93   C     C_R   0.013078 0.417381 0.945930 0.026400
C94   C     C_R   0.399099 0.978881 0.555119 0.037916
C95   C     C_R   0.582496 0.595409 0.947303 0.026163
C96   C     C_R   0.019790 0.417020 0.557390 0.006665
C97   C     C_R   0.401752 0.982862 0.946945 0.028672
C98   C     C_R   0.105667 0.544499 0.323120 0.596412
C99   C     C_R   0.583144 0.596673 0.553742 0.057973
C100  C     C_R   0.389831 0.979932 0.449798 0.064400
C101  C     C_R   0.012850 0.409085 0.051320 0.041241
C102  C     C_R   0.594546 0.610001 0.448607 0.036739
C103  C     C_R   0.398095 0.986724 0.052473 -0.003156
C104  C     C_R   0.042194 0.419852 0.453381 0.030488
C105  C     C_R   0.592302 0.598493 0.052815 0.029287
C106  C     C_R   0.036654 0.329559 0.022724 0.108133
C107  C     C_R   0.286430 0.954925 0.478289 0.109280
C108  C     C_R   0.674771 0.701812 0.025351 0.124336
Cr1   Cr    Cr6+3 0.487630 0.241180 0.750000 1.133048
Cr2   Cr    Cr6+3 0.753550 0.512370 0.750000 1.134884
Cr3   Cr    Cr6+3 0.758820 0.246450 0.750000 1.144017
Cr4   Cr    Cr6+3 0.241180 0.487630 0.250000 1.134669
Cr5   Cr    Cr6+3 0.512370 0.753550 0.250000 1.134390
Cr6   Cr    Cr6+3 0.246450 0.758820 0.250000 1.131315
H1    H     H_    0.937787 0.726693 0.051055 0.168718
H2    H     H_    0.807461 0.101761 0.961970 0.172900
H3    H     H_    0.861925 0.670895 0.534910 0.166830
H4    H     H_    0.288429 0.189177 0.962215 0.167401
H5    H     H_    0.048759 0.292692 0.143503 0.302882
H6    H     H_    0.914378 0.284711 0.157465 0.281025
H7    H     H_    0.339349 0.054459 0.341881 0.288122
H8    H     H_    0.224548 0.915379 0.361875 0.310113
H9    H     H_    0.702591 0.633690 0.165347 0.256255
H10   H     H_    0.773510 0.676080 0.112898 0.263771
H11   H     H_    0.134400 0.329063 0.378068 0.324656
H12   H     H_    0.792093 0.087270 0.449113 0.177856
H13   H     H_    0.239742 0.441036 0.416790 0.234910
H14   H     H_    0.367302 0.067021 0.165510 0.275408
H15   H     H_    0.339618 0.107330 0.112404 0.246563
H16   H     H_    0.718238 0.656402 0.340975 0.297627
H17   H     H_    0.697184 0.773573 0.358652 0.293833
H18   H     H_    0.248191 0.838312 0.629707 0.270406
H19   H     H_    0.261247 0.978278 0.639882 0.329975
H20   H     H_    0.151224 0.400645 0.872093 0.269070
H21   H     H_    0.009161 0.275823 0.861721 0.329209
H22   H     H_    0.558467 0.680838 0.664337 0.234182
H23   H     H_    0.275504 0.203834 0.049745 0.162365
H24   H     H_    0.704165 0.717989 0.651709 0.320674
H25   H     H_    0.284034 0.995142 0.849360 0.308169
H26   H     H_    0.311729 0.880179 0.835974 0.253563
H27   H     H_    0.173445 0.433200 0.631756 0.242843
H28   H     H_    0.040483 0.300519 0.647371 0.292382
H29   H     H_    0.594375 0.678140 0.828232 0.257363
H30   H     H_    0.570062 0.739834 0.876881 0.228307
H31   H     H_    0.145673 0.303626 0.069096 0.278342
H32   H     H_    0.001907 0.179911 0.063389 0.281433
H33   H     H_    0.149198 0.989873 0.466199 0.235064
H34   H     H_    0.881353 0.672009 0.447065 0.178167
H35   H     H_    0.107925 0.840232 0.463280 0.242448
H36   H     H_    0.737511 0.877553 0.041988 0.268860
H37   H     H_    0.846852 0.840982 0.036804 0.251854
H38   H     H_    0.992536 0.154298 0.469160 0.255157
H39   H     H_    0.144395 0.243388 0.469633 0.256822
H40   H     H_    0.164992 0.856823 0.075649 0.294888
H41   H     H_    0.176648 0.994375 0.063875 0.266133
H42   H     H_    0.823606 0.829451 0.439039 0.281456
H43   H     H_    0.703509 0.855289 0.433649 0.272603
H44   H     H_    0.113878 0.830383 0.547796 0.256723
H45   H     H_    0.796790 0.085925 0.050005 0.167242
H46   H     H_    0.152059 0.979320 0.550292 0.255117
H47   H     H_    0.008743 0.164860 0.955564 0.270342
H48   H     H_    0.154600 0.278765 0.951412 0.274382
H49   H     H_    0.726825 0.881281 0.550722 0.278846
H50   H     H_    0.835086 0.841802 0.547839 0.255314
H51   H     H_    0.191169 0.989161 0.925217 0.279031
H52   H     H_    0.151479 0.838200 0.929329 0.293117
H53   H     H_    0.150033 0.292245 0.578833 0.271953
H54   H     H_    0.994320 0.192593 0.580875 0.277529
H55   H     H_    0.799114 0.794779 0.921247 0.315110
H56   H     H_    0.308902 0.201540 0.445696 0.185934
H57   H     H_    0.707037 0.854208 0.934105 0.278979
H58   H     H_    0.807012 0.107357 0.536857 0.160628
H59   H     H_    0.916593 0.720811 0.963496 0.179369
H60   H     H_    0.307916 0.186830 0.533735 0.167918
N1    N     N_3   0.974319 0.294976 0.128906 -0.596451
N2    N     N_3   0.301516 0.930289 0.864471 -0.619515
N3    N     N_3   0.083177 0.394463 0.643073 -0.596751
N4    N     N_3   0.618772 0.698159 0.865492 -0.564198
N5    N     N_3   0.074172 0.251692 0.044925 -0.639956
N6    N     N_3   0.175267 0.928245 0.454235 -0.588686
N7    N     N_3   0.759817 0.811715 0.050452 -0.551622
N8    N     N_3   0.064369 0.238190 0.457713 -0.613020
N9    N     N_3   0.178206 0.920067 0.048371 -0.579884
N10   N     N_3   0.752133 0.830786 0.457308 -0.652386
N11   N     N_3   0.181332 0.917859 0.557960 -0.627025
N12   N     N_3   0.299449 0.998273 0.372574 -0.530331
N13   N     N_3   0.065255 0.254227 0.943731 -0.610457
N14   N     N_3   0.745791 0.812521 0.558534 -0.535725
N15   N     N_3   0.180717 0.919470 0.948649 -0.573126
N16   N     N_3   0.069055 0.248745 0.558986 -0.647923
N17   N     N_3   0.752638 0.812686 0.948737 -0.629895
N18   N     N_3   0.702761 0.676174 0.132187 -0.476445
N19   N     N_3   0.176370 0.420430 0.388486 -0.565641
N20   N     N_3   0.328035 0.030597 0.131036 -0.546310
N21   N     N_3   0.703381 0.699355 0.371043 -0.590952
N22   N     N_3   0.306102 0.928855 0.640179 -0.565192
N23   N     N_3   0.061733 0.370498 0.861378 -0.561611
N24   N     N_3   0.620661 0.695533 0.636117 -0.541878
O1    O     O_R   0.460870 0.120930 0.805240 -0.494596
O2    O     O_R   0.120930 0.460870 0.194760 -0.514074
O3    O     O_R   0.539130 0.660060 0.305240 -0.526378
O4    O     O_R   0.339940 0.879070 0.194760 -0.474602
O5    O     O_R   0.498910 0.350470 0.801870 -0.450766
O6    O     O_R   0.851560 0.501090 0.698130 -0.460941
O7    O     O_R   0.649530 0.148440 0.801870 -0.450732
O8    O     O_R   0.498910 0.350470 0.698130 -0.446878
O9    O     O_R   0.851560 0.501090 0.801870 -0.457816
O10   O     O_R   0.649530 0.148440 0.698130 -0.461636
O11   O     O_R   0.350470 0.498910 0.301870 -0.437619
O12   O     O_R   0.660060 0.539130 0.694760 -0.496890
O13   O     O_R   0.501090 0.851560 0.198130 -0.444109
O14   O     O_R   0.148440 0.649530 0.301870 -0.462782
O15   O     O_R   0.350470 0.498910 0.198130 -0.451515
O16   O     O_R   0.501090 0.851560 0.301870 -0.451960
O17   O     O_R   0.148440 0.649530 0.198130 -0.438171
O18   O     O_3   0.666667 0.333333 0.750000 -0.298334
O19   O     O_3   0.333333 0.666667 0.250000 -0.297928
O20   O     O_R   0.879070 0.339940 0.805240 -0.458031
O21   O     O_R   0.460870 0.120930 0.694760 -0.456774
O22   O     O_R   0.660060 0.539130 0.805240 -0.467873
O23   O     O_R   0.879070 0.339940 0.694760 -0.461410
O24   O     O_R   0.120930 0.460870 0.305240 -0.466313
O25   O     O_R   0.539130 0.660060 0.194760 -0.468974
O26   O     O_R   0.339940 0.879070 0.305240 -0.528260

loop_
_geom_bond_atom_site_label_1
_geom_bond_atom_site_label_2
_ccdc_geom_bond_type
C24   C77   A    
Cr3   O10   S    
H7    N12   S    
C44   C64   A    
H47   N13   S    
C31   C71   A    
Cr1   O8    S    
C84   N2    S    
Cr6   O17   S    
C30   C70   A    
H26   N2    S    
C98   O14   A    
H39   N8    S    
H31   N5    S    
Cr4   O15   S    
Br2   C45   S    
C25   C104  A    
H27   N3    S    
C22   C101  A    
C28   C34   A    
H48   N13   S    
C4    C9    A    
Cr1   O18   S    
C25   C78   A    
Br9   C49   S    
H43   N10   S    
C92   N18   S    
H54   N16   S    
C52   C56   A    
C64   C83   A    
C29   H4    S    
C85   C99   A    
H38   N8    S    
C33   H60   S    
C51   C78   A    
H37   N7    S    
C16   C95   A    
C50   C77   A    
C5    C8    A    
C47   C55   A    
C50   C58   A    
C23   C102  A    
C22   C74   A    
Br6   C52   S    
C18   C71   A    
Br10  C41   S    
H15   N20   S    
C8    N14   S    
C10   N16   S    
Br11  C40   S    
C49   C75   A    
C55   C86   A    
C39   C79   A    
Cr3   O23   S    
C26   C105  A    
Cr5   O3    S    
C38   C78   A    
C3    C10   A    
H17   N21   S    
C51   C57   A    
C7    C106  A    
C5    C102  A    
C28   C68   A    
C17   C96   A    
C90   C103  A    
C43   O8    A    
C40   C67   A    
Cr6   O26   S    
Cr4   O19   S    
C12   C55   S    
H5    N1    S    
C34   H12   S    
C34   C73   A    
Cr4   O24   S    
C49   C59   A    
Cr5   O13   S    
C59   C89   A    
C11   C95   A    
Cr5   O25   S    
C89   C102  A    
C3    N8    S    
Cr6   O4    S    
C80   N23   S    
H55   N17   S    
C23   C75   A    
H50   N14   S    
H35   N6    S    
C12   O16   A    
H6    N1    S    
C2    O25   A    
C21   O6    A    
C14   C22   A    
C63   C84   A    
C32   O7    A    
C62   C85   A    
C57   C91   A    
H25   N2    S    
C87   O13   A    
C82   C95   A    
C65   O21   A    
C86   C100  A    
C76   O3    A    
C86   N12   S    
C18   C97   A    
C35   C74   A    
C9    N15   S    
C41   C68   A    
C13   C53   S    
C107  N6    S    
C53   C88   A    
C2    O15   A    
C47   C73   A    
C15   C68   A    
Cr2   O9    S    
C105  C108  A    
C11   C108  A    
C37   H45   S    
Br5   C47   S    
H13   N19   S    
H11   N19   S    
Cr3   O18   S    
Cr4   O2    S    
C15   C94   A    
C38   H34   S    
C54   C61   S    
C26   C79   A    
C13   O17   A    
C19   C99   A    
C19   C72   A    
C59   C76   S    
C11   N17   S    
C27   C67   A    
C57   C98   S    
C32   C63   S    
C82   N4    S    
C60   C65   S    
C12   O26   A    
H29   N4    S    
C46   C72   A    
C81   C94   A    
C8    C99   A    
Br3   C44   S    
C21   C64   S    
H53   N16   S    
C16   C26   A    
Cr1   O1    S    
C29   C69   A    
C85   N24   S    
Cr6   O19   S    
C6    N11   S    
C45   C71   A    
C108  N7    S    
C36   C75   A    
H46   N11   S    
H16   N21   S    
H40   N9    S    
C44   C70   A    
C90   N20   S    
C106  N5    S    
Br7   C51   S    
C89   N21   S    
C30   C38   A    
C43   O12   A    
C88   N1    S    
C7    C93   A    
H28   N3    S    
C48   C53   A    
C40   C61   A    
Cr6   O14   S    
H42   N10   S    
C19   C23   A    
Br1   C48   S    
C33   C72   A    
C60   C81   A    
C7    N13   S    
Cr5   O16   S    
C4    C103  A    
Cr1   O5    S    
H10   N18   S    
H20   N23   S    
C21   O23   A    
C58   C87   S    
C46   C62   A    
C27   C35   A    
C92   C105  A    
C24   C103  A    
C33   C36   A    
H8    N12   S    
C1    C66   S    
C28   H58   S    
C48   C74   A    
C20   C100  A    
Br4   C42   S    
C15   C20   A    
C76   O11   A    
H41   N9    S    
H33   N6    S    
C31   C37   A    
C88   C101  A    
C56   C92   A    
C61   C80   A    
C37   C77   A    
H14   N20   S    
C31   H2    S    
C100  C107  A    
C9    C97   A    
C58   C90   A    
C65   O10   A    
C35   H1    S    
H9    N18   S    
C87   O4    A    
Cr2   O22   S    
C84   C97   A    
C54   O20   A    
Cr5   O19   S    
C14   C67   A    
H24   N24   S    
C18   C24   A    
C32   O1    A    
H57   N17   S    
C45   C63   A    
C91   C104  A    
C16   C69   A    
Br12  C46   S    
C17   C70   A    
C43   C62   S    
C4    N9    S    
H32   N5    S    
H22   N24   S    
C13   O2    A    
C36   H56   S    
C14   C93   A    
C41   C60   A    
C1    O5    A    
Cr3   O20   S    
C6    C94   A    
C66   C82   A    
C10   C96   A    
C20   C73   A    
C6    C107  A    
H36   N7    S    
C1    O22   A    
C54   O9    A    
Cr2   O6    S    
H19   N22   S    
C30   H3    S    
H51   N15   S    
C42   C69   A    
Cr3   O7    S    
Cr2   O18   S    
H49   N14   S    
C91   N19   S    
C83   C96   A    
C83   N3    S    
C101  C106  A    
C27   H59   S    
C80   C93   A    
Cr4   O11   S    
C39   H23   S    
Cr2   O12   S    
H52   N15   S    
C17   C25   A    
C2    C56   S    
C3    C104  A    
C5    N10   S    
C52   C79   A    
C42   C66   A    
H21   N23   S    
C81   N22   S    
Cr1   O21   S    
C29   C39   A    
H44   N11   S    
C98   O24   A    
Br8   C50   S    
H18   N22   S    
H30   N4    S    
