data_mof_unit_34499.cif
_audit_creation_date              2012-12-10T17:16:38-0500
_audit_creation_method            fapswitch 2.2
_symmetry_space_group_name_H-M    P1
_symmetry_Int_Tables_number       1
_space_group_crystal_system       triclinic
_cell_length_a                    10.090558
_cell_length_b                    10.622738
_cell_length_c                    10.49768
_cell_angle_alpha                 90.826435
_cell_angle_beta                  93.348662
_cell_angle_gamma                 82.118357
_cell_volume                      1112.68337697

loop_
_atom_site_label
_atom_site_type_symbol
_atom_type_description
_atom_site_fract_x
_atom_site_fract_y
_atom_site_fract_z
_atom_type_partial_charge
C1    C     C_R   0.447299 0.517493 0.265785 0.912539
C2    C     C_R   0.553426 0.500716 0.734672 0.943132
C3    C     C_2   0.425826 0.551767 0.131930 -0.447596
C4    C     C_2   0.577913 0.524478 0.870183 -0.468013
C5    C     C_2   0.514480 0.612465 0.072299 0.199327
C6    C     C_2   0.499337 0.615561 0.933374 0.210598
C7    C     C_2   0.071730 0.494381 0.484294 -0.124771
C8    C     C_2   0.927021 0.509673 0.512682 -0.135148
C9    C     C_R   0.492982 0.263728 0.473032 0.903658
C10   C     C_R   0.503507 0.741680 0.511533 0.854032
C11   C     C_R   0.706329 0.088911 0.351882 -0.128750
C12   C     C_R   0.270541 0.927205 0.588334 -0.138127
C13   C     C_R   0.831194 0.014617 0.350857 -0.163040
C14   C     C_R   0.145736 0.002334 0.577947 -0.162436
C15   C     C_R   0.855431 0.903417 0.421526 -0.164325
C16   C     C_R   0.128412 0.111615 0.504480 -0.146174
C17   C     C_R   0.751870 0.861942 0.484916 -0.135878
C18   C     C_R   0.238481 0.150633 0.450337 -0.127350
C19   C     C_R   0.619886 0.928451 0.474031 0.085044
C20   C     C_R   0.367580 0.081056 0.470172 0.094001
C21   C     C_R   0.602503 0.049792 0.420256 0.096542
C22   C     C_R   0.381595 0.960697 0.525432 0.095956
C23   C     C_R   0.505527 0.879358 0.516066 -0.263102
C24   C     C_R   0.483445 0.131034 0.439985 -0.281598
H1    H     H_    0.030678 0.167835 0.492117 0.142269
H2    H     H_    0.954536 0.849119 0.427416 0.148324
H3    H     H_    0.690862 0.176952 0.298885 0.136341
H4    H     H_    0.278259 0.844939 0.648324 0.149599
H5    H     H_    0.910505 0.045782 0.299291 0.135651
H6    H     H_    0.061933 0.974370 0.625234 0.139192
H7    H     H_    0.777962 0.780342 0.545698 0.146591
H8    H     H_    0.223080 0.235313 0.392656 0.126422
H9    H     H_    0.658016 0.462899 0.921212 0.144751
H10   H     H_    0.338979 0.522832 0.079046 0.143318
H11   H     H_    0.891516 0.573394 0.588738 0.150749
H12   H     H_    0.106062 0.433969 0.405607 0.147493
H13   H     H_    0.879884 0.389019 0.377123 0.147637
H14   H     H_    0.120978 0.608082 0.625321 0.147058
N1    N     N_2   0.157300 0.551390 0.551120 -0.193437
N2    N     N_2   0.842700 0.448610 0.448880 -0.196220
O1    O     O_R   0.568940 0.489660 0.307530 -0.627742
O2    O     O_R   0.431060 0.510340 0.692470 -0.608351
O3    O     O_R   0.348880 0.522640 0.340350 -0.605252
O4    O     O_R   0.651120 0.477360 0.659650 -0.595194
O5    O     O_R   0.610030 0.300280 0.483580 -0.599525
O6    O     O_R   0.389970 0.699720 0.516420 -0.614181
O7    O     O_R   0.389970 0.333270 0.516400 -0.597329
O8    O     O_R   0.610030 0.666730 0.483600 -0.621875
Zn1   Zn    Zn3+2 0.646940 0.477980 0.478080 0.915549
Zn2   Zn    Zn3+2 0.353060 0.522020 0.521920 0.923530
C25   C     C_3   0.395627 0.715121 0.867155 -0.369833
C26   C     C_3   0.328176 0.817411 0.955586 -0.900989
H15   H     H_    0.269160 0.774433 0.025231 0.264952
H16   H     H_    0.403085 0.869080 0.007568 0.268627
H17   H     H_    0.258441 0.887331 0.897912 0.245483
H18   H     H_    0.446793 0.763223 0.794866 0.188391
H19   H     H_    0.314025 0.668732 0.819248 0.218829
C27   C     C_3   0.632521 0.666444 0.141192 -0.324368
C28   C     C_3   0.703309 0.752160 0.059609 -0.910701
H20   H     H_    0.749802 0.697775 0.978739 0.258859
H21   H     H_    0.632578 0.834142 0.022393 0.265723
H22   H     H_    0.784042 0.789566 0.119107 0.258819
H23   H     H_    0.595873 0.723413 0.224840 0.221770
H24   H     H_    0.709430 0.587236 0.174843 0.220547

loop_
_geom_bond_atom_site_label_1
_geom_bond_atom_site_label_2
_ccdc_geom_bond_type
O4    Zn1   S    
C10   O6    A    
C19   C23   A    
C9    C24   S    
C9    O5    A    
C25   H19   S    
C11   H3    S    
C10   C23   S    
O7    Zn2   S    
C7    H12   S    
O6    Zn2   S    
C2    C4    S    
O2    Zn2   S    
C26   H17   S    
O5    Zn1   S    
C2    O2    A    
C3    C5    D    
C28   H20   S    
O3    Zn2   S    
C16   C18   A    
C20   C24   A    
C27   H24   S    
C11   C13   A    
C5    C6    S    
C5    C27   S    
C14   H6    S    
C1    C3    S    
C1    O1    A    
O8    Zn1   S    
C19   C21   A    
C26   H16   S    
C9    O7    A    
H13   N2    S    
C18   C20   A    
C13   C15   A    
C10   O8    A    
H14   N1    S    
C17   H7    S    
C14   C16   A    
C21   C24   A    
C28   H21   S    
C18   H8    S    
C20   C22   A    
C11   C21   A    
C25   C26   S    
C27   H23   S    
C12   C22   A    
C7    C8    S    
N1    Zn2   S    
C26   H15   S    
C12   H4    S    
C4    C6    D    
C25   H18   S    
C6    C25   S    
O1    Zn1   S    
C16   H1    S    
C15   C17   A    
C7    N1    D    
C4    H9    S    
C15   H2    S    
C8    N2    D    
C3    H10   S    
C17   C19   A    
C27   C28   S    
C22   C23   A    
C1    O3    A    
C2    O4    A    
N2    Zn1   S    
C13   H5    S    
C12   C14   A    
C28   H22   S    
C8    H11   S    
