data_mof_unit_47066.cif
_audit_creation_date              2012-12-11T14:48:05-0500
_audit_creation_method            fapswitch 2.2
_symmetry_space_group_name_H-M    P1
_symmetry_Int_Tables_number       1
_space_group_crystal_system       triclinic
_cell_length_a                    11.567686
_cell_length_b                    11.492846
_cell_length_c                    19.53786
_cell_angle_alpha                 90.900785
_cell_angle_beta                  90.368625
_cell_angle_gamma                 59.96698
_cell_volume                      2248.44792195

loop_
_atom_site_label
_atom_site_type_symbol
_atom_type_description
_atom_site_fract_x
_atom_site_fract_y
_atom_site_fract_z
_atom_type_partial_charge
C1    C     C_R   0.641647 0.119114 0.598474 0.548668
C2    C     C_1   0.641401 0.704209 0.668002 0.011261
C3    C     C_1   0.145821 0.188275 0.863050 0.015145
C4    C     C_1   0.226041 0.146003 0.735485 -0.024243
C5    C     C_1   0.186535 0.164603 0.804923 -0.020663
C6    C     C_1   0.257527 0.134115 0.675945 0.005203
C7    C     C_1   0.714835 0.219019 0.852371 0.006490
C8    C     C_1   0.678523 0.185610 0.722933 -0.022808
C9    C     C_1   0.697011 0.206175 0.792567 -0.023102
C10   C     C_1   0.662674 0.160538 0.664702 0.009749
C11   C     C_R   0.531341 0.786573 0.287231 0.249444
C12   C     C_R   0.612446 0.746208 0.598630 0.544677
C13   C     C_R   0.539011 0.750318 0.219453 0.282830
C14   C     C_R   0.666606 0.658459 0.193778 0.015614
C15   C     C_R   0.777186 0.589913 0.237495 -0.117611
C16   C     C_R   0.761945 0.612357 0.307037 -0.142191
C17   C     C_R   0.638213 0.708748 0.331647 0.027979
C18   C     C_R   0.059117 0.180550 0.319081 -0.105134
C19   C     C_R   0.009443 0.214308 0.252595 -0.176162
C20   C     C_R   0.085487 0.230727 0.201692 0.012245
C21   C     C_R   0.213152 0.210944 0.217065 0.272288
C22   C     C_R   0.256316 0.188073 0.284285 -0.046399
C23   C     C_R   0.297551 0.120692 0.605504 0.543182
C24   C     C_R   0.182307 0.168850 0.334840 0.044571
C25   C     C_R   0.743913 0.040827 0.291567 -0.175802
C26   C     C_R   0.745491 0.056550 0.222107 0.230793
C27   C     C_R   0.673614 0.187802 0.195086 0.009368
C28   C     C_R   0.592543 0.299041 0.239018 0.197553
C29   C     C_R   0.592471 0.280863 0.309666 0.263698
C30   C     C_R   0.666732 0.149516 0.335429 -0.094580
C31   C     C_R   0.084292 0.229614 0.929255 0.573857
C32   C     C_R   0.683798 0.604420 0.929487 0.554667
C33   C     C_R   0.740775 0.231750 0.923128 0.542656
C34   C     C_R   0.645971 0.114069 0.403481 0.576537
C35   C     C_R   0.030259 0.266761 0.133412 0.536076
C36   C     C_R   0.683183 0.611007 0.125226 0.590883
C37   C     C_R   0.707699 0.211226 0.126818 0.600122
C38   C     C_R   0.616828 0.738937 0.402810 0.562781
C39   C     C_R   0.237554 0.143827 0.403499 0.534613
C40   C     C_1   0.669928 0.646540 0.860156 0.016736
C41   C     C_1   0.654724 0.683962 0.728455 -0.026604
C42   C     C_1   0.663071 0.666838 0.799733 -0.025267
Cr1   Cr    Cr6+3 0.404720 0.198220 0.499960 1.113812
Cr2   Cr    Cr6+3 0.698290 0.897110 0.500380 1.046583
Cr3   Cr    Cr6+3 0.396970 0.904720 0.499610 1.079430
Cr4   Cr    Cr6+3 0.926180 0.152240 0.028110 1.116229
Cr5   Cr    Cr6+3 0.921340 0.452070 0.027460 1.107019
Cr6   Cr    Cr6+3 0.626260 0.447120 0.028700 1.122021
H1    H     H_    0.873955 0.514307 0.218191 0.146365
H2    H     H_    0.845334 0.555936 0.341152 0.142177
H3    H     H_    0.000561 0.167717 0.358131 0.133410
H4    H     H_    0.912039 0.227426 0.240667 0.107322
H5    H     H_    0.352044 0.178653 0.296991 0.146848
H6    H     H_    0.798579 0.939688 0.311113 0.206952
O1    O     O_R   0.267740 0.231990 0.575440 -0.493575
O2    O     O_R   0.685970 0.784630 0.430010 -0.514565
O3    O     O_R   0.502530 0.766960 0.423990 -0.455159
O4    O     O_R   0.288330 0.026310 0.429250 -0.467258
O5    O     O_3   0.499990 0.000020 0.499980 -0.310559
O6    O     O_R   0.821500 0.119550 0.952820 -0.475118
O7    O     O_R   0.037130 0.162750 0.957360 -0.499959
O8    O     O_R   0.056440 0.344950 0.951330 -0.482899
O9    O     O_R   0.797900 0.560570 0.957460 -0.494320
O10   O     O_R   0.596140 0.579600 0.952720 -0.495414
O11   O     O_R   0.639070 0.321380 0.958660 -0.474500
O12   O     O_R   0.527280 0.186680 0.570530 -0.495399
O13   O     O_R   0.821240 0.124490 0.104360 -0.444947
O14   O     O_R   0.036900 0.167320 0.097830 -0.455668
O15   O     O_R   0.056190 0.349890 0.102870 -0.434988
O16   O     O_R   0.797670 0.565150 0.097930 -0.505571
O17   O     O_R   0.595880 0.584540 0.104260 -0.427812
O18   O     O_R   0.638830 0.325960 0.099140 -0.486303
O19   O     O_3   0.824590 0.350480 0.028090 -0.349463
O20   O     O_R   0.728090 0.003480 0.576380 -0.499508
O21   O     O_R   0.682970 0.789220 0.570490 -0.495091
O22   O     O_R   0.499290 0.771920 0.575530 -0.499863
O23   O     O_R   0.285330 0.030900 0.569730 -0.491834
O24   O     O_R   0.270980 0.227040 0.423900 -0.492335
O25   O     O_R   0.530280 0.182090 0.430050 -0.431082
O26   O     O_R   0.731330 0.998530 0.424830 -0.522599
O27   O     O_3   0.421165 0.901671 0.309480 -0.630546
H7    H     H_    0.455887 0.950597 0.337115 0.300137
S1    S     S_3+6 0.833633 0.906453 0.171713 0.045057
O28   O     O_2   0.849574 0.788129 0.210841 -0.313367
O29   O     O_2   0.758997 0.918240 0.106502 -0.227934
O30   O     O_3   0.986865 0.879938 0.153203 -0.491473
H8    H     H_    0.028904 0.796829 0.124679 0.380986
O31   O     O_3   0.515473 0.426953 0.214401 -0.582221
H9    H     H_    0.461748 0.421424 0.176259 0.391183
S2    S     S_3+6 0.496736 0.423069 0.364155 0.070032
O32   O     O_2   0.363349 0.434491 0.376891 -0.259958
O33   O     O_2   0.567437 0.406358 0.431230 -0.289599
O34   O     O_3   0.471710 0.565599 0.328079 -0.451383
H10   H     H_    0.389117 0.638225 0.349527 0.389560
S3    S     S_3+6 0.388414 0.813709 0.170435 0.094734
O35   O     O_2   0.405359 0.864685 0.103055 -0.243975
O36   O     O_2   0.358831 0.701931 0.157427 -0.220627
O37   O     O_3   0.256154 0.936603 0.211775 -0.472047
H11   H     H_    0.177482 0.944209 0.187334 0.389888
S4    S     S_3+6 0.327955 0.199422 0.153964 0.077536
O38   O     O_2   0.307542 0.337150 0.142012 -0.256041
O39   O     O_2   0.309912 0.143135 0.087388 -0.185521
O40   O     O_3   0.483836 0.098754 0.181812 -0.538638
H12   H     H_    0.492362 0.009169 0.185902 0.372714

loop_
_geom_bond_atom_site_label_1
_geom_bond_atom_site_label_2
_ccdc_geom_bond_type
O34   H10   S    
C41   C42   S    
C31   O7    A    
C19   C20   A    
C2    C12   S    
Cr5   O8    S    
O27   H7    S    
S3    O37   S    
C33   O11   A    
C11   O27   S    
Cr1   O24   S    
Cr3   O3    S    
C26   C27   A    
C26   S1    S    
C13   S3    S    
Cr3   O22   S    
C18   C24   A    
C1    O20   A    
C28   C29   A    
C16   H2    S    
Cr5   O9    S    
Cr6   O10   S    
Cr2   O5    S    
Cr1   O25   S    
C15   C16   A    
C24   C39   S    
C18   C19   A    
Cr5   O15   S    
C34   O26   A    
C20   C35   S    
C19   H4    S    
C11   C17   A    
S3    O35   D    
C8    C9    S    
C28   O31   S    
Cr6   O11   S    
C36   O17   A    
Cr1   O5    S    
O31   H9    S    
C40   C42   T    
C21   C22   A    
C7    C33   S    
C31   O8    A    
Cr6   O18   S    
C29   S2    S    
C36   O16   A    
C18   H3    S    
C22   H5    S    
Cr3   O4    S    
C30   C34   S    
Cr4   O7    S    
C39   O24   A    
Cr2   O26   S    
C25   H6    S    
C32   O10   A    
C4    C6    T    
C21   S4    S    
O30   H8    S    
C16   C17   A    
C25   C26   A    
C39   O4    A    
S4    O40   S    
Cr2   O21   S    
Cr2   O20   S    
Cr5   O16   S    
Cr4   O14   S    
C29   C30   A    
C34   O25   A    
C38   O3    A    
Cr2   O2    S    
S2    O33   D    
S1    O28   D    
S4    O39   D    
C1    O12   A    
C23   O23   A    
C3    C31   S    
Cr5   O19   S    
Cr1   O1    S    
S1    O29   D    
C33   O6    A    
C12   O22   A    
C22   C24   A    
C12   O21   A    
Cr6   O17   S    
O40   H12   S    
C32   C40   S    
S2    O34   S    
C25   C30   A    
C7    C9    T    
Cr3   O5    S    
Cr4   O6    S    
Cr6   O19   S    
C1    C10   S    
C32   O9    A    
C4    C5    S    
C3    C5    T    
S3    O36   D    
C23   O1    A    
Cr4   O13   S    
C14   C36   S    
C11   C13   A    
S2    O32   D    
C35   O14   A    
C27   C37   S    
Cr1   O12   S    
C6    C23   S    
C37   O13   A    
S4    O38   D    
C17   C38   S    
C15   H1    S    
S1    O30   S    
C38   O2    A    
C20   C21   A    
C35   O15   A    
C8    C10   T    
O37   H11   S    
C37   O18   A    
C27   C28   A    
C14   C15   A    
Cr3   O23   S    
C2    C41   T    
C13   C14   A    
Cr4   O19   S    
