data_mof_unit_34226.cif
_audit_creation_date              2012-12-10T19:59:25-0500
_audit_creation_method            fapswitch 2.2
_symmetry_space_group_name_H-M    P1
_symmetry_Int_Tables_number       1
_space_group_crystal_system       triclinic
_cell_length_a                    14.972889
_cell_length_b                    14.138026
_cell_length_c                    10.682643
_cell_angle_alpha                 89.845407
_cell_angle_beta                  90.139398
_cell_angle_gamma                 90.02472
_cell_volume                      2261.36252426

loop_
_atom_site_label
_atom_site_type_symbol
_atom_type_description
_atom_site_fract_x
_atom_site_fract_y
_atom_site_fract_z
_atom_type_partial_charge
C1    C     C_R   0.327585 0.500001 0.497932 0.889535
C2    C     C_R   0.575765 0.104353 0.540615 -0.063461
C3    C     C_R   0.427005 0.204831 0.457666 0.041552
C4    C     C_R   0.573284 0.204358 0.540576 0.019300
C5    C     C_R   0.499950 0.052930 0.498518 -0.070251
C6    C     C_R   0.552870 0.895070 0.414408 -0.264969
C7    C     C_R   0.446594 0.895140 0.583436 -0.283933
C8    C     C_R   0.552190 0.795569 0.416834 0.067715
C9    C     C_R   0.447540 0.795627 0.582356 0.045236
C10   C     C_R   0.499729 0.946317 0.498659 0.078675
C11   C     C_R   0.503063 0.500263 0.259938 0.926861
C12   C     C_R   0.672376 0.499984 0.497794 0.812208
C13   C     C_R   0.503791 0.500012 0.740112 0.938816
C14   C     C_R   0.492961 0.583418 0.063660 -0.057876
C15   C     C_R   0.491452 0.582473 0.936364 -0.035813
C16   C     C_R   0.518263 0.502728 0.129030 -0.297159
C17   C     C_R   0.517844 0.502050 0.871571 -0.304440
C18   C     C_R   0.562768 0.428680 0.066462 0.380877
C19   C     C_R   0.562701 0.428517 0.935720 0.393654
C20   C     C_3   0.408369 0.641842 0.929439 -0.225312
C21   C     C_3   0.409961 0.642163 0.072388 -0.218226
C22   C     C_R   0.091850 0.581292 0.506350 -0.166948
C23   C     C_R   0.188428 0.420365 0.437872 -0.183621
C24   C     C_R   0.902989 0.577801 0.422088 -0.175898
C25   C     C_R   0.183670 0.581191 0.518061 -0.114849
C26   C     C_R   0.811312 0.578850 0.435973 -0.195993
C27   C     C_R   0.231845 0.500146 0.485963 -0.045469
C28   C     C_R   0.768010 0.499600 0.485848 -0.026208
C29   C     C_3   0.683307 0.375989 0.176148 0.128112
C30   C     C_3   0.721700 0.292292 0.247876 -0.739788
C31   C     C_3   0.686596 0.380605 0.829958 0.081604
C32   C     C_3   0.747609 0.294700 0.829402 -0.756276
C33   C     C_2   0.328996 0.590236 0.876363 0.441001
C34   C     C_R   0.816112 0.418604 0.519286 -0.223479
C35   C     C_2   0.428399 0.737958 0.127373 0.487663
C36   C     C_2   0.344083 0.056164 0.405687 0.406035
C37   C     C_2   0.657182 0.055023 0.586361 0.377845
C38   C     C_R   0.096688 0.421087 0.424042 -0.164647
C39   C     C_R   0.907856 0.418176 0.507542 -0.164361
C40   C     C_R   0.048138 0.500962 0.460271 0.095375
C41   C     C_R   0.951545 0.498133 0.460057 0.115191
C42   C     C_R   0.424567 0.104831 0.455701 -0.078839
H1    H     H_    0.594619 0.931846 0.347459 0.146212
H2    H     H_    0.774370 0.641069 0.406941 0.150740
H3    H     H_    0.225298 0.357952 0.410142 0.170701
H4    H     H_    0.783078 0.356373 0.556196 0.166850
H5    H     H_    0.063543 0.359103 0.386723 0.146901
H6    H     H_    0.944740 0.356624 0.539026 0.148160
H7    H     H_    0.370435 0.245170 0.424090 0.167370
H8    H     H_    0.630233 0.244310 0.573408 0.163961
H9    H     H_    0.680221 0.437602 0.240516 0.116905
H10   H     H_    0.729610 0.393130 0.098187 0.120510
H11   H     H_    0.726396 0.229763 0.185528 0.249690
H12   H     H_    0.404704 0.931984 0.649848 0.156222
H13   H     H_    0.789506 0.310025 0.282985 0.205206
H14   H     H_    0.678209 0.274730 0.328634 0.261997
H15   H     H_    0.719425 0.436451 0.887766 0.094413
H16   H     H_    0.680506 0.407965 0.733192 0.153970
H17   H     H_    0.718142 0.238127 0.770740 0.285913
H18   H     H_    0.813957 0.314394 0.791093 0.203596
H19   H     H_    0.756429 0.267475 0.926238 0.255435
H20   H     H_    0.312553 0.519484 0.908757 0.067488
H21   H     H_    0.483814 0.780399 0.093497 0.044593
H22   H     H_    0.342782 0.979919 0.395338 0.119647
H23   H     H_    0.593307 0.756602 0.351750 0.107411
H24   H     H_    0.656834 0.979299 0.602589 0.093548
H25   H     H_    0.406179 0.756724 0.647475 0.150060
H26   H     H_    0.420996 0.711946 0.885094 0.162142
H27   H     H_    0.353726 0.603771 0.118119 0.163925
H28   H     H_    0.054918 0.642924 0.536758 0.144744
H29   H     H_    0.936110 0.639431 0.383515 0.139620
H30   H     H_    0.216687 0.643589 0.554353 0.193065
N1    N     N_R   0.500000 0.252470 0.500000 -0.128563
N2    N     N_R   0.500000 0.747550 0.500000 -0.088259
O1    O     O_R   0.369060 0.579480 0.500010 -0.599297
O2    O     O_3   0.601238 0.353294 0.873620 -0.556687
O3    O     O_2   0.282611 0.627695 0.796393 -0.594692
O4    O     O_2   0.381225 0.768566 0.210964 -0.562847
O5    O     O_2   0.277838 0.100893 0.374616 -0.573512
O6    O     O_2   0.726300 0.098431 0.606015 -0.596387
O7    O     O_R   0.630940 0.579480 0.499990 -0.632508
O8    O     O_R   0.369050 0.420520 0.500010 -0.641749
O9    O     O_R   0.630950 0.420520 0.499990 -0.646398
O10   O     O_R   0.499990 0.579490 0.316780 -0.619138
O11   O     O_R   0.500010 0.579490 0.683220 -0.620966
O12   O     O_R   0.499980 0.420540 0.316780 -0.574272
O13   O     O_R   0.500020 0.420540 0.683220 -0.577940
O14   O     O_3   0.597746 0.351806 0.130299 -0.552985
Zn1   Zn    Zn3+2 0.500000 0.606140 0.500000 0.971003
Zn2   Zn    Zn3+2 0.500000 0.393860 0.500000 0.974767

loop_
_geom_bond_atom_site_label_1
_geom_bond_atom_site_label_2
_ccdc_geom_bond_type
C7    C10   A    
C5    C42   A    
C3    C42   A    
C23   H3    S    
C36   C42   S    
N1    Zn2   S    
C3    H7    S    
C26   H2    S    
C39   C41   A    
C12   C28   S    
C31   H16   S    
C19   O2    S    
C24   C26   A    
C32   H19   S    
C11   O12   A    
C15   C17   A    
C18   C19   A    
C29   O14   S    
C33   H20   S    
C22   C25   A    
C34   H4    S    
C23   C27   A    
O7    Zn1   S    
C28   C34   A    
C8    H23   S    
C24   C41   A    
C37   O6    D    
C15   C20   S    
C30   H11   S    
C34   C39   A    
C1    O1    A    
C7    H12   S    
O12   Zn2   S    
O11   Zn1   S    
C6    C8    A    
C1    O8    A    
C30   H14   S    
C18   O14   S    
C12   O9    A    
C4    H8    S    
C2    C4    A    
C9    H25   S    
C29   C30   S    
C11   C16   S    
C31   C32   S    
C22   C40   A    
C37   H24   S    
C13   O13   A    
C8    N2    A    
C4    N1    A    
C25   H30   S    
C38   H5    S    
C20   C33   S    
C40   C41   S    
C6    H1    S    
C14   C16   A    
C2    C5    A    
C9    N2    A    
C32   H18   S    
C13   O11   A    
N2    Zn1   S    
C29   H9    S    
C7    C9    A    
O9    Zn2   S    
C20   H26   S    
C36   O5    D    
C6    C10   A    
C21   C35   S    
C11   O10   A    
C25   C27   A    
C23   C38   A    
C30   H13   S    
C35   O4    D    
C26   C28   A    
O8    Zn2   S    
C13   C17   S    
C31   H15   S    
C5    C10   S    
C38   C40   A    
C2    C37   S    
C33   O3    D    
C31   O2    S    
C17   C19   A    
C12   O7    A    
C3    N1    A    
O1    Zn1   S    
C14   C21   S    
C20   C21   S    
C16   C18   A    
O10   Zn1   S    
O13   Zn2   S    
C21   H27   S    
C1    C27   S    
C14   C15   A    
C35   H21   S    
C32   H17   S    
C36   H22   S    
C22   H28   S    
C24   H29   S    
C39   H6    S    
C29   H10   S    
