data_mof_unit_17150.cif
_audit_creation_date              2012-12-11T16:28:08-0500
_audit_creation_method            fapswitch 2.2
_symmetry_space_group_name_H-M    P1
_symmetry_Int_Tables_number       1
_space_group_crystal_system       triclinic
_cell_length_a                    30.13985
_cell_length_b                    22.501315
_cell_length_c                    18.088283
_cell_angle_alpha                 89.999804
_cell_angle_beta                  123.252122
_cell_angle_gamma                 90.00053
_cell_volume                      10258.6613073

loop_
_atom_site_label
_atom_site_type_symbol
_atom_type_description
_atom_site_fract_x
_atom_site_fract_y
_atom_site_fract_z
_atom_type_partial_charge
C1    C     C_R   0.543504 0.583139 0.740900 -0.147192
C2    C     C_R   0.608226 0.261025 0.429094 -0.152409
C3    C     C_R   0.791088 0.650044 0.996913 -0.161376
C4    C     C_R   0.227939 0.708814 0.830646 -0.162984
C5    C     C_R   0.772092 0.291257 0.169400 -0.163020
C6    C     C_R   0.772092 0.708743 0.169401 -0.163020
C7    C     C_R   0.227909 0.291253 0.830601 -0.163020
C8    C     C_R   0.839201 0.326023 0.019938 -0.185879
C9    C     C_R   0.160816 0.673998 0.980076 -0.185886
C10   C     C_R   0.160801 0.326022 0.980064 -0.185878
C11   C     C_R   0.839199 0.673978 0.019935 -0.185878
C12   C     C_R   0.276765 0.682797 0.857900 -0.211581
C13   C     C_R   0.608225 0.738976 0.429094 -0.152408
C14   C     C_R   0.723269 0.317283 0.142144 -0.211599
C15   C     C_R   0.723268 0.682717 0.142144 -0.211599
C16   C     C_R   0.276734 0.317277 0.857858 -0.211597
C17   C     C_R   0.576099 0.610034 0.426876 -0.119992
C18   C     C_R   0.423903 0.389965 0.573124 -0.119993
C19   C     C_R   0.423902 0.610034 0.573125 -0.119993
C20   C     C_R   0.576098 0.389966 0.426875 -0.119996
C21   C     C_R   0.096114 0.081756 0.426968 -0.116630
C22   C     C_R   0.903885 0.918245 0.573032 -0.116636
C23   C     C_R   0.903885 0.081755 0.573032 -0.116629
C24   C     C_R   0.391776 0.261024 0.570910 -0.152409
C25   C     C_R   0.096114 0.918244 0.426968 -0.116631
C26   C     C_R   0.382428 0.582593 0.257942 -0.104521
C27   C     C_R   0.617573 0.417411 0.742059 -0.104517
C28   C     C_R   0.617573 0.582589 0.742059 -0.104516
C29   C     C_R   0.382427 0.417410 0.257941 -0.104520
C30   C     C_R   0.893353 0.108306 0.290470 -0.098127
C31   C     C_R   0.106644 0.891691 0.709525 -0.098133
C32   C     C_R   0.106647 0.108306 0.709531 -0.098127
C33   C     C_R   0.893352 0.891694 0.290469 -0.098127
C34   C     C_R   0.596205 0.600475 0.789628 0.106969
C35   C     C_R   0.800459 0.098602 0.565598 -0.164102
C36   C     C_R   0.403796 0.399524 0.210373 0.106969
C37   C     C_R   0.403801 0.600483 0.210379 0.106968
C38   C     C_R   0.596205 0.399525 0.789628 0.106969
C39   C     C_R   0.077130 0.138695 0.735993 0.095064
C40   C     C_R   0.922869 0.861305 0.264006 0.095064
C41   C     C_R   0.922870 0.138696 0.264008 0.095064
C42   C     C_R   0.077125 0.861301 0.735982 0.095065
C43   C     C_R   0.612950 0.642517 0.501471 0.037767
C44   C     C_R   0.387052 0.357482 0.498529 0.037768
C45   C     C_R   0.387051 0.642517 0.498530 0.037769
C46   C     C_R   0.199541 0.901397 0.434403 -0.164104
C47   C     C_R   0.612950 0.357484 0.501470 0.037768
C48   C     C_R   0.145449 0.096655 0.500767 0.049229
C49   C     C_R   0.854550 0.903347 0.499233 0.049228
C50   C     C_R   0.854551 0.096653 0.499233 0.049227
C51   C     C_R   0.145449 0.903346 0.500767 0.049230
C52   C     C_R   0.296006 0.774444 0.419271 -0.142302
C53   C     C_R   0.703997 0.225558 0.580730 -0.142305
C54   C     C_R   0.703994 0.774447 0.580732 -0.142305
C55   C     C_R   0.296011 0.225549 0.419269 -0.142306
C56   C     C_R   0.721646 0.162686 0.419616 -0.162677
C57   C     C_R   0.199542 0.098601 0.434405 -0.164102
C58   C     C_R   0.278353 0.837311 0.580385 -0.162677
C59   C     C_R   0.278354 0.162689 0.580385 -0.162677
C60   C     C_R   0.721643 0.837316 0.419615 -0.162677
C61   C     C_R   0.320147 0.722209 0.418567 -0.127901
C62   C     C_R   0.679856 0.277793 0.581433 -0.127911
C63   C     C_R   0.679853 0.722212 0.581435 -0.127911
C64   C     C_R   0.320152 0.277784 0.418565 -0.127910
C65   C     C_R   0.765638 0.142498 0.421395 -0.154091
C66   C     C_R   0.234362 0.857499 0.578605 -0.154088
C67   C     C_R   0.234362 0.142503 0.578604 -0.154094
C68   C     C_R   0.800458 0.901400 0.565598 -0.164102
C69   C     C_R   0.765635 0.857503 0.421394 -0.154093
C70   C     C_R   0.366650 0.702309 0.495856 0.131398
C71   C     C_R   0.633352 0.297691 0.504146 0.131397
C72   C     C_R   0.633350 0.702310 0.504147 0.131397
C73   C     C_R   0.366652 0.297688 0.495855 0.131396
C74   C     C_R   0.806363 0.112493 0.495837 0.134999
C75   C     C_R   0.193637 0.887505 0.504163 0.135000
C76   C     C_R   0.193637 0.112496 0.504163 0.134999
C77   C     C_R   0.806361 0.887508 0.495837 0.134999
C78   C     C_R   0.367567 0.791547 0.571506 -0.172234
C79   C     C_R   0.632434 0.208452 0.428498 -0.172235
C80   C     C_R   0.632432 0.791549 0.428498 -0.172234
C81   C     C_R   0.456497 0.416860 0.259101 -0.147190
C82   C     C_R   0.367569 0.208452 0.571507 -0.172234
C83   C     C_R   0.756141 0.118796 0.563743 -0.169519
C84   C     C_R   0.243859 0.881204 0.436259 -0.169520
C85   C     C_R   0.243860 0.118794 0.436261 -0.169520
C86   C     C_R   0.756141 0.881206 0.563743 -0.169520
C87   C     C_R   0.317768 0.807514 0.497410 0.103799
C88   C     C_R   0.682234 0.192486 0.502592 0.103800
C89   C     C_R   0.682231 0.807517 0.502592 0.103800
C90   C     C_R   0.317771 0.192482 0.497411 0.103799
C91   C     C_R   0.717723 0.153512 0.492555 0.115099
C92   C     C_R   0.456500 0.583144 0.259106 -0.147187
C93   C     C_R   0.282277 0.846487 0.507447 0.115101
C94   C     C_R   0.282279 0.153511 0.507448 0.115102
C95   C     C_R   0.717721 0.846491 0.492555 0.115102
C96   C     C_R   0.372435 0.621771 0.118533 0.062491
C97   C     C_R   0.627578 0.378252 0.881483 0.062488
C98   C     C_R   0.627577 0.621748 0.881483 0.062488
C99   C     C_R   0.372424 0.378249 0.118519 0.062488
C100  C     C_R   0.907902 0.193573 0.212144 0.072665
C101  C     C_R   0.092092 0.806426 0.787846 0.072677
C102  C     C_R   0.092099 0.193572 0.787857 0.072663
C103  C     C_R   0.543504 0.416861 0.740900 -0.147193
C104  C     C_R   0.907900 0.806428 0.212141 0.072662
C105  C     C_R   0.357784 0.633544 0.973196 -0.196762
C106  C     C_R   0.642242 0.366518 0.026832 -0.196768
C107  C     C_R   0.642241 0.633481 0.026831 -0.196769
C108  C     C_R   0.357761 0.366513 0.973171 -0.196766
C109  C     C_R   0.905092 0.250338 0.096457 -0.187117
C110  C     C_R   0.094906 0.749664 0.903534 -0.187131
C111  C     C_R   0.094911 0.250336 0.903547 -0.187118
C112  C     C_R   0.905088 0.749665 0.096451 -0.187118
C113  C     C_R   0.389198 0.613198 0.060423 -0.198803
C114  C     C_R   0.031958 0.105691 0.708867 -0.119830
C115  C     C_R   0.610820 0.386844 0.939595 -0.198798
C116  C     C_R   0.610820 0.613155 0.939595 -0.198800
C117  C     C_R   0.389182 0.386840 0.060408 -0.198802
C118  C     C_R   0.924228 0.202447 0.153849 -0.192551
C119  C     C_R   0.075760 0.797548 0.846130 -0.192543
C120  C     C_R   0.075774 0.202445 0.846154 -0.192553
C121  C     C_R   0.924224 0.797556 0.153843 -0.192554
C122  C     C_R   0.323478 0.649224 0.087336 0.090533
C123  C     C_R   0.676538 0.350800 0.912686 0.090541
C124  C     C_R   0.676538 0.649201 0.912686 0.090542
C125  C     C_R   0.968041 0.894309 0.291133 -0.119832
C126  C     C_R   0.323464 0.350796 0.087316 0.090542
C127  C     C_R   0.875301 0.235724 0.217141 0.091184
C128  C     C_R   0.124706 0.764285 0.782867 0.091171
C129  C     C_R   0.124699 0.235724 0.782859 0.091187
C130  C     C_R   0.875301 0.764275 0.217141 0.091187
C131  C     C_R   0.287311 0.655878 0.995913 0.013288
C132  C     C_R   0.712709 0.344161 0.004111 0.013283
C133  C     C_R   0.712708 0.655839 0.004110 0.013283
C134  C     C_R   0.287293 0.344157 0.995891 0.013284
C135  C     C_R   0.845905 0.275394 0.145507 0.011877
C136  C     C_R   0.968042 0.105691 0.291133 -0.119831
C137  C     C_R   0.154110 0.724628 0.854511 0.011883
C138  C     C_R   0.154096 0.275393 0.854494 0.011875
C139  C     C_R   0.845904 0.724606 0.145506 0.011875
C140  C     C_R   0.306948 0.656118 0.941036 0.165717
C141  C     C_R   0.693078 0.343942 0.058995 0.165709
C142  C     C_R   0.693077 0.656058 0.058994 0.165711
C143  C     C_R   0.306925 0.343937 0.941008 0.165710
C144  C     C_R   0.864047 0.284721 0.088209 0.168677
C145  C     C_R   0.135964 0.715295 0.911800 0.168666
C146  C     C_R   0.135955 0.284720 0.911793 0.168679
C147  C     C_R   0.031955 0.894307 0.708860 -0.119835
C148  C     C_R   0.864045 0.715280 0.088206 0.168680
C149  C     C_R   0.233372 0.668154 0.959381 0.092849
C150  C     C_R   0.766649 0.331880 0.040642 0.092865
C151  C     C_R   0.766647 0.668119 0.040642 0.092864
C152  C     C_R   0.233354 0.331878 0.959359 0.092864
C153  C     C_R   0.796301 0.300691 0.121814 0.085952
C154  C     C_R   0.203721 0.699350 0.878215 0.085959
C155  C     C_R   0.203700 0.300689 0.878187 0.085952
C156  C     C_R   0.796301 0.699309 0.121814 0.085952
C157  C     C_R   0.626178 0.608394 0.574538 -0.115776
C158  C     C_R   0.391774 0.738975 0.570909 -0.152408
C159  C     C_R   0.373823 0.391605 0.425462 -0.115776
C160  C     C_R   0.373822 0.608394 0.425462 -0.115770
C161  C     C_R   0.626178 0.391607 0.574538 -0.115776
C162  C     C_R   0.144481 0.081960 0.573723 -0.106507
C163  C     C_R   0.855519 0.918041 0.426277 -0.106506
C164  C     C_R   0.855519 0.081958 0.426277 -0.106507
C165  C     C_R   0.144481 0.918041 0.573723 -0.106510
C166  C     C_R   0.791090 0.349956 0.996914 -0.161376
C167  C     C_R   0.208930 0.650071 0.003103 -0.161374
C168  C     C_R   0.208913 0.349954 0.003088 -0.161376
H1    H     H_    0.517211 0.581203 0.764004 0.085453
H2    H     H_    0.427084 0.592872 0.082824 0.122724
H3    H     H_    0.427070 0.407168 0.082813 0.122723
H4    H     H_    0.572932 0.592827 0.917189 0.122720
H5    H     H_    0.048898 0.828112 0.848653 0.124012
H6    H     H_    0.951079 0.171875 0.151310 0.124017
H7    H     H_    0.951075 0.828130 0.151303 0.124018
H8    H     H_    0.048924 0.171872 0.848694 0.124018
H9    H     H_    0.372887 0.631181 0.930993 0.125687
H10   H     H_    0.627144 0.368898 0.069040 0.125691
H11   H     H_    0.627142 0.631102 0.069039 0.125690
H12   H     H_    0.482790 0.418796 0.235997 0.085452
H13   H     H_    0.372860 0.368891 0.930965 0.125692
H14   H     H_    0.918596 0.256780 0.052455 0.126831
H15   H     H_    0.081399 0.743217 0.947528 0.126838
H16   H     H_    0.081408 0.256778 0.947550 0.126831
H17   H     H_    0.918591 0.743224 0.052447 0.126831
H18   H     H_    0.771343 0.380002 0.941016 0.145331
H19   H     H_    0.228676 0.620023 0.058998 0.145334
H20   H     H_    0.228660 0.380001 0.058986 0.145331
H21   H     H_    0.771341 0.619997 0.941015 0.145330
H22   H     H_    0.210946 0.736856 0.773542 0.163202
H23   H     H_    0.482794 0.581210 0.236005 0.085449
H24   H     H_    0.789092 0.263237 0.226523 0.163248
H25   H     H_    0.789092 0.736763 0.226524 0.163249
H26   H     H_    0.210909 0.263233 0.773478 0.163247
H27   H     H_    0.652959 0.619953 0.643139 0.120920
H28   H     H_    0.347042 0.380045 0.356862 0.120919
H29   H     H_    0.347041 0.619953 0.356862 0.120920
H30   H     H_    0.652959 0.380047 0.643138 0.120921
H31   H     H_    0.178529 0.078061 0.640892 0.083224
H32   H     H_    0.821471 0.921940 0.359108 0.083223
H33   H     H_    0.821471 0.078060 0.359108 0.083223
H34   H     H_    0.517211 0.418797 0.764005 0.085453
H35   H     H_    0.178529 0.921939 0.640892 0.083223
H36   H     H_    0.557601 0.623206 0.358787 0.095898
H37   H     H_    0.442401 0.376793 0.641214 0.095902
H38   H     H_    0.442400 0.623206 0.641215 0.095902
H39   H     H_    0.557600 0.376794 0.358786 0.095902
H40   H     H_    0.086007 0.078815 0.359785 0.078622
H41   H     H_    0.913993 0.921186 0.640215 0.078622
H42   H     H_    0.913993 0.078815 0.640216 0.078621
H43   H     H_    0.086007 0.921185 0.359784 0.078622
H44   H     H_    0.340676 0.578116 0.232442 0.106114
H45   H     H_    0.000665 0.116021 0.718900 0.097283
H46   H     H_    0.659325 0.421891 0.767556 0.106113
H47   H     H_    0.659325 0.578109 0.767558 0.106112
H48   H     H_    0.340675 0.421889 0.232442 0.106114
H49   H     H_    0.855232 0.120865 0.278045 0.110263
H50   H     H_    0.144766 0.879132 0.721952 0.110258
H51   H     H_    0.144769 0.120865 0.721956 0.110263
H52   H     H_    0.855231 0.879135 0.278043 0.110264
H53   H     H_    0.257455 0.785265 0.361294 0.122870
H54   H     H_    0.742549 0.214738 0.638706 0.122871
H55   H     H_    0.742545 0.785270 0.638709 0.122870
H56   H     H_    0.999334 0.883979 0.281099 0.097284
H57   H     H_    0.257461 0.214725 0.361291 0.122872
H58   H     H_    0.693280 0.190182 0.364507 0.117044
H59   H     H_    0.306719 0.809815 0.635493 0.117041
H60   H     H_    0.306721 0.190186 0.635493 0.117043
H61   H     H_    0.693276 0.809821 0.364505 0.117043
H62   H     H_    0.299875 0.695587 0.359112 0.130298
H63   H     H_    0.700129 0.304417 0.640886 0.130295
H64   H     H_    0.700125 0.695589 0.640890 0.130298
H65   H     H_    0.299881 0.304405 0.359108 0.130303
H66   H     H_    0.769164 0.153628 0.366576 0.119157
H67   H     H_    0.999335 0.116021 0.281100 0.097284
H68   H     H_    0.230835 0.846368 0.633424 0.119154
H69   H     H_    0.230835 0.153635 0.633422 0.119159
H70   H     H_    0.769161 0.846374 0.366574 0.119156
H71   H     H_    0.428716 0.725890 0.630412 0.118955
H72   H     H_    0.571284 0.274108 0.369592 0.118957
H73   H     H_    0.571283 0.725891 0.369591 0.118957
H74   H     H_    0.428717 0.274111 0.630414 0.118954
H75   H     H_    0.830562 0.073730 0.622463 0.106389
H76   H     H_    0.169438 0.926270 0.377538 0.106390
H77   H     H_    0.169439 0.073727 0.377541 0.106390
H78   H     H_    0.000661 0.883978 0.718892 0.097280
H79   H     H_    0.830563 0.926272 0.622463 0.106389
H80   H     H_    0.753583 0.110705 0.620325 0.121379
H81   H     H_    0.246418 0.889295 0.379677 0.121379
H82   H     H_    0.246420 0.110700 0.379680 0.121377
H83   H     H_    0.753583 0.889298 0.620326 0.121378
H84   H     H_    0.385512 0.817095 0.632070 0.120410
H85   H     H_    0.614487 0.182902 0.367935 0.120412
H86   H     H_    0.614486 0.817098 0.367934 0.120412
H87   H     H_    0.385513 0.182905 0.632073 0.120411
H88   H     H_    0.854857 0.336369 0.979920 0.131743
H89   H     H_    0.572933 0.407171 0.917190 0.122720
H90   H     H_    0.145160 0.663647 0.020089 0.131748
H91   H     H_    0.145146 0.336369 0.020081 0.131744
H92   H     H_    0.854855 0.663632 0.979918 0.131743
H93   H     H_    0.292745 0.687814 0.817225 0.133183
H94   H     H_    0.707297 0.312288 0.182830 0.133198
H95   H     H_    0.707295 0.687713 0.182830 0.133197
H96   H     H_    0.292707 0.312281 0.817173 0.133197
I1    I     I_    0.685071 0.294828 0.824181 -0.482662
I2    I     I_    0.314948 0.705184 0.175851 -0.482671
I3    I     I_    0.314931 0.294825 0.175820 -0.482670
I4    I     I_    0.685070 0.705173 0.824182 -0.482664
I5    I     I_    0.106211 0.745506 0.652434 -0.391480
I6    I     I_    0.893811 0.254488 0.347590 -0.391495
I7    I     I_    0.893811 0.745513 0.347590 -0.391503
I8    I     I_    0.106190 0.254487 0.652410 -0.391494
N1    N     N_R   0.532910 0.558440 0.665240 -0.038137
N2    N     N_R   0.402970 0.441090 0.454460 -0.043555
N3    N     N_R   0.402970 0.558910 0.454460 -0.043555
N4    N     N_R   0.597030 0.441090 0.545540 -0.043555
N5    N     N_R   0.097030 0.058910 0.545540 -0.035056
N6    N     N_R   0.902970 0.941090 0.454460 -0.035056
N7    N     N_R   0.902970 0.058910 0.454460 -0.035056
N8    N     N_R   0.097030 0.941090 0.545540 -0.035056
N9    N     N_R   0.566200 0.559270 0.454460 -0.041452
N10   N     N_R   0.433800 0.440730 0.545540 -0.041452
N11   N     N_R   0.433800 0.559270 0.545540 -0.041452
N12   N     N_R   0.467090 0.441560 0.334760 -0.038137
N13   N     N_R   0.566200 0.440730 0.454460 -0.041451
N14   N     N_R   0.066200 0.059270 0.454460 -0.035920
N15   N     N_R   0.933800 0.940730 0.545540 -0.035920
N16   N     N_R   0.933800 0.059270 0.545540 -0.035919
N17   N     N_R   0.066200 0.940730 0.454460 -0.035921
N18   N     N_R   0.421050 0.559750 0.334770 -0.042691
N19   N     N_R   0.578950 0.440250 0.665230 -0.042692
N20   N     N_R   0.578950 0.559750 0.665230 -0.042692
N21   N     N_R   0.421050 0.440250 0.334770 -0.042692
N22   N     N_R   0.921050 0.059750 0.334770 -0.047137
N23   N     N_R   0.467090 0.558440 0.334760 -0.038137
N24   N     N_R   0.078950 0.940250 0.665230 -0.047138
N25   N     N_R   0.078950 0.059750 0.665230 -0.047137
N26   N     N_R   0.921050 0.940250 0.334770 -0.047137
N27   N     N_R   0.532910 0.441560 0.665240 -0.038138
N28   N     N_R   0.032910 0.058440 0.665240 -0.046058
N29   N     N_R   0.967090 0.941560 0.334760 -0.046059
N30   N     N_R   0.967090 0.058440 0.334760 -0.046059
N31   N     N_R   0.032910 0.941560 0.665240 -0.046059
N32   N     N_R   0.597030 0.558910 0.545540 -0.043555
Ni1   Ni    Ni4+2 0.483090 0.500000 0.604440 0.214887
Ni2   Ni    Ni4+2 0.516910 0.500000 0.395560 0.214888
Ni3   Ni    Ni4+2 0.983090 0.000000 0.604440 0.218692
Ni4   Ni    Ni4+2 0.016910 0.000000 0.395560 0.218693
Ni5   Ni    Ni4+2 0.586780 0.500000 0.604440 0.217467
Ni6   Ni    Ni4+2 0.413220 0.500000 0.395560 0.217468
Ni7   Ni    Ni4+2 0.086780 0.000000 0.604440 0.225899
Ni8   Ni    Ni4+2 0.913220 0.000000 0.395560 0.225900

loop_
_geom_bond_atom_site_label_1
_geom_bond_atom_site_label_2
_ccdc_geom_bond_type
C109  H14   S    
C61   C70   A    
N24   N31   A    
C31   C42   A    
C100  C127  A    
C132  C150  A    
N2    N10   A    
N7    Ni8   S    
C80   H86   S    
C124  C133  A    
C57   C76   A    
C52   C61   A    
C3    H21   S    
C48   C162  A    
C54   C63   A    
C136  H67   S    
N30   Ni4   S    
C86   H83   S    
C101  C128  A    
C78   H84   S    
C25   H43   S    
C131  C140  A    
N26   Ni8   S    
C134  C143  A    
C127  I6    S    
C133  C151  A    
C24   H74   S    
C97   C115  A    
C110  C145  A    
C21   C48   A    
C157  H27   S    
C9    H90   S    
C45   C160  A    
C42   C147  A    
C109  C118  A    
N13   Ni2   S    
C147  N31   A    
N6    N15   A    
C50   C164  A    
C60   H61   S    
C65   H66   S    
C28   N20   A    
N10   Ni1   S    
C124  I4    S    
C37   C96   S    
C17   C43   A    
C18   C44   A    
C15   C142  A    
C61   H62   S    
C79   H85   S    
C41   C100  S    
C160  N3    A    
C59   H60   S    
C47   C71   S    
C113  H2    S    
C22   C49   A    
C46   C84   A    
N21   Ni6   S    
C110  H15   S    
C82   H87   S    
C131  C149  A    
C2    C71   A    
C83   C91   A    
C31   N24   A    
C125  H56   S    
C68   C77   A    
C107  H11   S    
C84   H81   S    
C166  H18   S    
C26   N18   A    
C81   H12   S    
C105  H9    S    
C160  H29   S    
C13   C72   A    
C19   N11   A    
N8    N17   A    
C106  C115  A    
C105  C140  A    
C54   H55   S    
C121  H7    S    
C57   C85   A    
C109  C144  A    
C84   C93   A    
C20   C47   A    
C3    C11   A    
C86   C95   A    
C60   C95   A    
N23   Ni2   S    
C126  C134  A    
C10   C168  A    
C66   H68   S    
C44   C159  A    
C10   H91   S    
C26   H44   S    
C78   C87   A    
C35   H75   S    
C123  C132  A    
C48   C76   S    
C69   C77   A    
N8    Ni7   S    
C98   C124  A    
C92   N23   A    
C133  C142  A    
C161  H30   S    
C105  C113  A    
C55   C90   A    
C50   C74   S    
C11   C148  A    
C150  C166  A    
C53   C62   A    
C14   H94   S    
C59   C67   A    
N12   Ni2   S    
C78   C158  A    
C27   H46   S    
C64   C73   A    
C30   C41   A    
C2    C79   A    
C36   C99   S    
N3    N11   A    
C21   N14   A    
C92   H23   S    
C31   H50   S    
C125  N29   A    
C23   N16   A    
C46   C75   A    
C162  N5    A    
C1    C34   A    
C99   C126  A    
C139  C148  A    
C33   C40   A    
C4    H22   S    
C15   H95   S    
C115  H89   S    
C111  C146  A    
C29   N21   A    
C112  H17   S    
N5    Ni7   S    
N27   Ni1   S    
N6    Ni8   S    
C65   C74   A    
C38   C103  A    
C99   C117  A    
C88   C91   S    
C36   C81   A    
N24   Ni7   S    
C7    C155  A    
C7    H26   S    
C10   C146  A    
N28   Ni3   S    
C51   C165  A    
C4    C12   A    
C165  N8    A    
C42   C101  S    
C122  C131  A    
C122  I2    S    
C39   C102  S    
C132  C141  A    
C37   C92   A    
C108  C117  A    
C43   C157  A    
C110  C119  A    
C19   C45   A    
C23   H42   S    
C55   H57   S    
C112  C121  A    
C97   C123  A    
C130  I7    S    
C60   C69   A    
C138  C146  A    
C40   C125  A    
C87   C93   S    
C49   C77   S    
C62   C71   A    
C20   N13   A    
C108  C143  A    
C107  C116  A    
C49   C163  A    
C22   N15   A    
N2    Ni6   S    
C118  H6    S    
C20   H39   S    
C27   N19   A    
C106  H10   S    
C6    C156  A    
C58   H59   S    
C138  C155  A    
C4    C154  A    
C35   C74   A    
C168  H20   S    
N19   Ni5   S    
C149  C167  A    
C46   H76   S    
C103  N27   A    
C108  H13   S    
C18   H37   S    
C21   H40   S    
C137  C145  A    
C58   C93   A    
C127  C135  A    
C136  N30   A    
C24   C73   A    
C27   C38   A    
C116  H4    S    
C32   C39   A    
C80   C89   A    
N20   Ni5   S    
C120  H8    S    
C56   C91   A    
C147  H78   S    
C150  C153  A    
C19   H38   S    
C12   C140  A    
C164  N7    A    
C59   C94   A    
C69   H70   S    
C158  H71   S    
N4    N13   A    
C17   N9    A    
C28   H47   S    
C13   C80   A    
C28   C34   A    
C52   H53   S    
C104  C130  A    
C114  N28   A    
C130  C139  A    
C79   C88   A    
C152  C168  A    
C90   C94   S    
N32   Ni5   S    
C16   C143  A    
C35   C83   A    
C23   C50   A    
C53   H54   S    
C162  H31   S    
C67   H69   S    
C70   C158  A    
N26   N29   A    
C89   C95   S    
C149  C154  A    
C117  H3    S    
C152  C155  A    
C134  C152  A    
C151  C156  A    
N9    N32   A    
C5    C14   A    
C33   N26   A    
C7    C16   A    
N18   Ni6   S    
C96   C113  A    
C100  C118  A    
C157  N32   A    
C102  C120  A    
C30   N22   A    
C106  C141  A    
N14   Ni4   S    
C45   C70   S    
C159  N2    A    
N15   Ni3   S    
C26   C37   A    
C82   C90   A    
C96   C122  A    
C11   H92   S    
C165  H35   S    
C103  H34   S    
C129  I8    S    
C119  H5    S    
C2    H72   S    
C66   C75   A    
C9    C145  A    
C34   C98   S    
C8    H88   S    
C137  C154  A    
C12   H93   S    
C44   C73   S    
N22   N30   A    
C47   C161  A    
N22   Ni8   S    
C63   C72   A    
C62   H63   S    
C6    H25   S    
C43   C72   S    
C68   C86   A    
C128  I5    S    
C102  C129  A    
N17   Ni4   S    
C29   C36   A    
C139  C156  A    
C51   C75   S    
C56   C65   A    
C22   H41   S    
C24   C82   A    
N9    Ni2   S    
N25   Ni7   S    
C6    C15   A    
C58   C66   A    
C13   H73   S    
C129  C138  A    
C83   H80   S    
N1    N20   A    
N19   N27   A    
C1    N1    A    
C14   C141  A    
C85   H82   S    
C114  H45   S    
C81   N12   A    
C38   C97   S    
C68   H79   S    
C159  H28   S    
N18   N23   A    
C101  C119  A    
C9    C167  A    
C54   C89   A    
C57   H77   S    
C164  H33   S    
N1    Ni1   S    
C29   H48   S    
N31   Ni3   S    
C104  C121  A    
N29   Ni4   S    
C112  C148  A    
C25   N17   A    
C111  C120  A    
C17   H36   S    
C128  C137  A    
C25   C51   A    
N16   Ni3   S    
C161  N4    A    
C40   C104  S    
C85   C94   A    
C123  I1    S    
C98   C116  A    
C18   N10   A    
C39   C114  A    
C167  H19   S    
C55   C64   A    
C8    C144  A    
C107  C142  A    
C8    C166  A    
C30   H49   S    
N3    Ni6   S    
C135  C144  A    
C163  H32   S    
N25   N28   A    
C126  I3    S    
C33   H52   S    
C52   C87   A    
C5    H24   S    
N4    Ni5   S    
C32   N25   A    
C163  N6    A    
N5    N14   A    
C3    C151  A    
C135  C153  A    
C56   H58   S    
N7    N16   A    
C64   H65   S    
N12   N21   A    
C5    C153  A    
C1    H1    S    
C111  H16   S    
C53   C88   A    
C32   H51   S    
C16   H96   S    
C67   C76   A    
C41   C136  A    
N11   Ni1   S    
C63   H64   S    
