data_mof_unit_53071.cif
_audit_creation_date              2012-12-10T17:17:25-0500
_audit_creation_method            fapswitch 2.2
_symmetry_space_group_name_H-M    P1
_symmetry_Int_Tables_number       1
_space_group_crystal_system       triclinic
_cell_length_a                    10.223102
_cell_length_b                    10.623734
_cell_length_c                    12.665367
_cell_angle_alpha                 90.692668
_cell_angle_beta                  110.781189
_cell_angle_gamma                 95.082028
_cell_volume                      1279.60849042

loop_
_atom_site_label
_atom_site_type_symbol
_atom_type_description
_atom_site_fract_x
_atom_site_fract_y
_atom_site_fract_z
_atom_type_partial_charge
C1    C     C_R   0.052953 0.734102 0.495308 0.906385
C2    C     C_R   0.443958 0.591047 0.983952 0.051170
C3    C     C_R   0.369710 0.589589 0.867284 0.091124
C4    C     C_R   0.583873 0.559483 0.020821 0.089928
C5    C     C_R   0.653546 0.549944 0.942546 0.188919
C6    C     C_R   0.586963 0.581992 0.831589 -0.261645
C7    C     C_R   0.446533 0.604152 0.794865 -0.183130
C8    C     C_R   0.652576 0.529045 0.131669 -0.262865
C9    C     C_R   0.855156 0.479181 0.088398 -0.227094
C10   C     C_R   0.221615 0.575179 0.827670 -0.167237
C11   C     C_2   0.091166 0.870851 0.506261 0.005140
C12   C     C_R   0.138849 0.527332 0.711141 0.868678
C13   C     C_2   0.042982 0.936228 0.574366 -0.246029
C14   C     C_2   0.928126 0.130484 0.525092 -0.003284
C15   C     C_2   0.046011 0.073127 0.573546 -0.247231
C16   C     C_2   0.429814 0.521999 0.498848 -0.082483
C17   C     C_2   0.564006 0.509933 0.475085 -0.174351
C18   C     C_R   0.949284 0.265941 0.508386 0.920705
C19   C     C_R   0.863650 0.487321 0.287197 0.861009
C20   C     C_R   0.788136 0.508675 0.976491 -0.202993
C21   C     C_R   0.789247 0.494589 0.166738 -0.052584
C22   C     C_R   0.153518 0.606888 0.901678 -0.224295
C23   C     C_R   0.232011 0.641628 0.015054 0.238493
C24   C     C_R   0.375349 0.624891 0.057714 -0.250848
H1    H     H_    0.432317 0.597570 0.557079 0.123546
H2    H     H_    0.642151 0.586311 0.773133 0.131284
H3    H     H_    0.840981 0.499123 0.916710 0.136580
H4    H     H_    0.040394 0.608264 0.871026 0.156606
H5    H     H_    0.432884 0.646391 0.146669 0.129675
N1    N     N_2   0.313640 0.446500 0.454900 -0.037154
N2    N     N_2   0.686360 0.553430 0.545150 -0.191930
O1    O     O_R   0.936910 0.692950 0.509080 -0.622600
O2    O     O_R   0.138320 0.658600 0.480130 -0.608889
O3    O     O_R   0.002900 0.525670 0.675280 -0.615015
O4    O     O_R   0.204310 0.491320 0.646330 -0.608327
O5    O     O_R   0.861680 0.341400 0.519870 -0.586474
O6    O     O_R   0.063090 0.307050 0.490920 -0.620078
O7    O     O_R   0.795690 0.508680 0.353670 -0.617261
O8    O     O_R   0.997100 0.474330 0.324720 -0.614721
Zn1   Zn    Zn3+2 0.865520 0.522940 0.519330 0.921582
Zn2   Zn    Zn3+2 0.134480 0.477060 0.480670 0.929915
H6    H     H_    0.959386 0.447673 0.114328 0.153230
H7    H     H_    0.984570 0.888366 0.621738 0.171219
C25   C     C_3   0.783352 0.054956 0.484118 -0.391661
C26   C     C_3   0.659112 0.129575 0.422451 -0.877042
H8    H     H_    0.641423 0.197648 0.482047 0.276454
H9    H     H_    0.676989 0.180164 0.351760 0.252271
H10   H     H_    0.562168 0.063240 0.386732 0.243874
H11   H     H_    0.783307 0.976799 0.424898 0.225143
H12   H     H_    0.764841 0.011859 0.557748 0.214262
C27   C     C_3   0.168873 0.938990 0.437309 -0.422658
C28   C     C_3   0.223683 0.855175 0.366805 -0.869288
H13   H     H_    0.307875 0.801077 0.422279 0.271415
H14   H     H_    0.136293 0.789840 0.308756 0.270081
H15   H     H_    0.269612 0.915587 0.315228 0.245304
H16   H     H_    0.094926 0.998843 0.378106 0.223298
H17   H     H_    0.260256 0.000502 0.495529 0.217434
H18   H     H_    0.560951 0.461690 0.398374 0.163377
H19   H     H_    0.688894 0.602690 0.616259 0.152119
C29   C     C_3   0.308362 0.358109 0.362943 -0.212601
C30   C     C_3   0.193067 0.249886 0.336850 -0.807274
H20   H     H_    0.206280 0.198929 0.414860 0.257291
H21   H     H_    0.087155 0.281956 0.300078 0.278734
H22   H     H_    0.204343 0.182430 0.273605 0.206259
H23   H     H_    0.295770 0.410378 0.284895 0.162192
H24   H     H_    0.405587 0.308920 0.386748 0.163648
H25   H     H_    0.599690 0.529969 0.191700 0.154501
C31   C     C_3   0.163462 0.696615 0.089909 -0.438750
C32   C     C_3   0.125978 0.830130 0.056827 -0.856036
H26   H     H_    0.222692 0.893503 0.067484 0.262037
H27   H     H_    0.053062 0.829451 0.967593 0.258121
H28   H     H_    0.073120 0.867998 0.111552 0.251763
H29   H     H_    0.066952 0.636347 0.082513 0.214734
H30   H     H_    0.234383 0.699961 0.179871 0.208203
H31   H     H_    0.398772 0.636142 0.710987 0.161362
H32   H     H_    0.149228 0.126347 0.601406 0.174762

loop_
_geom_bond_atom_site_label_1
_geom_bond_atom_site_label_2
_ccdc_geom_bond_type
C25   H11   S    
C23   C31   S    
C32   H28   S    
C2    C4    A    
C23   C24   A    
C18   O5    A    
N1    Zn2   S    
C6    C7    A    
C27   H17   S    
C20   H3    S    
C30   H22   S    
C31   H30   S    
C25   H12   S    
C14   C18   S    
C9    C20   A    
C32   H27   S    
C1    C11   S    
C28   H15   S    
O5    Zn1   S    
C17   H18   S    
C4    C8    A    
O2    Zn2   S    
C13   C15   S    
C2    C3    A    
C29   H24   S    
O8    Zn2   S    
C3    C10   A    
C22   H4    S    
C26   H8    S    
C28   H13   S    
C12   O4    A    
O7    Zn1   S    
C11   C13   D    
C9    C21   A    
C9    H6    S    
C6    H2    S    
C10   C12   S    
O6    Zn2   S    
O3    Zn1   S    
C5    C6    A    
C19   O8    A    
C19   O7    A    
C18   O6    A    
C28   H14   S    
C29   H23   S    
C15   H32   S    
C3    C7    A    
C32   H26   S    
C26   H9    S    
C2    C24   A    
C30   H20   S    
O4    Zn2   S    
C25   C26   S    
C11   C27   S    
C1    O2    A    
C27   C28   S    
C24   H5    S    
C13   H7    S    
O1    Zn1   S    
N2    Zn1   S    
C8    H25   S    
C14   C25   S    
C27   H16   S    
C26   H10   S    
N2    H19   S    
C16   H1    S    
C5    C20   A    
C22   C23   A    
C4    C5    A    
C7    H31   S    
C8    C21   A    
C12   O3    A    
C19   C21   S    
C31   H29   S    
C14   C15   D    
C16   N1    D    
C31   C32   S    
C1    O1    A    
C10   C22   A    
C17   N2    D    
C16   C17   S    
C29   C30   S    
C30   H21   S    
N1    C29   S    
