data_mof_unit_66145.cif
_audit_creation_date              2012-12-10T16:59:25-0500
_audit_creation_method            fapswitch 2.2
_symmetry_space_group_name_H-M    P1
_symmetry_Int_Tables_number       1
_space_group_crystal_system       triclinic
_cell_length_a                    13.15673
_cell_length_b                    13.158621
_cell_length_c                    17.964615
_cell_angle_alpha                 110.360217
_cell_angle_beta                  72.706593
_cell_angle_gamma                 91.457567
_cell_volume                      2773.4104129

loop_
_atom_site_label
_atom_site_type_symbol
_atom_type_description
_atom_site_fract_x
_atom_site_fract_y
_atom_site_fract_z
_atom_type_partial_charge
C1    C     C_R   0.217151 0.543553 0.531544 0.534620
C2    C     C_R   0.571218 0.387157 0.903543 -0.135080
C3    C     C_R   0.619218 0.323868 0.933293 -0.130594
C4    C     C_R   0.781823 0.456451 0.468259 0.503508
C5    C     C_R   0.602938 0.352814 0.018296 0.049057
C6    C     C_R   0.535751 0.447511 0.075883 0.032163
C7    C     C_R   0.652981 0.286801 0.046238 -0.128169
C8    C     C_R   0.637125 0.313222 0.131007 -0.128584
C9    C     C_R   0.522468 0.473037 0.161456 -0.118745
C10   C     C_2   0.895677 0.441248 0.454770 -0.080238
C11   C     C_2   0.938035 0.498328 0.513861 -0.149205
C12   C     C_R   0.354834 0.682607 0.871588 -0.130157
C13   C     C_2   0.101529 0.557940 0.547739 -0.100218
C14   C     C_2   0.053955 0.488037 0.497259 -0.151184
C15   C     C_2   0.534955 0.894831 0.528232 -0.066955
C16   C     C_R   0.469374 0.218151 0.476427 0.512702
C17   C     C_2   0.461090 0.949606 0.514713 -0.014379
C18   C     C_2   0.448657 0.106329 0.471227 -0.114351
C19   C     C_2   0.480919 0.061794 0.518037 -0.192882
C20   C     C_R   0.528588 0.782319 0.524017 0.563976
C21   C     C_R   0.552196 0.432761 0.276927 0.507198
C22   C     C_R   0.448501 0.566333 0.723454 0.499339
C23   C     C_R   0.476535 0.528825 0.842043 -0.130763
C24   C     C_R   0.426023 0.593608 0.813775 0.019127
C25   C     C_R   0.572068 0.406225 0.188206 0.039143
C26   C     C_R   0.334879 0.706610 0.956715 -0.133791
C27   C     C_2   0.362970 0.902777 0.496000 0.244972
C28   C     C_R   0.456040 0.549684 0.927814 0.029158
C29   C     C_R   0.384947 0.641324 0.985200 0.050315
C30   C     C_R   0.504600 0.483024 0.958059 0.033365
C31   C     C_R   0.484685 0.512463 0.045815 0.033871
C32   C     C_R   0.413516 0.605017 0.100470 -0.132133
C33   C     C_R   0.364403 0.667422 0.070532 -0.129032
H1    H     H_    0.310037 0.737289 0.114810 0.112715
H2    H     H_    0.474172 0.543812 0.209379 0.106568
H3    H     H_    0.675230 0.261169 0.152057 0.107570
H4    H     H_    0.669538 0.251113 0.889081 0.108510
H5    H     H_    0.280098 0.776398 0.000439 0.110195
H6    H     H_    0.314935 0.733908 0.851089 0.138169
H7    H     H_    0.532664 0.463354 0.795324 0.129065
H8    H     H_    0.392414 0.631444 0.167326 0.115262
H9    H     H_    0.587212 0.356670 0.836986 0.105532
H10   H     H_    0.296511 0.956929 0.504105 0.098896
H11   H     H_    0.703911 0.214300 0.002440 0.109338
H12   H     H_    0.101269 0.422245 0.442054 0.161063
H13   H     H_    0.887370 0.554743 0.573210 0.131978
H14   H     H_    0.054787 0.625082 0.602034 0.108366
H15   H     H_    0.946239 0.389819 0.393502 0.094963
H16   H     H_    0.527675 0.107223 0.557473 0.155959
H17   H     H_    0.404992 0.060879 0.429372 0.106608
H18   H     H_    0.607796 0.931621 0.536147 0.066554
O1    O     O_3   0.500000 0.500000 0.500000 -0.443969
O2    O     O_R   0.474570 0.394560 0.317400 -0.536656
O3    O     O_R   0.403380 0.624270 0.695980 -0.554600
O4    O     O_R   0.609140 0.497770 0.314440 -0.531474
O5    O     O_R   0.512900 0.483390 0.672170 -0.549708
O6    O     O_2   0.355834 0.804804 0.469685 -0.499877
O7    O     O_R   0.526170 0.271940 0.521690 -0.538976
O8    O     O_R   0.451880 0.756290 0.574830 -0.506936
O9    O     O_R   0.271960 0.460780 0.472050 -0.539224
O10   O     O_R   0.749980 0.510990 0.431420 -0.540544
O11   O     O_R   0.262540 0.611050 0.579000 -0.520103
O12   O     O_R   0.715520 0.417170 0.517520 -0.534402
O13   O     O_R   0.426070 0.262540 0.438550 -0.543679
O14   O     O_R   0.595870 0.709230 0.464930 -0.529266
Zn1   Zn    Zn3+2 0.562560 0.419520 0.551940 0.926250
Zn2   Zn    Zn3+2 0.419550 0.406100 0.433160 0.952812
Zn3   Zn    Zn3+2 0.611810 0.553570 0.428930 0.964106
Zn4   Zn    Zn3+2 0.406080 0.620810 0.585960 0.972882

loop_
_geom_bond_atom_site_label_1
_geom_bond_atom_site_label_2
_ccdc_geom_bond_type
C22   O5    A    
C23   C24   A    
C23   C28   A    
C27   O6    D    
C15   H18   S    
C19   H16   S    
C31   C32   A    
O1    Zn3   S    
C2    C30   A    
C32   H8    S    
O14   Zn3   S    
C1    O11   A    
C6    C9    A    
C28   C30   A    
C33   H1    S    
O12   Zn1   S    
C9    C25   A    
C7    C8    A    
C22   O3    A    
C16   O7    A    
C13   C14   D    
C32   C33   A    
C20   O8    A    
C21   O2    A    
C8    C25   A    
O3    Zn4   S    
O10   Zn3   S    
C3    H4    S    
C5    C6    A    
O1    Zn2   S    
C21   C25   S    
O8    Zn4   S    
O5    Zn1   S    
O11   Zn4   S    
C4    O12   A    
C28   C29   A    
C17   C19   S    
C2    H9    S    
C2    C3    A    
C14   H12   S    
C5    C7    A    
C10   H15   S    
C30   C31   A    
O2    Zn2   S    
C11   C14   S    
C22   C24   S    
C1    C13   S    
C10   C11   D    
C4    C10   S    
C23   H7    S    
C17   C27   S    
O13   Zn2   S    
C29   C33   A    
C20   O14   A    
O1    Zn1   S    
C18   H17   S    
C26   C29   A    
C16   C18   S    
C18   C19   D    
C8    H3    S    
C1    O9    A    
C15   C17   D    
C27   H10   S    
C12   C24   A    
C26   H5    S    
C21   O4    A    
C6    C31   A    
O1    Zn4   S    
C16   O13   A    
C3    C5    A    
C7    H11   S    
O4    Zn3   S    
C13   H14   S    
C4    O10   A    
O7    Zn1   S    
C12   H6    S    
C9    H2    S    
O9    Zn2   S    
C12   C26   A    
C15   C20   S    
C11   H13   S    
