data_mof_unit_53799.cif
_audit_creation_date              2012-12-10T17:15:53-0500
_audit_creation_method            fapswitch 2.2
_symmetry_space_group_name_H-M    P1
_symmetry_Int_Tables_number       1
_space_group_crystal_system       triclinic
_cell_length_a                    10.334557
_cell_length_b                    10.618089
_cell_length_c                    10.40581
_cell_angle_alpha                 92.483871
_cell_angle_beta                  94.422201
_cell_angle_gamma                 81.066736
_cell_volume                      1124.0838224

loop_
_atom_site_label
_atom_site_type_symbol
_atom_type_description
_atom_site_fract_x
_atom_site_fract_y
_atom_site_fract_z
_atom_type_partial_charge
C1    C     C_R   0.446070 0.518169 0.265058 0.972421
C2    C     C_R   0.446711 0.065673 0.376773 -0.043186
C3    C     C_R   0.502381 0.127646 0.485604 -0.178586
C4    C     C_R   0.559373 0.063053 0.594011 -0.208501
C5    C     C_R   0.559819 0.934596 0.600765 0.456793
C6    C     C_R   0.495603 0.872440 0.498052 -0.171064
C7    C     C_2   0.421040 0.555960 0.128326 -0.094972
C8    C     C_2   0.510161 0.617013 0.073925 -0.033513
C9    C     C_2   0.580534 0.518510 0.872207 -0.412500
C10   C     C_2   0.508943 0.616657 0.932481 0.477422
C11   C     C_2   0.074621 0.481968 0.492220 0.321920
C12   C     C_R   0.499623 0.260903 0.493965 0.935509
C13   C     C_2   0.930673 0.502958 0.516773 0.134145
C14   C     C_R   0.554020 0.497096 0.734721 0.951166
C15   C     C_R   0.499375 0.739194 0.501360 0.833187
C16   C     C_R   0.404919 0.125633 0.256928 0.361216
C17   C     C_R   0.330872 0.063899 0.161043 0.203257
C18   C     C_R   0.307034 0.940691 0.180764 -0.254035
C19   C     C_R   0.359847 0.877270 0.290977 -0.211214
C20   C     C_R   0.432986 0.937646 0.388950 0.004987
H1    H     H_    0.603402 0.113494 0.674862 0.161709
H2    H     H_    0.899966 0.558175 0.602280 0.133127
H3    H     H_    0.252170 0.890898 0.107515 0.164045
H4    H     H_    0.342524 0.780328 0.297664 0.170347
H5    H     H_    0.651101 0.449831 0.925732 0.114604
N1    N     N_2   0.157290 0.551390 0.551110 0.013353
N2    N     N_2   0.842740 0.448550 0.448960 0.017998
O1    O     O_R   0.568950 0.489660 0.307530 -0.637555
O2    O     O_R   0.348880 0.522640 0.340350 -0.628877
O3    O     O_R   0.610060 0.300270 0.483590 -0.621251
O4    O     O_R   0.389990 0.333260 0.516410 -0.624615
O5    O     O_R   0.651120 0.477360 0.659650 -0.625295
O6    O     O_R   0.431050 0.510340 0.692470 -0.563697
O7    O     O_R   0.610010 0.666740 0.483590 -0.622741
O8    O     O_R   0.389940 0.699730 0.516410 -0.598013
Zn1   Zn    Zn3+2 0.646940 0.477980 0.478090 0.949675
Zn2   Zn    Zn3+2 0.353060 0.522020 0.521910 0.971691
C21   C     C_3   0.302457 0.522654 0.043113 -0.378882
C22   C     C_3   0.193604 0.478380 0.111469 -0.856279
H6    H     H_    0.231957 0.388434 0.159931 0.292073
H7    H     H_    0.151924 0.553031 0.181218 0.272997
H8    H     H_    0.113354 0.459551 0.039370 0.254140
H9    H     H_    0.256093 0.608640 0.990065 0.234691
H10   H     H_    0.337311 0.447444 0.970709 0.222758
C23   C     C_3   0.125570 0.368333 0.405664 -0.369129
C24   C     C_3   0.120462 0.241227 0.467283 -0.810456
H11   H     H_    0.177603 0.235629 0.562245 0.261155
H12   H     H_    0.017635 0.229708 0.481193 0.269463
H13   H     H_    0.162820 0.161361 0.403515 0.255195
H14   H     H_    0.076450 0.370221 0.308252 0.235649
H15   H     H_    0.223109 0.371107 0.377677 0.259940
O9    O     O_3   0.865636 0.413089 0.326892 -0.737852
H16   H     H_    0.788248 0.374831 0.292671 0.374633
O10   O     O_3   0.106909 0.648350 0.628123 -0.717875
H17   H     H_    0.183439 0.688465 0.662085 0.390562
O11   O     O_3   0.443201 0.238575 0.227323 -0.828088
H18   H     H_    0.538496 0.231197 0.252193 0.333444
C25   C     C_3   0.283142 0.123922 0.033380 -0.393809
C26   C     C_3   0.133491 0.155344 0.020415 -0.862519
H19   H     H_    0.088641 0.066631 0.016171 0.264995
H20   H     H_    0.097299 0.216373 0.103487 0.267635
H21   H     H_    0.101896 0.207256 0.930214 0.255530
H22   H     H_    0.324674 0.212516 0.021151 0.251225
H23   H     H_    0.316723 0.056873 0.953407 0.206536
O12   O     O_3   0.620492 0.875744 0.710511 -0.757473
H24   H     H_    0.606913 0.785682 0.710202 0.350901
O13   O     O_3   0.427610 0.709559 0.862787 -0.770585
H25   H     H_    0.384409 0.772948 0.924874 0.327845
C27   C     C_3   0.620000 0.674959 0.149678 -0.379498
C28   C     C_3   0.653075 0.793386 0.088306 -0.813193
H26   H     H_    0.696556 0.767738 0.994599 0.281531
H27   H     H_    0.563661 0.865416 0.073105 0.265327
H28   H     H_    0.725862 0.836457 0.153245 0.250421
H29   H     H_    0.590953 0.705968 0.247327 0.232452
H30   H     H_    0.709789 0.602363 0.158009 0.245584

loop_
_geom_bond_atom_site_label_1
_geom_bond_atom_site_label_2
_ccdc_geom_bond_type
C1    O1    A    
C28   H27   S    
C9    C14   S    
C16   O11   S    
N1    Zn2   S    
C21   H10   S    
C28   H26   S    
N2    Zn1   S    
C2    C16   A    
C9    C10   D    
O10   H17   S    
C15   O7    A    
C19   C20   A    
O3    Zn1   S    
C17   C25   S    
C6    C20   A    
C14   O6    A    
C1    O2    A    
C19   H4    S    
C6    C15   S    
C9    H5    S    
C21   H9    S    
C22   H7    S    
C10   O13   S    
C23   C24   S    
O11   H18   S    
C4    H1    S    
C11   C13   S    
C24   H13   S    
O1    Zn1   S    
C8    C27   S    
C27   C28   S    
C23   H14   S    
C28   H28   S    
O13   H25   S    
C4    C5    A    
O5    Zn1   S    
C15   O8    A    
O8    Zn2   S    
C7    C21   S    
C13   H2    S    
C17   C18   A    
C22   H8    S    
O7    Zn1   S    
C12   O4    A    
C25   H23   S    
C5    C6    A    
C24   H12   S    
C11   C23   S    
C7    C8    D    
C23   H15   S    
C27   H30   S    
C2    C20   A    
C18   H3    S    
C22   H6    S    
N1    O10   S    
C26   H19   S    
C21   C22   S    
O9    H16   S    
N2    O9    S    
O6    Zn2   S    
C5    O12   S    
O12   H24   S    
C24   H11   S    
C26   H20   S    
O2    Zn2   S    
C25   H22   S    
C27   H29   S    
C18   C19   A    
C26   H21   S    
C2    C3    A    
C3    C12   S    
C11   N1    D    
C12   O3    A    
C25   C26   S    
C1    C7    S    
C8    C10   S    
C13   N2    D    
C3    C4    A    
O4    Zn2   S    
C14   O5    A    
C16   C17   A    
