data_mof_unit_24519.cif
_audit_creation_date              2012-12-10T16:52:37-0500
_audit_creation_method            fapswitch 2.2
_symmetry_space_group_name_H-M    P1
_symmetry_Int_Tables_number       1
_space_group_crystal_system       triclinic
_cell_length_a                    7.839872
_cell_length_b                    8.560099
_cell_length_c                    13.693524
_cell_angle_alpha                 93.36472
_cell_angle_beta                  93.079729
_cell_angle_gamma                 94.201148
_cell_volume                      913.369090539

loop_
_atom_site_label
_atom_site_type_symbol
_atom_type_description
_atom_site_fract_x
_atom_site_fract_y
_atom_site_fract_z
_atom_type_partial_charge
C1    C     C_R   0.045219 0.794702 0.497793 0.971290
C2    C     C_R   0.933910 0.475079 0.317209 0.860651
C3    C     C_R   0.098202 0.556145 0.787184 -0.182460
C4    C     C_R   0.896272 0.444113 0.209989 -0.182814
C5    C     C_R   0.108657 0.743611 0.928099 -0.253453
C6    C     C_R   0.966329 0.370590 0.042804 -0.152870
C7    C     C_R   0.034263 0.689151 0.836352 -0.002443
C8    C     C_R   0.012200 0.381498 0.143951 -0.035351
C9    C     C_R   0.227297 0.477001 0.833261 -0.113811
C10   C     C_R   0.731997 0.474679 0.172785 -0.090730
C11   C     C_R   0.325066 0.555067 0.913031 0.097781
C12   C     C_R   0.954917 0.205353 0.502718 0.953593
C13   C     C_R   0.704267 0.494420 0.072911 0.037017
C14   C     C_R   0.254962 0.679843 0.965938 0.127904
C15   C     C_R   0.812889 0.425158 0.007194 0.098145
C16   C     C_R   0.491250 0.515339 0.941304 0.136039
C17   C     C_R   0.557763 0.561799 0.036582 0.056462
C18   C     C_2   0.580008 0.426643 0.227703 0.529910
C19   C     C_2   0.241163 0.307081 0.804869 0.327914
C20   C     C_2   0.166737 0.304656 0.177428 0.391181
C21   C     C_2   0.896185 0.780055 0.795591 0.411086
C22   C     C_R   0.481624 0.679426 0.091596 -0.252479
C23   C     C_R   0.597724 0.441049 0.875809 -0.050422
C24   C     C_R   0.334438 0.741574 0.054944 -0.150100
C25   C     C_R   0.759708 0.401325 0.907988 -0.186527
C26   C     C_2   0.068825 0.958503 0.496818 -0.388415
C27   C     C_2   0.931551 0.041662 0.504593 -0.368420
C28   C     C_R   0.063918 0.519456 0.682194 0.850091
H1    H     H_    0.281739 0.836284 0.096700 0.173828
H2    H     H_    0.513174 0.629295 0.570283 0.216904
H3    H     H_    0.476741 0.502086 0.237984 0.039871
H4    H     H_    0.187649 0.255641 0.734581 0.082093
H5    H     H_    0.189754 0.279257 0.253209 0.112252
H6    H     H_    0.906339 0.906968 0.807750 0.064111
H7    H     H_    0.839322 0.345067 0.856335 0.139540
H8    H     H_    0.057783 0.841755 0.967736 0.153879
H9    H     H_    0.047372 0.314884 0.991714 0.202109
H10   H     H_    0.540610 0.728781 0.161030 0.150528
H11   H     H_    0.559408 0.418913 0.798854 0.162800
H12   H     H_    0.198136 0.010025 0.489432 0.186597
H13   H     H_    0.802268 0.990158 0.512087 0.188891
H14   H     H_    0.486578 0.368287 0.431845 0.224594
N1    N     N_2   0.440860 0.456490 0.474790 -0.186804
N2    N     N_2   0.559140 0.543510 0.525210 -0.163294
O1    O     O_R   0.891570 0.738930 0.506190 -0.599721
O2    O     O_2   0.302905 0.220007 0.862423 -0.546380
O3    O     O_2   0.268275 0.261333 0.118804 -0.541106
O4    O     O_2   0.765126 0.715619 0.755133 -0.568502
O5    O     O_R   0.108430 0.261070 0.493810 -0.620104
O6    O     O_R   0.174650 0.711050 0.490030 -0.622316
O7    O     O_R   0.825350 0.288950 0.509970 -0.614627
O8    O     O_R   0.909850 0.521900 0.644940 -0.555200
O9    O     O_R   0.090150 0.478100 0.355060 -0.639361
O10   O     O_R   0.192930 0.494020 0.628780 -0.626327
O11   O     O_R   0.807070 0.505980 0.371220 -0.601059
O12   O     O_2   0.568869 0.297103 0.260822 -0.579498
Zn1   Zn    Zn3+2 0.810990 0.518620 0.510790 0.989362
Zn2   Zn    Zn3+2 0.189010 0.481380 0.489210 0.938171

loop_
_geom_bond_atom_site_label_1
_geom_bond_atom_site_label_2
_ccdc_geom_bond_type
C2    C4    S    
O9    Zn2   S    
C3    C9    A    
C13   C17   A    
C9    C11   A    
C1    O6    A    
C27   H13   S    
C3    C7    A    
C17   C22   A    
C21   H6    S    
C18   O12   D    
N2    Zn1   S    
C4    C8    A    
C21   O4    D    
C1    O1    A    
C12   O7    A    
C13   C15   A    
C12   O5    A    
C5    C14   A    
C6    H9    S    
C28   O8    A    
C26   H12   S    
C26   C27   D    
C8    C20   S    
C25   H7    S    
C23   H11   S    
C20   H5    S    
C3    C28   S    
C10   C18   S    
C16   C23   A    
H2    N2    S    
C2    O11   A    
O11   Zn1   S    
N1    N2    D    
O10   Zn2   S    
C1    C26   S    
O1    Zn1   S    
C11   C14   A    
C22   C24   A    
C19   O2    D    
C20   O3    D    
C15   C25   A    
H14   N1    S    
C19   H4    S    
C12   C27   S    
C4    C10   A    
O8    Zn1   S    
C22   H10   S    
C5    H8    S    
O7    Zn1   S    
C23   C25   A    
C11   C16   A    
C14   C24   A    
C5    C7    A    
C28   O10   A    
C24   H1    S    
C6    C8    A    
C18   H3    S    
N1    Zn2   S    
C6    C15   A    
C7    C21   S    
C9    C19   S    
O5    Zn2   S    
C2    O9    A    
C16   C17   A    
C10   C13   A    
O6    Zn2   S    
