data_mof_unit_62305.cif
_audit_creation_date              2013-03-05T15:39:55-0500
_audit_creation_method            fapswitch 2.2
_symmetry_space_group_name_H-M    P1
_symmetry_Int_Tables_number       1
_space_group_crystal_system       triclinic
_cell_length_a                    18.727179
_cell_length_b                    18.937374
_cell_length_c                    18.71083
_cell_angle_alpha                 109.431299
_cell_angle_beta                  109.121811
_cell_angle_gamma                 109.759233
_cell_volume                      5114.40427522

loop_
_atom_site_label
_atom_site_type_symbol
_atom_site_description
_atom_site_fract_x
_atom_site_fract_y
_atom_site_fract_z
_atom_type_partial_charge
O1    O     O_R   0.409560 0.858470 0.948950 -0.631896
O2    O     O_R   0.590440 0.141530 0.051050 -0.631909
O3    O     O_R   0.409540 0.960610 0.051080 -0.583247
O4    O     O_R   0.590460 0.039390 0.948920 -0.583233
C1    C     C_R   0.384719 0.881481 0.004500 0.980463
C2    C     C_R   0.615307 0.118523 0.995523 0.980396
O5    O     O_R   0.590480 0.948940 0.039400 -0.563737
O6    O     O_R   0.409520 0.051060 0.960600 -0.563737
O7    O     O_R   0.590470 0.051080 0.141520 -0.637117
O8    O     O_R   0.409530 0.948920 0.858480 -0.637099
C3    C     C_R   0.624414 0.005962 0.119147 0.984326
C4    C     C_R   0.375591 0.994043 0.880852 0.984406
Zn1   Zn    Zn3+2 0.500010 0.931800 0.931810 1.063233
Zn2   Zn    Zn3+2 0.499990 0.068200 0.068190 1.063188
C5    C     C_2   0.831615 0.013191 0.249993 -0.336746
C6    C     C_2   0.168368 0.986769 0.749985 -0.336709
C7    C     C_2   0.811158 0.980273 0.298771 0.091586
C8    C     C_2   0.188836 0.019742 0.701246 0.091555
H1    H     H_    0.899148 0.048131 0.266038 0.186380
H2    H     H_    0.100828 0.951776 0.733902 0.186397
C9    C     C_2   0.764379 0.007435 0.176570 0.373969
C10   C     C_2   0.235602 0.992521 0.823407 0.373936
C11   C     C_2   0.701253 0.020115 0.187405 -0.381425
C12   C     C_2   0.298763 0.979902 0.812592 -0.381421
H3    H     H_    0.706956 0.043655 0.251682 0.156356
H4    H     H_    0.293094 0.956416 0.748328 0.156346
C13   C     C_2   0.266080 0.678757 0.007578 0.306279
C14   C     C_2   0.733888 0.321209 0.992352 0.306314
C15   C     C_2   0.180169 0.655176 0.967443 -0.206343
C16   C     C_2   0.819827 0.344904 0.032602 -0.206302
C17   C     C_2   0.328878 0.743674 0.000341 -0.197655
C18   C     C_2   0.671092 0.256282 0.999582 -0.197770
C19   C     C_2   0.329613 0.818373 0.017690 -0.373134
C20   C     C_2   0.670464 0.181645 0.982381 -0.373152
H5    H     H_    0.374809 0.730858 0.982747 0.203404
H6    H     H_    0.625057 0.269025 0.017028 0.203446
H7    H     H_    0.288907 0.833512 0.043094 0.182994
H8    H     H_    0.711268 0.166553 0.957105 0.183007
O9    O     O_R   0.051050 0.141530 0.590440 -0.610767
O10   O     O_R   0.948950 0.858470 0.409560 -0.610771
O11   O     O_R   0.948920 0.039390 0.590460 -0.611804
O12   O     O_R   0.051080 0.960610 0.409540 -0.611815
C21   C     C_R   0.996957 0.118571 0.616697 0.934169
C22   C     C_R   0.003044 0.881429 0.383303 0.934153
O13   O     O_R   0.960590 0.051060 0.409530 -0.645082
O14   O     O_R   0.039410 0.948940 0.590470 -0.645078
O15   O     O_R   0.858460 0.948920 0.409550 -0.558596
O16   O     O_R   0.141540 0.051080 0.590450 -0.558589
C23   C     C_R   0.880054 0.996420 0.377455 0.859099
C24   C     C_R   0.119946 0.003584 0.622549 0.859070
Zn3   Zn    Zn3+2 0.068190 0.068200 0.499990 1.045066
Zn4   Zn    Zn3+2 0.931810 0.931800 0.500010 1.045069
O17   O     O_R   0.051060 0.590470 0.141520 -0.630383
O18   O     O_R   0.948940 0.409530 0.858480 -0.630302
O19   O     O_R   0.948910 0.590450 0.039380 -0.588299
O20   O     O_R   0.051090 0.409550 0.960620 -0.588236
C25   C     C_R   0.997567 0.616850 0.119046 0.921142
C26   C     C_R   0.002433 0.383150 0.880954 0.921251
O21   O     O_R   0.141530 0.590470 0.051060 -0.564428
O22   O     O_R   0.858470 0.409530 0.948940 -0.564419
O23   O     O_R   0.039370 0.590450 0.948920 -0.635985
O24   O     O_R   0.960630 0.409550 0.051080 -0.636038
C27   C     C_R   0.118628 0.610785 0.991535 0.922953
C28   C     C_R   0.881374 0.389241 0.008484 0.922955
Zn5   Zn    Zn3+2 0.068210 0.500010 0.068200 1.051098
Zn6   Zn    Zn3+2 0.931790 0.499990 0.931800 1.051190
C29   C     C_2   0.992670 0.318437 0.739665 -0.159533
C30   C     C_2   0.007322 0.681558 0.260331 -0.159619
C31   C     C_2   0.010838 0.323734 0.817162 -0.289521
C32   C     C_2   0.989162 0.676266 0.182838 -0.289553
H9    H     H_    0.973404 0.361254 0.722834 0.161637
H10   H     H_    0.026581 0.638735 0.277159 0.161630
H11   H     H_    0.039752 0.288051 0.837723 0.174654
H12   H     H_    0.960254 0.711954 0.162279 0.174651
C33   C     C_2   0.003506 0.256980 0.678239 -0.134556
C34   C     C_2   0.996487 0.743016 0.321758 -0.134569
C35   C     C_2   0.986982 0.181324 0.675295 -0.303063
C36   C     C_2   0.013019 0.818675 0.324706 -0.303073
H13   H     H_    0.022143 0.272551 0.633889 0.169359
H14   H     H_    0.977844 0.727443 0.366104 0.169361
H15   H     H_    0.958638 0.161626 0.712370 0.165860
H16   H     H_    0.041369 0.838374 0.287636 0.165861
N1    N     N_R   0.721976 0.920222 0.269674 0.217606
O25   O     O_R   0.671694 0.855973 0.189774 -0.328326
O26   O     O_R   0.693973 0.924453 0.325259 -0.345016
N2    N     N_R   0.278017 0.079853 0.730396 0.217610
O27   O     O_R   0.306063 0.075693 0.674847 -0.344948
O28   O     O_R   0.328255 0.144077 0.810313 -0.328359
N3    N     N_R   0.771761 0.994685 0.099588 0.232409
O29   O     O_R   0.812413 0.954619 0.078944 -0.338771
O30   O     O_R   0.752539 0.035747 0.059610 -0.402563
N4    N     N_R   0.228173 0.005184 0.900356 0.232390
O31   O     O_R   0.187425 0.045146 0.920967 -0.338788
O32   O     O_R   0.247446 0.964130 0.940323 -0.402627
N5    N     N_R   0.298659 0.642296 0.057659 0.227495
O33   O     O_R   0.375962 0.690410 0.126614 -0.315787
O34   O     O_R   0.261115 0.558616 0.023912 -0.360034
N6    N     N_R   0.701272 0.357549 0.942138 0.227516
O35   O     O_R   0.624016 0.309324 0.873112 -0.315831
O36   O     O_R   0.738703 0.441216 0.975807 -0.359936
C37   C     C_3   0.139835 0.664969 0.887875 -0.415036
C38   C     C_3   0.087261 0.577189 0.803128 -0.338228
C39   C     C_3   0.047079 0.585888 0.723430 -0.844410
H17   H     H_    0.002133 0.610984 0.728227 0.271764
H18   H     H_    0.099061 0.630507 0.718137 0.265141
H19   H     H_    0.009397 0.521472 0.663486 0.249094
H20   H     H_    0.131087 0.551050 0.796256 0.231059
H21   H     H_    0.033809 0.529774 0.804426 0.238629
H22   H     H_    0.097029 0.692343 0.895246 0.234528
H23   H     H_    0.188443 0.709517 0.879700 0.229744
C40   C     C_3   0.860142 0.335229 0.112259 -0.415121
C41   C     C_3   0.912894 0.423106 0.196927 -0.338252
C42   C     C_3   0.952648 0.414419 0.276746 -0.844406
H24   H     H_    0.900394 0.370236 0.282120 0.265064
H25   H     H_    0.997243 0.388792 0.272039 0.271750
H26   H     H_    0.990627 0.478941 0.336610 0.249093
H27   H     H_    0.966603 0.470241 0.195654 0.238769
H28   H     H_    0.869279 0.449602 0.203634 0.231023
H29   H     H_    0.811489 0.290871 0.120551 0.229882
H30   H     H_    0.902826 0.307686 0.104895 0.234373

loop_
_geom_bond_atom_site_label_1
_geom_bond_atom_site_label_2
_geom_bond_distance
_ccdc_geom_bond_type
O9    Zn3   1.997308 S    
C15   C27   1.474976 S    
C37   C38   1.537476 S    
C16   C28   1.475016 S    
C13   C15   1.360648 D    
C13   N5    1.438006 S    
N5    O33   1.301105 A    
O15   C23   1.267226 A    
C9    N3    1.440053 S    
O5    C3    1.280271 A    
C8    N2    1.444729 S    
C21   C35   1.437573 S    
O1    C1    1.280280 A    
C18   H6    1.086580 S    
C34   C36   1.337186 D    
C41   H27   1.109857 S    
N2    O28   1.301888 A    
O13   Zn3   1.997082 S    
C37   H22   1.111846 S    
O20   Zn5   2.000187 S    
O14   Zn4   1.997082 S    
C40   H29   1.105317 S    
C3    C11   1.442593 S    
O4    Zn1   2.000056 S    
O23   C27   1.273188 A    
O24   C28   1.273248 A    
O23   Zn6   1.993658 S    
O16   Zn3   1.999955 S    
C40   C41   1.537550 S    
C1    C19   1.443389 S    
C32   H12   1.087082 S    
O6    Zn2   1.996819 S    
C17   C19   1.336054 D    
C38   H21   1.109753 S    
C35   H15   1.087029 S    
C25   C32   1.436925 S    
N3    O30   1.301394 A    
O17   Zn5   2.004204 S    
O11   Zn4   2.006789 S    
C29   H9    1.086323 S    
C30   H10   1.086324 S    
O12   Zn3   2.006786 S    
C42   H26   1.110541 S    
O16   C24   1.267239 A    
O22   Zn6   1.996611 S    
O11   C21   1.267886 A    
O2    C2    1.280282 A    
O12   C22   1.267888 A    
C41   C42   1.526307 S    
O10   C22   1.275535 A    
C9    C11   1.346407 D    
C13   C17   1.466369 S    
C14   C18   1.466401 S    
O4    C2    1.271162 A    
C7    C23   1.454276 S    
O17   C25   1.277537 A    
N2    O27   1.301341 A    
O9    C21   1.275535 A    
C37   H23   1.105250 S    
O10   Zn4   1.997306 S    
C19   H7    1.088005 S    
C2    C20   1.443411 S    
C40   H30   1.111860 S    
C7    N1    1.444706 S    
C18   C20   1.336076 D    
C5    H1    1.086591 S    
O7    Zn2   2.000760 S    
C33   C35   1.337182 D    
C36   H16   1.087028 S    
N1    O25   1.301870 A    
O13   C23   1.282261 A    
C6    H2    1.086608 S    
N4    O32   1.301408 A    
C15   C37   1.537228 S    
C38   H20   1.112058 S    
C39   H18   1.110907 S    
C31   H11   1.087082 S    
O7    C3    1.270013 A    
O3    Zn2   2.000056 S    
O8    C4    1.270003 A    
C30   C32   1.336153 D    
N1    O26   1.301319 A    
N6    O36   1.301647 A    
O19   C25   1.268249 A    
C10   C12   1.346425 D    
C29   C33   1.462597 S    
O19   Zn6   2.000188 S    
C8    C24   1.454293 S    
C42   H24   1.111148 S    
O18   C26   1.277538 A    
C14   N6    1.438009 S    
C5    C7    1.347025 D    
O14   C24   1.282257 A    
C6    C10   1.469341 S    
O24   Zn5   1.993658 S    
C20   H8    1.088006 S    
C34   H14   1.086432 S    
C12   H4    1.087911 S    
O3    C1    1.271149 A    
O8    Zn1   2.000759 S    
N5    O34   1.301642 A    
C26   C31   1.436925 S    
O15   Zn4   1.999955 S    
O18   Zn6   2.004200 S    
C30   C34   1.462597 S    
C4    C12   1.442578 S    
O21   C27   1.286900 A    
C16   C40   1.537216 S    
O22   C28   1.286861 A    
C22   C36   1.437578 S    
O21   Zn5   1.996612 S    
C41   H28   1.112209 S    
C5    C9    1.469337 S    
C14   C16   1.360681 D    
N4    O31   1.301096 A    
O20   C26   1.268249 A    
C39   H19   1.110468 S    
C17   H5    1.086570 S    
C11   H3    1.087896 S    
C38   C39   1.526176 S    
O2    Zn2   1.990543 S    
O5    Zn1   1.996817 S    
O1    Zn1   1.990542 S    
C6    C8    1.347045 D    
N6    O35   1.301114 A    
C39   H17   1.110840 S    
C10   N4    1.440092 S    
C29   C31   1.336154 D    
N3    O29   1.301037 A    
C33   H13   1.086433 S    
O6    C4    1.280271 A    
C42   H25   1.111086 S    
