data_mof_unit_22135.cif
_audit_creation_date              2012-12-10T18:36:58-0500
_audit_creation_method            fapswitch 2.2
_symmetry_space_group_name_H-M    P1
_symmetry_Int_Tables_number       1
_space_group_crystal_system       triclinic
_cell_length_a                    14.988988
_cell_length_b                    15.470712
_cell_length_c                    23.424136
_cell_angle_alpha                 91.496414
_cell_angle_beta                  104.705377
_cell_angle_gamma                 80.845114
_cell_volume                      5186.40037069

loop_
_atom_site_label
_atom_site_type_symbol
_atom_type_description
_atom_site_fract_x
_atom_site_fract_y
_atom_site_fract_z
_atom_type_partial_charge
C1    C     C_R   0.440598 0.662316 0.489876 0.886410
C2    C     C_R   0.559009 0.337255 0.507857 0.889601
C3    C     C_R   0.582584 0.533458 0.774146 0.128020
C4    C     C_R   0.540117 0.577263 0.249318 0.159961
C5    C     C_R   0.580334 0.529445 0.714439 -0.132167
C6    C     C_R   0.537702 0.572205 0.308271 -0.275347
C7    C     C_R   0.504358 0.501956 0.673577 -0.089727
C8    C     C_R   0.496026 0.506954 0.327134 -0.057380
C9    C     C_R   0.430927 0.477247 0.693200 -0.237425
C10   C     C_R   0.456959 0.446569 0.286835 -0.124816
C11   C     C_R   0.433403 0.480145 0.752844 -0.117475
C12   C     C_R   0.458118 0.451993 0.228011 -0.157125
C13   C     C_R   0.508775 0.508136 0.793300 0.282820
C14   C     C_R   0.499913 0.516822 0.209182 0.315740
C15   C     C_R   0.401608 0.755223 0.477133 -0.074693
C16   C     C_R   0.593844 0.243019 0.504592 -0.048950
C17   C     C_R   0.280076 0.881262 0.469859 -0.245927
C18   C     C_R   0.705641 0.120931 0.485726 -0.235159
C19   C     C_R   0.310038 0.791324 0.479259 0.109006
C20   C     C_R   0.684713 0.209207 0.499831 0.109225
C21   C     C_R   0.459072 0.808867 0.462322 -0.245946
C22   C     C_R   0.528072 0.186593 0.498424 -0.288871
C23   C     C_R   0.501360 0.500181 0.610690 0.891839
C24   C     C_R   0.498752 0.500598 0.389481 0.888772
C25   C     C_R   0.433708 0.900025 0.458656 0.090381
C26   C     C_R   0.545055 0.100954 0.478879 0.086336
C27   C     C_R   0.342134 0.935911 0.462068 0.145778
C28   C     C_R   0.636243 0.067275 0.474291 0.148538
C29   C     C_R   0.499320 0.956505 0.457373 0.079468
C30   C     C_R   0.474305 0.047276 0.466047 0.067916
C31   C     C_R   0.379468 0.081337 0.461979 -0.214076
C32   C     C_R   0.590341 0.925400 0.450932 -0.153270
C33   C     C_R   0.314428 0.026188 0.459790 -0.196771
C34   C     C_R   0.657164 0.980370 0.458682 -0.199147
C35   C     C_R   0.852343 0.603461 0.608660 -0.341689
C36   C     C_R   0.168823 0.341322 0.427403 -0.360341
C37   C     C_R   0.758373 0.606518 0.580725 0.520887
C38   C     C_R   0.245087 0.381465 0.427341 0.498471
C39   C     C_R   0.796567 0.506093 0.508127 0.137728
C40   C     C_R   0.210384 0.481185 0.501015 0.135895
C41   C     C_R   0.894780 0.502886 0.535491 -0.069840
C42   C     C_R   0.127531 0.443877 0.499956 -0.078148
C43   C     C_R   0.920844 0.553554 0.586454 0.064599
C44   C     C_R   0.108184 0.373093 0.461558 0.077305
C45   C     C_R   0.560981 0.451985 0.129763 0.510932
C46   C     C_R   0.456422 0.579484 0.874037 0.499364
C47   C     C_R   0.968330 0.454370 0.513934 0.087614
C48   C     C_R   0.060450 0.475551 0.532417 0.082588
C49   C     C_R   0.083728 0.519726 0.585726 -0.296098
C50   C     C_R   0.955871 0.379603 0.479905 -0.292557
C51   C     C_R   0.015474 0.557219 0.613350 0.133700
C52   C     C_R   0.025492 0.337475 0.455080 0.135927
C53   C     C_R   0.450819 0.584576 0.112413 0.542637
C54   C     C_R   0.562438 0.444264 0.890869 0.492057
C55   C     C_R   0.452352 0.585654 0.053011 -0.026222
C56   C     C_R   0.564316 0.445469 0.950803 -0.014340
C57   C     C_R   0.508671 0.516896 0.031961 -0.021343
C58   C     C_R   0.509467 0.515218 0.972058 -0.018141
C59   C     C_R   0.563608 0.449397 0.070566 -0.017336
C60   C     C_R   0.454797 0.582875 0.933451 -0.015751
C61   C     C_R   0.398362 0.652914 0.014229 -0.150872
C62   C     C_R   0.619037 0.378684 0.989676 -0.152300
C63   C     C_R   0.399801 0.651679 0.954987 -0.151740
C64   C     C_R   0.618970 0.380812 0.049112 -0.149844
H1    H     H_    0.354731 0.706516 0.029464 0.195297
H2    H     H_    0.661944 0.324611 0.974326 0.196254
H3    H     H_    0.209883 0.908872 0.472118 0.139889
H4    H     H_    0.775668 0.095035 0.482300 0.137396
H5    H     H_    0.353443 0.150627 0.460429 0.151725
H6    H     H_    0.612163 0.859007 0.439330 0.157086
H7    H     H_    0.872557 0.644996 0.646023 0.232870
H8    H     H_    0.152796 0.288672 0.397135 0.229764
H9    H     H_    0.155151 0.520938 0.608986 0.140043
H10   H     H_    0.894364 0.349847 0.474741 0.140813
H11   H     H_    0.357288 0.704389 0.926110 0.194799
H12   H     H_    0.661763 0.328261 0.078020 0.195827
H13   H     H_    0.637807 0.548576 0.700208 0.210198
H14   H     H_    0.568905 0.618825 0.339333 0.158138
H15   H     H_    0.371760 0.455476 0.662631 0.160184
H16   H     H_    0.428759 0.393363 0.300799 0.242847
H17   H     H_    0.376675 0.460808 0.767802 0.144386
H18   H     H_    0.428342 0.404613 0.197101 0.166073
H19   H     H_    0.243256 0.054422 0.459385 0.152373
H20   H     H_    0.726328 0.954038 0.453910 0.150838
H21   H     H_    0.462515 0.211408 0.508465 0.167342
H22   H     H_    0.525299 0.777736 0.456353 0.187651
N1    N     N_R   0.504582 0.518388 0.149173 -0.347330
N2    N     N_R   0.509653 0.510950 0.854250 -0.359948
N3    N     N_R   0.731690 0.552740 0.533440 -0.151454
N4    N     N_R   0.268310 0.447260 0.466560 -0.140523
O1    O     O_R   0.383120 0.605620 0.483150 -0.578625
O2    O     O_R   0.616880 0.394380 0.516850 -0.603514
O3    O     O_R   0.531890 0.639510 0.504600 -0.549831
O4    O     O_R   0.468110 0.360490 0.495400 -0.593612
O5    O     O_R   0.425590 0.483070 0.573110 -0.636430
O6    O     O_R   0.574410 0.516930 0.426890 -0.620966
O7    O     O_R   0.574360 0.516970 0.594570 -0.574785
O8    O     O_R   0.425640 0.483030 0.405430 -0.513746
O9    O     O_2   0.614144 0.388725 0.167769 -0.554919
O10   O     O_2   0.405386 0.643873 0.836218 -0.554565
O11   O     O_2   0.395465 0.648398 0.133264 -0.545913
O12   O     O_2   0.612497 0.377043 0.869118 -0.555307
Zn1   Zn    Zn3+2 0.400660 0.477370 0.485670 1.030808
Zn2   Zn    Zn3+2 0.599340 0.522630 0.514330 1.017711
N5    N     N_3   0.042647 0.601654 0.668066 -0.453461
H23   H     H_    0.088753 0.556936 0.698713 0.198075
H24   H     H_    0.078790 0.651339 0.661181 0.197398
N6    N     N_3   0.009882 0.260482 0.420865 -0.465442
H25   H     H_    0.949569 0.276534 0.386602 0.200960
H26   H     H_    0.997433 0.213503 0.447968 0.180444
N7    N     N_3   0.228909 0.561205 0.530248 -0.391599
H27   H     H_    0.167182 0.605839 0.525025 0.179181
H28   H     H_    0.263112 0.549113 0.574575 0.186090
N8    N     N_3   0.762626 0.475402 0.449634 -0.406977
H29   H     H_    0.806750 0.483597 0.422774 0.182983
H30   H     H_    0.750984 0.411004 0.450930 0.202194
S1    S     S_3+6 0.292874 0.357531 0.365887 0.020394
O13   O     O_2   0.241917 0.293766 0.325821 -0.325684
O14   O     O_2   0.279371 0.440920 0.331137 -0.271649
O15   O     O_3   0.406440 0.313840 0.386254 -0.577450
H31   H     H_    0.407529 0.249672 0.386575 0.358066
S2    S     S_3+6 0.683683 0.699137 0.598957 0.036680
O16   O     O_2   0.736649 0.746690 0.650065 -0.300212
O17   O     O_2   0.653267 0.760414 0.546644 -0.336211
O18   O     O_3   0.589329 0.675614 0.617616 -0.550494
H32   H     H_    0.549668 0.732937 0.618983 0.374508
N9    N     N_3   0.659323 0.564717 0.814480 -0.438753
H33   H     H_    0.632659 0.618021 0.836845 0.205452
H34   H     H_    0.693429 0.515129 0.845422 0.217450
N10   N     N_3   0.584950 0.642165 0.230266 -0.434225
H35   H     H_    0.654385 0.633838 0.255176 0.186789
H36   H     H_    0.552296 0.703735 0.239824 0.207194
N11   N     N_3   0.755474 0.263642 0.508163 -0.449800
H37   H     H_    0.810432 0.237813 0.543610 0.191435
H38   H     H_    0.780886 0.258804 0.470384 0.160702
N12   N     N_3   0.248065 0.737909 0.492452 -0.424768
H39   H     H_    0.188038 0.744121 0.457442 0.193555
H40   H     H_    0.228382 0.762343 0.530250 0.179652

loop_
_geom_bond_atom_site_label_1
_geom_bond_atom_site_label_2
_ccdc_geom_bond_type
N7    H27   S    
N8    H29   S    
C39   C41   A    
C27   C33   A    
C15   C19   A    
N5    H24   S    
C59   C64   A    
C34   H20   S    
C23   O5    A    
C60   C63   A    
C24   O8    A    
C45   N1    A    
C14   N1    S    
C29   C32   A    
C50   H10   S    
C30   C31   A    
C3    N9    S    
C57   C59   A    
C18   H4    S    
C58   C60   A    
O8    Zn1   S    
N6    H25   S    
C9    H15   S    
C22   H21   S    
C61   C63   A    
C62   C64   A    
C17   C19   A    
C38   S1    S    
C56   C58   A    
C49   C51   A    
C50   C52   A    
C31   C33   A    
C1    C15   S    
C20   N11   S    
C40   N7    S    
C2    C16   S    
C18   C20   A    
C3    C13   A    
C51   N5    S    
C46   C60   A    
C44   C52   A    
C40   C42   A    
C35   H7    S    
C1    O1    A    
C41   C43   A    
C42   C44   A    
C53   N1    A    
O3    Zn2   S    
C41   C47   A    
O5    Zn1   S    
C47   C50   A    
C46   N2    A    
C53   C55   A    
C25   C29   A    
C54   C56   A    
C17   H3    S    
C62   H2    S    
C17   C27   A    
C2    O4    A    
C18   C28   A    
C4    C6    A    
C21   C25   A    
C45   O9    S    
S1    O15   S    
C53   O11   S    
C5    C7    A    
C10   H16   S    
C4    N10   S    
C19   N12   S    
C1    O3    A    
C11   H17   S    
C32   C34   A    
N10   H36   S    
N9    H34   S    
C29   C30   A    
C33   H19   S    
N8    H30   S    
C47   C48   A    
C15   C21   A    
C16   C20   A    
C39   N8    S    
C24   O6    A    
C64   H12   S    
C12   H18   S    
N7    H28   S    
C42   C48   A    
C2    O2    A    
C9    C11   A    
C10   C12   A    
C6    C8    A    
N12   H40   S    
C48   C49   A    
C23   O7    A    
C12   C14   A    
O4    Zn1   S    
C26   C30   A    
C55   C57   A    
N3    Zn2   S    
O18   H32   S    
C49   H9    S    
C36   C44   A    
C5    H13   S    
N9    H33   S    
C35   C43   A    
O15   H31   S    
C7    C9    A    
O6    Zn2   S    
C46   O10   S    
C21   H22   S    
C45   C59   A    
C16   C22   A    
C35   C37   A    
C54   O12   S    
O1    Zn1   S    
N12   H39   S    
C3    C5    A    
C32   H6    S    
C25   C27   A    
N5    H23   S    
C38   N4    A    
C26   C28   A    
C37   N3    A    
S2    O18   S    
S1    O14   D    
N10   H35   S    
S1    O13   D    
C54   N2    A    
C11   C13   A    
C43   C51   A    
C57   C58   A    
N11   H37   S    
C63   H11   S    
C7    C23   S    
C55   C61   A    
C13   N2    S    
C36   C38   A    
C8    C24   S    
N6    H26   S    
C56   C62   A    
C4    C14   A    
N4    Zn1   S    
O7    Zn2   S    
C6    H14   S    
O2    Zn2   S    
C28   C34   A    
C37   S2    S    
C61   H1    S    
C31   H5    S    
C52   N6    S    
C8    C10   A    
C22   C26   A    
N11   H38   S    
C40   N4    A    
S2    O16   D    
S2    O17   D    
C39   N3    A    
C36   H8    S    
