data_mof_unit_46758.cif
_audit_creation_date              2012-12-10T16:54:56-0500
_audit_creation_method            fapswitch 2.2
_symmetry_space_group_name_H-M    P1
_symmetry_Int_Tables_number       1
_space_group_crystal_system       triclinic
_cell_length_a                    7.816261
_cell_length_b                    8.581804
_cell_length_c                    15.718104
_cell_angle_alpha                 91.230433
_cell_angle_beta                  86.38996
_cell_angle_gamma                 92.662779
_cell_volume                      1050.9228257

loop_
_atom_site_label
_atom_site_type_symbol
_atom_type_description
_atom_site_fract_x
_atom_site_fract_y
_atom_site_fract_z
_atom_type_partial_charge
C1    C     C_R   0.544081 0.793925 0.500112 0.900504
C2    C     C_3   0.412605 0.652480 0.052017 0.154242
C3    C     C_3   0.488474 0.497756 0.083244 -0.382588
C4    C     C_3   0.383009 0.348761 0.051503 0.326166
C5    C     C_3   0.397115 0.343153 0.950642 0.233274
C6    C     C_1   0.488305 0.498624 0.175019 0.214271
C7    C     C_1   0.506183 0.496641 0.825256 0.258856
C8    C     C_1   0.507411 0.498154 0.749953 -0.042090
C9    C     C_2   0.559749 0.955621 0.516399 -0.284447
C10   C     C_2   0.440969 0.044203 0.483974 -0.269751
C11   C     C_R   0.502589 0.499952 0.661376 0.853438
C12   C     C_R   0.456047 0.205992 0.500149 0.894622
C13   C     C_R   0.497311 0.499855 0.338660 0.859362
C14   C     C_3   0.405169 0.642495 0.952576 1.072824
C15   C     C_3   0.684530 0.506888 0.948354 0.324821
C16   C     C_3   0.677310 0.483757 0.045493 0.355599
C17   C     C_1   0.491125 0.499353 0.250178 -0.081449
C18   C     C_3   0.498983 0.495088 0.917104 -0.406073
H1    H     H_    0.743803 0.624350 0.933577 0.244159
H2    H     H_    0.722877 0.366206 0.058436 0.245895
N1    N     N_2   0.950340 0.457950 0.477370 -0.090602
N2    N     N_2   0.049660 0.542050 0.522630 0.168632
O1    O     O_R   0.389240 0.738570 0.505550 -0.635099
O2    O     O_R   0.678400 0.711630 0.491050 -0.555001
O3    O     O_R   0.355360 0.513470 0.630110 -0.555213
O4    O     O_R   0.644510 0.486530 0.615610 -0.548584
O5    O     O_R   0.321600 0.288370 0.508950 -0.577780
O6    O     O_R   0.610760 0.261430 0.494450 -0.631878
O7    O     O_R   0.355490 0.513470 0.384390 -0.680432
O8    O     O_R   0.644640 0.486530 0.369890 -0.615947
Zn1   Zn    Zn3+2 0.306930 0.517990 0.509680 1.096804
Zn2   Zn    Zn3+2 0.693070 0.482010 0.490320 1.102357
C19   C     C_2   0.511330 0.797771 0.083292 0.692765
H3    H     H_    0.466810 0.854721 0.142409 0.099014
O9    O     O_2   0.642621 0.849531 0.045744 -0.426793
F1    F     F_    0.235252 0.633598 0.931269 -0.498939
F2    F     F_    0.247134 0.665972 0.088015 -0.620130
F3    F     F_    0.453747 0.217726 0.083588 -0.611798
C20   C     C_2   0.674386 0.008939 0.585499 0.532130
H4    H     H_    0.651043 0.115212 0.622204 0.064899
O10   O     O_2   0.794503 0.932282 0.603383 -0.464845
C21   C     C_2   0.327548 0.990383 0.414552 0.522831
H5    H     H_    0.354238 0.886083 0.376669 0.052244
O11   O     O_2   0.204309 0.063935 0.398026 -0.477546
C22   C     C_2   0.010922 0.431941 0.392031 0.681523
H6    H     H_    0.066796 0.527978 0.354397 0.021485
O12   O     O_2   0.984156 0.305204 0.357679 -0.486208
F4    F     F_    0.976029 0.588565 0.597233 -0.465534
F5    F     F_    0.479217 0.775580 0.913977 -0.634940
F6    F     F_    0.790120 0.400250 0.906834 -0.548912
F7    F     F_    0.790156 0.589766 0.083121 -0.590382
F8    F     F_    0.233996 0.340334 0.919741 -0.606004
C23   C     C_2   0.475562 0.194815 0.914106 0.706385
H7    H     H_    0.416205 0.132717 0.861900 0.094707
O13   O     O_2   0.606373 0.145368 0.939958 -0.412821
C24   C     C_2   0.196598 0.345100 0.086299 0.717736
H8    H     H_    0.105136 0.419730 0.060497 0.182702
O14   O     O_2   0.145953 0.256178 0.143067 -0.472460

loop_
_geom_bond_atom_site_label_1
_geom_bond_atom_site_label_2
_ccdc_geom_bond_type
O3    Zn1   S    
C15   C18   S    
N2    F4    S    
O2    Zn2   S    
C5    F8    S    
O4    Zn2   S    
C10   C21   S    
C9    C10   D    
C14   C18   S    
C16   F7    S    
C13   C17   S    
C16   H2    S    
C3    C6    S    
C7    C18   S    
C23   O13   D    
C2    C3    S    
C1    C9    S    
C7    C8    T    
O7    Zn1   S    
N1    N2    D    
C4    C24   S    
O8    Zn2   S    
C2    F2    S    
C21   O11   D    
C12   O6    A    
C8    C11   S    
C10   C12   S    
C2    C19   S    
C5    C23   S    
C19   O9    D    
C4    F3    S    
C1    O1    A    
N1    C22   S    
C22   O12   D    
C14   F1    S    
C2    C14   S    
N1    Zn2   S    
C14   F5    S    
N2    Zn1   S    
C11   O3    A    
C12   O5    A    
O5    Zn1   S    
C3    C4    S    
C15   H1    S    
C22   H6    S    
C13   O8    A    
O6    Zn2   S    
C19   H3    S    
C24   H8    S    
C1    O2    A    
C20   O10   D    
C21   H5    S    
C15   F6    S    
C13   O7    A    
C20   H4    S    
C6    C17   T    
C5    C18   S    
C11   O4    A    
C23   H7    S    
C9    C20   S    
C3    C16   S    
C15   C16   S    
C24   O14   D    
C4    C5    S    
O1    Zn1   S    
