data_mof_unit_54744.cif
_audit_creation_date              2012-12-10T17:14:42-0500
_audit_creation_method            fapswitch 2.2
_symmetry_space_group_name_H-M    P1
_symmetry_Int_Tables_number       1
_space_group_crystal_system       triclinic
_cell_length_a                    10.668749
_cell_length_b                    12.98183
_cell_length_c                    11.762182
_cell_angle_alpha                 100.589682
_cell_angle_beta                  94.758451
_cell_angle_gamma                 91.028853
_cell_volume                      1594.87932013

loop_
_atom_site_label
_atom_site_type_symbol
_atom_type_description
_atom_site_fract_x
_atom_site_fract_y
_atom_site_fract_z
_atom_type_partial_charge
C1    C     C_R   0.498679 0.299063 0.478124 0.792815
C2    C     C_R   0.501321 0.700937 0.521876 0.792816
C3    C     C_R   0.479515 0.139236 0.561311 -0.263074
C4    C     C_R   0.520486 0.860764 0.438689 -0.263074
C5    C     C_R   0.486147 0.031338 0.552911 0.172196
C6    C     C_R   0.513854 0.968662 0.447089 0.172196
C7    C     C_R   0.387929 0.395477 0.015679 0.070905
C8    C     C_R   0.612071 0.604523 0.984321 0.070897
C9    C     C_R   0.398920 0.404098 0.137961 0.313597
C10   C     C_R   0.601082 0.595901 0.862039 0.313603
C11   C     C_R   0.546403 0.546283 0.159536 0.002684
C12   C     C_R   0.453595 0.453719 0.840464 0.002682
C13   C     C_R   0.540288 0.537950 0.036343 -0.035672
C14   C     C_R   0.459709 0.462052 0.963657 -0.035677
C15   C     C_R   0.259857 0.500555 0.499414 0.826727
C16   C     C_R   0.740143 0.499444 0.500585 0.826728
C17   C     C_3   0.045396 0.418892 0.542552 0.090897
C18   C     C_3   0.954604 0.581108 0.457447 0.090896
C19   C     C_3   0.950584 0.409146 0.434161 0.085306
C20   C     C_3   0.049416 0.590854 0.565839 0.085306
C21   C     C_3   0.875995 0.498432 0.501425 -0.159315
C22   C     C_3   0.124005 0.501568 0.498575 -0.159315
C23   C     C_3   0.971376 0.506802 0.608869 0.156868
C24   C     C_3   0.028624 0.493197 0.391131 0.156868
C25   C     C_R   0.499211 0.814594 0.534384 -0.053879
C26   C     C_R   0.500789 0.185405 0.465616 -0.053878
C27   C     C_R   0.534279 0.014827 0.351315 -0.207371
C28   C     C_R   0.465722 0.985173 0.648685 -0.207371
C29   C     C_R   0.527845 0.122916 0.360576 -0.211115
C30   C     C_R   0.472156 0.877084 0.639424 -0.211115
Cu1   Cu    Cu3+1 0.509400 0.507730 0.615930 0.928694
Cu2   Cu    Cu3+1 0.490600 0.492270 0.384070 0.928694
H1    H     H_    0.542027 0.812815 0.357421 0.155293
H2    H     H_    0.457974 0.187185 0.642579 0.155292
H3    H     H_    0.453733 0.842370 0.713575 0.147782
H4    H     H_    0.546268 0.157630 0.286425 0.147781
H5    H     H_    0.555896 0.967534 0.269802 0.136750
H6    H     H_    0.444105 0.032466 0.730198 0.136748
H7    H     H_    0.391949 0.395228 0.784350 0.180606
H8    H     H_    0.608048 0.604774 0.215650 0.180606
N1    N     N_R   0.523540 0.519360 0.790140 -0.212541
N2    N     N_R   0.476460 0.480640 0.209860 -0.212541
O1    O     O_R   0.506670 0.354460 0.582000 -0.585652
O2    O     O_R   0.493330 0.645540 0.418000 -0.585652
O3    O     O_R   0.490800 0.341410 0.386200 -0.603108
O4    O     O_R   0.509200 0.658590 0.613800 -0.603107
O5    O     O_R   0.324790 0.506500 0.597880 -0.577150
O6    O     O_R   0.675210 0.493500 0.402120 -0.577150
O7    O     O_R   0.308910 0.493440 0.402080 -0.585244
O8    O     O_R   0.691090 0.506560 0.597920 -0.585245
C31   C     C_3   0.888285 0.308926 0.360556 -0.386816
C32   C     C_3   0.983792 0.236105 0.301373 -0.814925
H9    H     H_    0.039054 0.276727 0.245874 0.272284
H10   H     H_    0.048680 0.207817 0.366640 0.242582
H11   H     H_    0.933384 0.166965 0.245630 0.237428
H12   H     H_    0.835627 0.267021 0.416905 0.190937
H13   H     H_    0.820132 0.330686 0.293011 0.216933
C33   C     C_3   0.111715 0.691074 0.639444 -0.386815
C34   C     C_3   0.016208 0.763895 0.698628 -0.814923
H14   H     H_    0.951319 0.792182 0.633361 0.242582
H15   H     H_    0.960948 0.723273 0.754128 0.272284
H16   H     H_    0.066616 0.833036 0.754369 0.237428
H17   H     H_    0.179869 0.669314 0.706988 0.216933
H18   H     H_    0.164372 0.732979 0.583094 0.190937
N3    N     N_3   0.098139 0.333350 0.593696 -0.583894
H19   H     H_    0.024469 0.279952 0.596318 0.219898
H20   H     H_    0.160754 0.295110 0.537728 0.212910
N4    N     N_3   0.901861 0.666650 0.406303 -0.583895
H21   H     H_    0.975531 0.720048 0.403682 0.219898
H22   H     H_    0.839246 0.704890 0.462272 0.212910
N5    N     N_3   0.939085 0.511980 0.727679 -0.582500
H23   H     H_    0.023427 0.515210 0.780354 0.233175
H24   H     H_    0.892725 0.441222 0.731332 0.229556
N6    N     N_3   0.060915 0.488019 0.272321 -0.582497
H25   H     H_    0.976573 0.484789 0.219646 0.233173
H26   H     H_    0.107275 0.558778 0.268668 0.229556
N7    N     N_3   0.668960 0.674059 0.818111 -0.617957
H27   H     H_    0.607696 0.729890 0.795231 0.228655
H28   H     H_    0.722512 0.641977 0.751643 0.276436
N8    N     N_3   0.331045 0.325938 0.181889 -0.617958
H29   H     H_    0.392312 0.270107 0.204765 0.228654
H30   H     H_    0.277497 0.358018 0.248359 0.276436
N9    N     N_3   0.305242 0.316660 0.944062 -0.613333
H31   H     H_    0.333474 0.243045 0.958355 0.228383
H32   H     H_    0.214075 0.327922 0.969399 0.243257
N10   N     N_3   0.694767 0.683333 0.055938 -0.613349
H33   H     H_    0.666566 0.756947 0.041631 0.228400
H34   H     H_    0.785932 0.672048 0.030616 0.243252

loop_
_geom_bond_atom_site_label_1
_geom_bond_atom_site_label_2
_ccdc_geom_bond_type
C7    N9    S    
C16   C21   S    
C27   C29   A    
C18   C21   S    
Cu2   O3    S    
C15   O5    A    
C24   N6    S    
C16   O6    A    
C4    C25   A    
N7    H27   S    
C2    O4    A    
C29   H4    S    
C9    N2    A    
C17   C23   S    
Cu1   O1    S    
C30   H3    S    
C18   C24   S    
C19   C21   S    
C16   O8    A    
C5    C6    A    
N10   H34   S    
C18   N4    S    
C25   C30   A    
C11   N2    A    
C31   H12   S    
C1    O1    A    
C15   C22   S    
Cu1   Cu2   S    
C2    O2    A    
N4    H21   S    
N3    H20   S    
Cu1   O4    S    
C31   H13   S    
C7    C14   A    
C18   C20   S    
C32   H11   S    
C34   H14   S    
Cu1   O5    S    
C13   C14   A    
C10   N1    A    
Cu2   O6    S    
C6    C27   A    
C10   N7    S    
C32   H10   S    
N7    H28   S    
C33   H18   S    
C34   H15   S    
N6    H25   S    
C31   C32   S    
C23   N5    S    
N8    H30   S    
N5    H24   S    
N10   H33   S    
C3    H2    S    
C33   C34   S    
C9    N8    S    
C12   N1    A    
C5    C28   A    
N9    H31   S    
C20   C23   S    
C28   H6    S    
Cu2   O2    S    
N6    H26   S    
C4    C6    A    
N9    H32   S    
C12   C14   A    
C21   C23   S    
C1    C26   S    
C22   C24   S    
Cu1   O8    S    
C20   C33   S    
C32   H9    S    
C33   H17   S    
C7    C9    A    
C4    H1    S    
C34   H16   S    
Cu1   N1    S    
C3    C26   A    
C20   C22   S    
N8    H29   S    
C3    C5    A    
C17   N3    S    
C17   C22   S    
C12   H7    S    
C28   C30   A    
C19   C24   S    
N5    H23   S    
C11   C13   A    
C1    O3    A    
C27   H5    S    
C17   C19   S    
C2    C25   S    
C8    N10   S    
C15   O7    A    
C11   H8    S    
Cu2   O7    S    
C8    C13   A    
C19   C31   S    
C26   C29   A    
C8    C10   A    
N3    H19   S    
N4    H22   S    
Cu2   N2    S    
