data_mof_unit_24743.cif
_audit_creation_date              2012-12-11T16:53:20-0500
_audit_creation_method            fapswitch 2.2
_symmetry_space_group_name_H-M    P1
_symmetry_Int_Tables_number       1
_space_group_crystal_system       triclinic
_cell_length_a                    14.869963
_cell_length_b                    14.757831
_cell_length_c                    17.028384
_cell_angle_alpha                 108.937448
_cell_angle_beta                  106.285112
_cell_angle_gamma                 107.874165
_cell_volume                      3049.54131047

loop_
_atom_site_label
_atom_site_type_symbol
_atom_type_description
_atom_site_fract_x
_atom_site_fract_y
_atom_site_fract_z
_atom_type_partial_charge
C1    C     C_R   0.094622 0.276844 0.035162 -0.110233
C2    C     C_R   0.065908 0.482974 0.253734 -0.084077
C3    C     C_R   0.279969 0.783688 0.174949 -0.114389
C4    C     C_R   0.938351 0.464366 0.734612 -0.106944
C5    C     C_R   0.743828 0.470354 0.053646 -0.112383
C6    C     C_R   0.336310 0.778833 0.252062 0.061766
C7    C     C_R   0.716716 0.547598 0.039445 0.101474
C8    C     C_R   0.975930 0.419246 0.254765 0.118888
C9    C     C_R   0.998933 0.822095 0.978464 -0.035882
C10   C     C_R   0.522634 0.654213 0.043294 0.100952
C11   C     C_R   0.474319 0.602547 0.086499 -0.176122
C12   C     C_R   0.031079 0.478138 0.725586 0.050480
C13   C     C_R   0.534356 0.575072 0.146849 0.737705
C14   C     C_R   0.625593 0.571116 0.141704 -0.347407
C15   C     C_R   0.656325 0.595137 0.077140 -0.041145
C16   C     C_R   0.753006 0.200418 0.811976 -0.123629
C17   C     C_R   0.612336 0.650339 0.038407 0.143901
C18   C     C_3   0.578523 0.640702 0.943239 -0.449372
C19   C     C_3   0.480848 0.645532 0.948848 -0.493067
C20   C     C_R   0.968778 0.377693 0.321689 -0.066882
C21   C     C_R   0.040270 0.434023 0.639291 0.135413
C22   C     C_R   0.144635 0.439349 0.552975 -0.114063
C23   C     C_R   0.724746 0.193454 0.724946 0.059993
C24   C     C_R   0.138116 0.461957 0.636535 -0.198736
C25   C     C_R   0.949590 0.370389 0.557369 -0.205561
C26   C     C_R   0.955254 0.355606 0.474604 0.110512
C27   C     C_R   0.053540 0.393891 0.472575 -0.018099
C28   C     C_R   0.301363 0.596157 0.004974 -0.163978
C29   C     C_R   0.059195 0.397604 0.393336 0.646913
C30   C     C_R   0.870841 0.328893 0.320915 -0.241067
C31   C     C_R   0.864117 0.314950 0.396110 -0.201546
C32   C     C_R   0.679969 0.097246 0.638938 0.132432
C33   C     C_R   0.444781 0.850195 0.317078 0.119429
C34   C     C_R   0.361516 0.563588 0.056312 0.137507
C35   C     C_R   0.582934 0.029263 0.394023 -0.207314
C36   C     C_R   0.497474 0.946207 0.315684 -0.169078
C37   C     C_R   0.489246 0.831473 0.390805 -0.229931
C38   C     C_R   0.567717 0.916488 0.471742 0.168548
C39   C     C_R   0.611396 0.017432 0.474331 0.185282
C40   C     C_R   0.756444 0.296480 0.734973 -0.118054
C41   C     C_R   0.671459 0.106739 0.558177 -0.262429
C42   C     C_R   0.645745 0.995923 0.636225 -0.162695
C43   C     C_R   0.591592 0.905396 0.552539 -0.197891
C44   C     C_R   0.115418 0.071823 0.949009 0.046369
C45   C     C_R   0.273105 0.687786 0.252040 -0.116229
C46   C     C_R   0.018914 0.074420 0.936798 0.100019
C47   C     C_R   0.928391 0.978233 0.873915 -0.185252
C48   C     C_R   0.935775 0.889695 0.816789 -0.120320
C49   C     C_R   0.033171 0.894893 0.822085 0.136971
C50   C     C_R   0.121925 0.983515 0.893491 -0.086556
C51   C     C_3   0.219182 0.049687 0.892051 0.724228
C52   C     C_R   0.296367 0.498413 0.079855 -0.114944
C53   C     C_3   0.212320 0.146849 0.952147 -0.634722
C54   C     C_R   0.111659 0.541794 0.812710 -0.124649
C55   C     C_R   0.921332 0.190599 0.961977 -0.123648
C56   C     C_R   0.751780 0.567240 0.976985 -0.156431
C57   C     C_R   0.011904 0.175798 0.979421 0.060428
C58   C     C_R   0.893487 0.394832 0.175954 -0.156489
C59   C     C_R   0.084156 0.806596 0.019014 -0.268069
C60   C     C_R   0.914143 0.722703 0.937025 0.672287
F1    F     F_    0.820929 0.696157 0.871433 -0.739010
F2    F     F_    0.500231 0.540194 0.202268 -0.721644
F3    F     F_    0.153556 0.429079 0.390451 -0.736469
F4    F     F_    0.204124 0.042037 0.805669 -0.669655
H1    H     H_    0.176499 0.296583 0.064408 0.116161
H2    H     H_    0.562115 0.562193 0.890455 0.206605
H3    H     H_    0.475726 0.719323 0.949424 0.189774
H4    H     H_    0.409817 0.570027 0.899145 0.202059
H5    H     H_    0.799196 0.308260 0.265581 0.149128
H6    H     H_    0.220978 0.467256 0.552824 0.183940
H7    H     H_    0.788126 0.283394 0.396419 0.135830
H8    H     H_    0.209680 0.506531 0.698507 0.122044
H9    H     H_    0.729126 0.135879 0.829228 0.087161
H10   H     H_    0.656126 0.985968 0.697804 0.118151
H11   H     H_    0.617912 0.105865 0.394730 0.124603
H12   H     H_    0.746834 0.624871 0.953043 0.174183
H13   H     H_    0.559896 0.827959 0.551202 0.140839
H14   H     H_    0.467896 0.961118 0.257865 0.117002
H15   H     H_    0.453921 0.755783 0.391018 0.133518
H16   H     H_    0.851513 0.973060 0.863446 0.126659
H17   H     H_    0.865612 0.819450 0.764695 0.161162
H18   H     H_    0.287722 0.038428 0.925889 -0.016777
H19   H     H_    0.328957 0.662017 0.989460 0.107402
H20   H     H_    0.197121 0.196596 0.917832 0.236802
H21   H     H_    0.318864 0.469937 0.129541 0.175019
H22   H     H_    0.194332 0.569743 0.831828 0.096580
H23   H     H_    0.814187 0.335226 0.147883 0.097026
H24   H     H_    0.843161 0.128494 0.928152 0.086553
H25   H     H_    0.294476 0.650661 0.294689 0.106595
H26   H     H_    0.663834 0.537330 0.179840 0.171269
H27   H     H_    0.873462 0.341677 0.557483 0.103936
H28   H     H_    0.703127 0.183865 0.559252 0.112053
H29   H     H_    0.276888 0.191787 0.022104 0.168624
H30   H     H_    0.734060 0.320869 0.682457 0.094406
H31   H     H_    0.164890 0.864270 0.050572 0.143435
H32   H     H_    0.145878 0.509809 0.298529 0.180321
H33   H     H_    0.309457 0.835857 0.146719 0.083338
H34   H     H_    0.729445 0.435932 0.098537 0.101909
H35   H     H_    0.629251 0.711451 0.940143 0.209300
H36   H     H_    0.861983 0.429017 0.680492 0.091115
N1    N     N_R   0.055640 0.348550 0.045600 -0.044399
N2    N     N_R   0.811290 0.303400 0.871650 -0.042239
N3    N     N_R   0.205180 0.552990 0.997660 -0.041043
N4    N     N_R   0.814810 0.361830 0.823710 -0.038550
N5    N     N_R   0.201660 0.494570 0.045600 -0.054037
N6    N     N_R   0.068420 0.560530 0.871650 -0.043466
N7    N     N_R   0.948050 0.295860 0.997660 -0.040870
N8    N     N_R   0.185190 0.638170 0.176290 -0.044883
N9    N     N_R   0.798340 0.505430 0.954400 -0.041869
N10   N     N_R   0.931580 0.439470 0.128350 -0.044984
N11   N     N_R   0.051950 0.704140 0.002340 -0.071189
N12   N     N_R   0.944360 0.651450 0.954400 -0.105713
N13   N     N_R   0.039170 0.492150 0.176290 -0.057682
N14   N     N_R   0.188710 0.696600 0.128350 -0.035510
N15   N     N_R   0.794820 0.447010 0.002340 -0.047013
N16   N     N_R   0.960830 0.507850 0.823710 -0.041297
Ni1   Ni    Ni4+2 0.119330 0.493420 0.109950 0.226495
Ni2   Ni    Ni4+2 0.880670 0.506580 0.890050 0.265084
Ni3   Ni    Ni4+2 0.872590 0.372590 0.000000 0.216992
Ni4   Ni    Ni4+2 0.127410 0.627410 0.000000 0.203011

loop_
_geom_bond_atom_site_label_1
_geom_bond_atom_site_label_2
_ccdc_geom_bond_type
N1    N7    A    
C29   F3    S    
C56   H12   S    
C6    C45   A    
C27   C29   A    
N11   N12   A    
C3    C6    A    
C58   H23   S    
C39   C41   A    
C20   C30   A    
C37   H15   S    
C35   H11   S    
C26   C27   A    
C8    C20   S    
C53   H20   S    
C47   H16   S    
C52   H21   S    
C30   C31   A    
C2    N13   A    
C10   C17   A    
C23   C40   A    
C33   C36   A    
C48   H17   S    
C18   C19   S    
N8    N14   A    
C55   H24   S    
C14   H26   S    
C8    C58   A    
C44   C53   S    
C13   F2    S    
C35   C36   A    
C1    H1    S    
C32   C41   A    
C19   H3    S    
C4    C12   A    
C45   H25   S    
C45   N8    A    
C31   H7    S    
C28   C34   A    
C26   C31   A    
C13   C14   A    
C5    N15   A    
C28   H19   S    
N5    Ni1   S    
C59   H31   S    
C7    C56   A    
N7    Ni3   S    
C44   C46   A    
N9    Ni2   S    
C50   C51   S    
N4    Ni2   S    
C20   C29   A    
C25   H27   S    
C42   H10   S    
C54   N6    A    
C53   H29   S    
C16   H9    S    
C5    C7    A    
C7    C15   S    
C25   C26   A    
C12   C21   S    
C33   C37   A    
C55   N7    A    
C60   F1    S    
C9    C59   A    
C35   C39   A    
C37   C38   A    
C60   N12   A    
C1    C57   A    
C40   N4    A    
C3    H33   S    
C59   N11   A    
C47   C48   A    
N10   N13   A    
C10   C19   S    
C17   C18   S    
C19   H4    S    
N3    N5    A    
N2    N4    A    
C51   H18   S    
N13   Ni1   S    
C16   N2    A    
C48   C49   A    
C52   N5    A    
C16   C23   A    
N15   Ni3   S    
C22   C27   A    
C4    H36   S    
C46   C57   S    
C22   C24   A    
C43   H13   S    
C42   C43   A    
C1    N1    A    
C56   N9    A    
C30   H5    S    
C24   H8    S    
C54   H22   S    
C44   C50   A    
C15   C17   A    
C21   C25   A    
C46   C47   A    
N6    Ni4   S    
C58   N10   A    
N8    Ni1   S    
C4    N16   A    
C11   C34   S    
C2    C8    A    
C51   F4    S    
C40   H30   S    
C3    N14   A    
N10   Ni3   S    
C18   H2    S    
C34   C52   A    
C6    C33   S    
C9    C60   A    
N1    Ni1   S    
C23   C32   S    
C55   C57   A    
C38   C43   A    
C36   H14   S    
N12   Ni2   S    
C11   C13   A    
C28   N3    A    
C38   C39   A    
C2    H32   S    
N3    Ni4   S    
N16   Ni2   S    
C12   C54   A    
C10   C11   A    
N9    N15   A    
C41   H28   S    
C5    H34   S    
C49   C50   A    
C18   H35   S    
C21   C24   A    
N6    N16   A    
C32   C42   A    
C14   C15   A    
N11   Ni4   S    
C51   C53   S    
C22   H6    S    
N14   Ni4   S    
N2    Ni3   S    
