data_mof_unit_42879.cif
_audit_creation_date              2012-12-10T17:33:48-0500
_audit_creation_method            fapswitch 2.2
_symmetry_space_group_name_H-M    P1
_symmetry_Int_Tables_number       1
_space_group_crystal_system       triclinic
_cell_length_a                    11.696558
_cell_length_b                    12.34508
_cell_length_c                    13.213358
_cell_angle_alpha                 116.432947
_cell_angle_beta                  77.721601
_cell_angle_gamma                 101.245804
_cell_volume                      1658.38193691

loop_
_atom_site_label
_atom_site_type_symbol
_atom_type_description
_atom_site_fract_x
_atom_site_fract_y
_atom_site_fract_z
_atom_type_partial_charge
C1    C     C_R   0.510746 0.854561 0.286560 0.774859
C2    C     C_R   0.474374 0.227341 0.834957 -0.056621
C3    C     C_R   0.596997 0.814483 0.087757 -0.219134
C4    C     C_R   0.644851 0.734087 0.981123 -0.141144
C5    C     C_R   0.621070 0.608669 0.947270 0.133931
C6    C     C_R   0.533244 0.561511 0.015402 0.028612
C7    C     C_R   0.485516 0.644421 0.125433 0.057065
C8    C     C_R   0.493606 0.435409 0.981149 0.089360
C9    C     C_R   0.429009 0.392434 0.062336 0.158469
C10   C     C_R   0.382535 0.474857 0.168795 -0.214968
C11   C     C_R   0.401761 0.598234 0.195361 -0.174469
C12   C     C_R   0.715756 0.999720 0.499804 0.821433
C13   C     C_R   0.504648 0.352323 0.866747 -0.205949
C14   C     C_R   0.428986 0.184480 0.919143 -0.154572
C15   C     C_R   0.525003 0.770927 0.164016 -0.100361
C16   C     C_R   0.684610 0.341878 0.322883 0.052959
C17   C     C_R   0.341572 0.755197 0.646042 0.350598
C18   C     C_R   0.310777 0.657740 0.675965 -0.245612
C19   C     C_R   0.371371 0.556988 0.620669 -0.220469
C20   C     C_R   0.465253 0.550891 0.532917 0.015034
C21   C     C_R   0.496055 0.653134 0.504267 0.246916
C22   C     C_R   0.529053 0.446589 0.472942 -0.043878
C23   C     C_R   0.485248 0.145002 0.713298 0.826643
C24   C     C_R   0.622110 0.444665 0.383749 0.110259
C25   C     C_R   0.651251 0.545395 0.357596 -0.225929
C26   C     C_R   0.590754 0.647092 0.416986 -0.168709
C27   C     C_R   0.503943 0.343091 0.497855 0.028548
C28   C     C_R   0.654843 0.243821 0.352407 0.056403
C29   C     C_R   0.284259 0.000149 0.499990 0.831527
C30   C     C_1   0.837457 0.999484 0.499849 -0.152072
C31   C     C_1   0.940021 0.999630 0.499870 0.027799
C32   C     C_1   0.059956 0.000016 0.499883 0.028075
C33   C     C_1   0.162542 0.000264 0.499897 -0.149045
C34   C     C_R   0.402471 0.267109 0.032179 -0.166165
Cu1   Cu    Cu3+1 0.526510 0.098270 0.475420 0.962482
Cu2   Cu    Cu3+1 0.473490 0.901730 0.524580 0.963879
H1    H     H_    0.722318 0.547609 0.290957 0.191721
H2    H     H_    0.435307 0.336413 0.564001 0.130658
H3    H     H_    0.238215 0.659607 0.742904 0.181841
H4    H     H_    0.622069 0.719200 0.391193 0.205349
H5    H     H_    0.324495 0.443507 0.228543 0.155899
H6    H     H_    0.357423 0.233427 0.094975 0.146773
H7    H     H_    0.528639 0.385564 0.801388 0.181809
H8    H     H_    0.349920 0.656170 0.271822 0.179828
H9    H     H_    0.701959 0.164494 0.306414 0.147986
N1    N     N_R   0.566700 0.246290 0.438210 -0.198505
N2    N     N_R   0.434010 0.754320 0.561170 -0.223923
O1    O     O_R   0.533340 0.972510 0.318140 -0.583089
O2    O     O_R   0.488570 0.806530 0.359650 -0.611271
O3    O     O_R   0.685190 0.083000 0.479260 -0.561630
O4    O     O_R   0.640410 0.917020 0.520770 -0.591842
O5    O     O_R   0.511430 0.193470 0.640350 -0.583935
O6    O     O_R   0.466660 0.027490 0.681860 -0.563316
O7    O     O_R   0.359590 0.082980 0.479230 -0.582221
O8    O     O_R   0.314810 0.917000 0.520740 -0.552270
H10   H     H_    0.406936 0.088131 0.896970 0.180612
I1    I     I_    0.823529 0.324985 0.185329 -0.373198
I2    I     I_    0.231293 0.896265 0.742620 -0.347407
H11   H     H_    0.341569 0.485333 0.648718 0.151617
H12   H     H_    0.626237 0.910769 0.114450 0.174416
I3    I     I_    0.748895 0.509330 0.811160 -0.360703
H13   H     H_    0.709496 0.770166 0.928588 0.179044

loop_
_geom_bond_atom_site_label_1
_geom_bond_atom_site_label_2
_ccdc_geom_bond_type
C16   C28   A    
C12   O3    A    
C18   H3    S    
C1    O1    A    
C14   C34   A    
C6    C7    A    
C1    C15   S    
C4    H13   S    
C9    C10   A    
C14   H10   S    
C19   C20   A    
C34   H6    S    
C17   I2    S    
C21   C26   A    
C26   H4    S    
C32   C33   T    
Cu1   O3    S    
C7    C15   A    
C17   C18   A    
C24   C25   A    
C5    I3    S    
C11   H8    S    
C16   C24   A    
Cu2   O8    S    
C21   N2    A    
C3    H12   S    
Cu1   O7    S    
C7    C11   A    
C16   I1    S    
Cu1   O5    S    
C30   C31   T    
C28   N1    A    
C23   O5    A    
C8    C13   A    
Cu2   O4    S    
C1    O2    A    
Cu1   O1    S    
C27   N1    A    
C20   C22   A    
C9    C34   A    
C23   O6    A    
C22   C27   A    
C5    C6    A    
C2    C14   A    
C22   C24   A    
C28   H9    S    
C29   O7    A    
C27   H2    S    
C3    C4    A    
C29   C33   S    
C13   H7    S    
C12   O4    A    
C3    C15   A    
C20   C21   A    
Cu2   N2    S    
C19   H11   S    
C18   C19   A    
C10   C11   A    
C2    C23   S    
C2    C13   A    
C8    C9    A    
C6    C8    A    
Cu2   O6    S    
C29   O8    A    
C25   H1    S    
C25   C26   A    
Cu1   N1    S    
C12   C30   S    
C31   C32   S    
Cu2   O2    S    
C17   N2    A    
C4    C5    A    
C10   H5    S    
Cu1   Cu2   S    
