data_mof_unit_16496.cif
_audit_creation_date              2012-12-10T19:04:16-0500
_audit_creation_method            fapswitch 2.2
_symmetry_space_group_name_H-M    P1
_symmetry_Int_Tables_number       1
_space_group_crystal_system       triclinic
_cell_length_a                    10.631711
_cell_length_b                    10.856875
_cell_length_c                    9.555515
_cell_angle_alpha                 90.026774
_cell_angle_beta                  90.370015
_cell_angle_gamma                 90.189115
_cell_volume                      1102.93679414

loop_
_atom_site_label
_atom_site_type_symbol
_atom_type_description
_atom_site_fract_x
_atom_site_fract_y
_atom_site_fract_z
_atom_type_partial_charge
C1    C     C_R   0.500643 0.262736 0.499842 0.789626
C2    C     C_3   0.957543 0.602649 0.436432 -0.198502
C3    C     C_3   0.039258 0.502591 0.366110 -0.155673
C4    C     C_3   0.122617 0.499375 0.498032 -0.105042
C5    C     C_R   0.491873 0.062042 0.620233 0.133966
C6    C     C_R   0.504285 0.130129 0.498355 -0.098917
C7    C     C_R   0.520644 0.064623 0.372090 -0.212842
C8    C     C_R   0.520901 0.935356 0.372167 -0.217080
C9    C     C_R   0.504739 0.869886 0.498510 -0.092841
C10   C     C_R   0.492235 0.938051 0.620369 0.142408
C11   C     C_3   0.465172 0.929267 0.772855 -0.450230
C12   C     C_R   0.259381 0.499904 0.499430 0.837917
C13   C     C_3   0.464740 0.071115 0.772620 -0.484007
C14   C     C_R   0.556588 0.593501 0.073768 0.144403
C15   C     C_R   0.433978 0.414429 0.073893 -0.046679
C16   C     C_R   0.434093 0.414335 0.925073 -0.041317
C17   C     C_R   0.555455 0.594150 0.926541 0.157702
C18   C     C_3   0.689630 0.633249 0.919254 -0.507821
C19   C     C_3   0.692098 0.630780 0.077943 0.425724
C20   C     C_R   0.500940 0.737263 0.499887 0.813205
C21   C     C_R   0.740655 0.499953 0.500499 0.818609
C22   C     C_3   0.042202 0.396855 0.562658 -0.266909
C23   C     C_3   0.956712 0.399929 0.430859 -0.097975
C24   C     C_3   0.877475 0.499865 0.501387 -0.062822
C25   C     C_3   0.960583 0.496604 0.633530 -0.204618
C26   C     C_3   0.042307 0.597669 0.567305 0.644303
Cu1   Cu    Cu3+1 0.499990 0.499980 0.640670 0.966976
Cu2   Cu    Cu3+1 0.500010 0.500020 0.359330 0.982535
H1    H     H_    0.918153 0.318450 0.374735 0.155035
H2    H     H_    0.544664 0.889103 0.833181 0.186094
H3    H     H_    0.370535 0.111142 0.793085 0.195284
H4    H     H_    0.544019 0.112907 0.832595 0.205973
H5    H     H_    0.382369 0.343779 0.129173 0.128415
H6    H     H_    0.382523 0.343681 0.869013 0.126240
H7    H     H_    0.750533 0.562263 0.871250 0.238701
H8    H     H_    0.700585 0.727292 0.875208 0.145447
H9    H     H_    0.708422 0.722106 0.127542 0.053972
H10   H     H_    0.079761 0.312678 0.613675 0.159394
H11   H     H_    0.927953 0.494568 0.743454 0.162717
H12   H     H_    0.920270 0.687235 0.386028 0.155546
H13   H     H_    0.073799 0.504636 0.256733 0.179290
H14   H     H_    0.532235 0.112476 0.273552 0.169030
H15   H     H_    0.532679 0.887463 0.273667 0.156902
H16   H     H_    0.371318 0.887961 0.793599 0.225909
N1    N     N_R   0.500800 0.500930 0.147930 -0.161732
N2    N     N_R   0.500800 0.500890 0.852020 -0.165488
O1    O     O_R   0.500000 0.319640 0.618810 -0.589422
O2    O     O_R   0.500010 0.319680 0.381230 -0.591348
O3    O     O_R   0.316850 0.499950 0.618770 -0.561020
O4    O     O_R   0.316860 0.499990 0.381190 -0.597258
O5    O     O_R   0.499990 0.680320 0.618770 -0.571171
O6    O     O_R   0.500000 0.680360 0.381190 -0.602474
O7    O     O_R   0.683140 0.500010 0.618810 -0.599379
O8    O     O_R   0.683150 0.500050 0.381230 -0.510083
F1    F     F_    0.769725 0.538297 0.127666 -0.636033
F2    F     F_    0.089733 0.699352 0.637323 -0.672640

loop_
_geom_bond_atom_site_label_1
_geom_bond_atom_site_label_2
_ccdc_geom_bond_type
C12   O4    A    
C23   C24   S    
Cu1   O7    S    
C1    O2    A    
C6    C7    A    
C4    C12   S    
C4    C22   S    
C18   H7    S    
C25   H11   S    
C9    C20   S    
C4    C26   S    
Cu1   O1    S    
C8    H15   S    
C16   H6    S    
C12   O3    A    
C11   H16   S    
C2    C26   S    
C24   C25   S    
C21   O7    A    
Cu2   O6    S    
C14   C17   A    
C18   H8    S    
C21   O8    A    
Cu2   O4    S    
Cu1   O3    S    
C23   H1    S    
Cu1   N2    S    
C5    C10   A    
Cu1   O5    S    
C17   C18   S    
C20   O5    A    
C2    C3    S    
C2    C24   S    
C5    C6    A    
Cu2   N1    S    
C21   C24   S    
C7    C8    A    
C10   C11   S    
C15   N1    A    
C19   F1    S    
C1    C6    S    
C22   H10   S    
C2    H12   S    
C11   C13   S    
C17   N2    A    
C3    H13   S    
C20   O6    A    
C18   C19   S    
C9    C10   A    
C7    H14   S    
C16   N2    A    
Cu1   Cu2   S    
C3    C23   S    
Cu2   O8    S    
C22   C23   S    
Cu2   O2    S    
C19   H9    S    
C14   N1    A    
C25   C26   S    
C13   H4    S    
C5    C13   S    
C14   C19   S    
C13   H3    S    
C1    O1    A    
C3    C4    S    
C15   C16   A    
C11   H2    S    
C15   H5    S    
C8    C9    A    
C22   C25   S    
C26   F2    S    
