data_mof_unit_42760.cif
_audit_creation_date              2012-12-10T20:35:55-0500
_audit_creation_method            fapswitch 2.2
_symmetry_space_group_name_H-M    P1
_symmetry_Int_Tables_number       1
_space_group_crystal_system       triclinic
_cell_length_a                    15.737996
_cell_length_b                    10.699323
_cell_length_c                    9.879175
_cell_angle_alpha                 90.395595
_cell_angle_beta                  88.553674
_cell_angle_gamma                 90.402425
_cell_volume                      1662.90514568

loop_
_atom_site_label
_atom_site_type_symbol
_atom_type_description
_atom_site_fract_x
_atom_site_fract_y
_atom_site_fract_z
_atom_type_partial_charge
C1    C     C_R   0.506317 0.260605 0.498922 0.856383
C2    C     C_R   0.511999 0.128066 0.496234 -0.147993
C3    C     C_R   0.539430 0.061051 0.378475 0.062308
C4    C     C_R   0.338260 0.500867 0.501333 0.906152
C5    C     C_R   0.530923 0.931880 0.381186 -0.229655
C6    C     C_R   0.501754 0.871544 0.498861 -0.164103
C7    C     C_R   0.474948 0.938575 0.612626 0.101027
C8    C     C_3   0.506659 0.930867 0.754548 -0.090317
C9    C     C_3   0.516793 0.071748 0.750856 -0.484052
C10   C     C_R   0.427703 0.468975 0.074110 0.159197
C11   C     C_R   0.569464 0.538018 0.069348 -0.146277
C12   C     C_3   0.945360 0.406346 0.598303 -0.447402
C13   C     C_R   0.569766 0.536815 0.925614 -0.150283
C14   C     C_R   0.426447 0.477748 0.931809 0.144984
C15   C     C_3   0.366757 0.369878 0.916723 -0.182056
C16   C     C_R   0.500432 0.739663 0.500275 0.889115
C17   C     C_3   0.382177 0.343396 0.067253 -0.158123
C18   C     C_R   0.661611 0.499729 0.498250 0.901905
C19   C     C_3   0.043305 0.409747 0.611192 -0.049639
C20   C     C_3   0.052275 0.455944 0.357223 -0.408021
C21   C     C_3   0.954388 0.461275 0.352085 -0.405239
C22   C     C_1   0.750353 0.499784 0.493844 -0.204775
C23   C     C_3   0.917026 0.502381 0.491874 0.299869
C24   C     C_3   0.082263 0.497555 0.499204 0.299898
C25   C     C_3   0.916545 0.743480 0.445502 -0.411241
C26   C     C_3   0.939019 0.872349 0.505225 -0.353150
C27   C     C_3   0.901121 0.977833 0.423341 -0.897682
C28   C     C_3   0.580919 0.126265 0.255924 -0.359786
C29   C     C_3   0.629636 0.042584 0.153714 -0.397932
C30   C     C_3   0.674583 0.120972 0.044574 -0.888446
C31   C     C_3   0.441148 0.883509 0.862323 -0.357121
C32   C     C_3   0.348517 0.923669 0.840691 -0.322570
C33   C     C_3   0.293890 0.905543 0.969067 -0.916795
C34   C     C_3   0.951540 0.635003 0.531605 -0.042171
C35   C     C_3   0.081812 0.276436 0.612015 -0.415573
C36   C     C_3   0.054819 0.203066 0.739387 -0.353747
C37   C     C_3   0.102722 0.079803 0.747034 -0.907085
C38   C     C_3   0.276008 0.412718 0.876821 -0.350476
C39   C     C_3   0.249466 0.541974 0.933965 -0.308635
C40   C     C_3   0.158949 0.574904 0.899221 -0.955644
C41   C     C_3   0.302789 0.320513 0.161079 -0.336761
C42   C     C_3   0.318747 0.221145 0.269289 -0.330051
C43   C     C_3   0.235926 0.171022 0.332088 -0.959076
C44   C     C_3   0.050159 0.632479 0.525309 -0.449227
C45   C     C_1   0.825603 0.500575 0.490968 -0.127068
C46   C     C_1   0.173916 0.499554 0.501594 -0.133782
C47   C     C_1   0.249261 0.500735 0.502986 -0.217452
C48   C     C_R   0.481613 0.066165 0.611320 0.061412
H1    H     H_    0.922943 0.311471 0.567946 0.181443
H2    H     H_    0.935170 0.526844 0.271799 0.164480
H3    H     H_    0.074631 0.670614 0.621806 0.146967
H4    H     H_    0.076006 0.693937 0.443320 0.184700
H5    H     H_    0.930864 0.653022 0.638715 0.139204
H6    H     H_    0.925894 0.974479 0.317107 0.259212
H7    H     H_    0.830683 0.969977 0.424076 0.260628
H8    H     H_    0.918943 0.069342 0.468639 0.245644
H9    H     H_    0.914234 0.879208 0.611371 0.218677
H10   H     H_    0.009050 0.885262 0.505596 0.221262
H11   H     H_    0.942147 0.737037 0.339825 0.206252
H12   H     H_    0.056853 0.452862 0.710721 0.150004
H13   H     H_    0.846200 0.736696 0.441814 0.208943
H14   H     H_    0.723087 0.182969 0.090418 0.261051
H15   H     H_    0.706758 0.058406 0.969529 0.245778
H16   H     H_    0.627900 0.179050 0.991164 0.262887
H17   H     H_    0.677886 0.986956 0.206780 0.227074
H18   H     H_    0.584722 0.978287 0.102646 0.215625
H19   H     H_    0.530856 0.174778 0.200091 0.212326
H20   H     H_    0.626894 0.196924 0.293902 0.215038
H21   H     H_    0.298942 0.808482 0.006578 0.261883
H22   H     H_    0.314764 0.971180 0.049437 0.264796
H23   H     H_    0.915005 0.427307 0.698939 0.147829
H24   H     H_    0.226363 0.924786 0.947416 0.253699
H25   H     H_    0.345140 0.023629 0.812117 0.219526
H26   H     H_    0.321415 0.866898 0.757339 0.220020
H27   H     H_    0.443257 0.779716 0.864063 0.204808
H28   H     H_    0.462084 0.917131 0.962930 0.197377
H29   H     H_    0.625971 0.567331 0.121264 0.150154
H30   H     H_    0.091554 0.022030 0.655370 0.261244
H31   H     H_    0.172029 0.097739 0.755490 0.259845
H32   H     H_    0.080168 0.026988 0.837536 0.245954
H33   H     H_    0.068437 0.259266 0.831512 0.213729
H34   H     H_    0.550598 0.876594 0.294231 0.167790
H35   H     H_    0.985519 0.182709 0.738612 0.223191
H36   H     H_    0.062737 0.223217 0.520537 0.211302
H37   H     H_    0.152241 0.283369 0.610579 0.213255
H38   H     H_    0.626702 0.564667 0.869902 0.154826
H39   H     H_    0.155627 0.587755 0.788558 0.266524
H40   H     H_    0.114012 0.500493 0.933703 0.255167
H41   H     H_    0.140864 0.664215 0.949751 0.255016
H42   H     H_    0.254618 0.545364 0.045414 0.212597
H43   H     H_    0.292093 0.615059 0.889884 0.228057
H44   H     H_    0.273405 0.415954 0.765586 0.223332
H45   H     H_    0.568855 0.882445 0.759948 0.152670
H46   H     H_    0.227673 0.340667 0.903100 0.181842
H47   H     H_    0.392359 0.296082 0.848055 0.154283
H48   H     H_    0.198622 0.249039 0.376551 0.264985
H49   H     H_    0.197809 0.122209 0.254471 0.266244
H50   H     H_    0.250113 0.103868 0.413589 0.259485
H51   H     H_    0.354628 0.140944 0.225010 0.214255
H52   H     H_    0.355664 0.262570 0.351564 0.255789
H53   H     H_    0.280829 0.408213 0.210426 0.212499
H54   H     H_    0.249870 0.283211 0.101404 0.209382
H55   H     H_    0.080499 0.517997 0.277729 0.173351
H56   H     H_    0.475580 0.123161 0.824456 0.193542
H57   H     H_    0.929206 0.367331 0.324039 0.170054
H58   H     H_    0.584419 0.102757 0.750143 0.188371
H59   H     H_    0.428914 0.266408 0.074255 0.134999
H60   H     H_    0.073808 0.359587 0.333060 0.167539
N1    N     N_R   0.499430 0.499140 0.142800 -0.111399
N2    N     N_R   0.499430 0.499180 0.857150 -0.116568
O1    O     O_R   0.500010 0.316790 0.614690 -0.610611
O2    O     O_R   0.500000 0.316760 0.385350 -0.645077
O3    O     O_R   0.377150 0.500020 0.614720 -0.620773
O4    O     O_R   0.377140 0.499990 0.385380 -0.617411
O5    O     O_R   0.500000 0.683240 0.614650 -0.624442
O6    O     O_R   0.499990 0.683210 0.385310 -0.620921
O7    O     O_R   0.622860 0.500010 0.614620 -0.621422
O8    O     O_R   0.622850 0.499980 0.385280 -0.624469
Zn1   Zn    Zn3+2 0.500010 0.500020 0.653130 0.926082
Zn2   Zn    Zn3+2 0.499990 0.499980 0.346870 0.925761

loop_
_geom_bond_atom_site_label_1
_geom_bond_atom_site_label_2
_ccdc_geom_bond_type
C1    O1    A    
C23   C45   S    
C30   H16   S    
C11   N1    A    
C11   C13   A    
C41   C42   S    
C35   C36   S    
C43   H50   S    
C12   H1    S    
C27   H6    S    
C7    C8    S    
C20   H55   S    
C21   H57   S    
C37   H31   S    
C12   C23   S    
C28   C29   S    
C26   C27   S    
C13   N2    A    
C40   H39   S    
C4    O4    A    
C36   C37   S    
C28   H20   S    
C17   H59   S    
C1    O2    A    
C15   H47   S    
C38   C39   S    
C27   H7    S    
C36   H35   S    
C38   H44   S    
C41   H54   S    
C10   N1    A    
O1    Zn1   S    
C1    C2    S    
C11   H29   S    
C33   H24   S    
O3    Zn1   S    
C20   C24   S    
C8    C9    S    
C13   H38   S    
C40   H41   S    
C18   O8    A    
C39   H42   S    
C33   H21   S    
C25   C34   S    
C44   H4    S    
C30   H15   S    
C16   O6    A    
C39   H43   S    
C21   H2    S    
C17   C41   S    
C37   H32   S    
C30   H14   S    
C4    O3    A    
C28   H19   S    
C34   C44   S    
C10   C14   A    
C39   C40   S    
O2    Zn2   S    
C27   H8    S    
C2    C48   A    
C9    H58   S    
O6    Zn2   S    
C15   C38   S    
C29   C30   S    
C42   H52   S    
C31   H27   S    
C31   C32   S    
C36   H33   S    
C23   C34   S    
C38   H46   S    
C43   H48   S    
C25   H13   S    
C26   H10   S    
C18   O7    A    
C33   H22   S    
C9    C48   S    
C29   H17   S    
C44   H3    S    
C12   H23   S    
O5    Zn1   S    
C21   C23   S    
C24   C44   S    
C42   C43   S    
C16   O5    A    
C32   H25   S    
C15   C17   S    
C46   C47   T    
C3    C28   S    
C18   C22   S    
C8    C31   S    
C8    H45   S    
C43   H49   S    
C3    C5    A    
N2    Zn1   S    
C35   H36   S    
C6    C7    A    
C19   H12   S    
C25   H11   S    
C37   H30   S    
C24   C46   S    
C32   C33   S    
C40   H40   S    
O7    Zn1   S    
C2    C3    A    
C25   C26   S    
C19   C35   S    
C42   H51   S    
C7    C48   A    
C32   H26   S    
C5    H34   S    
C35   H37   S    
C31   H28   S    
C5    C6    A    
C9    H56   S    
C14   N2    A    
C12   C19   S    
C41   H53   S    
C19   C24   S    
C26   H9    S    
O8    Zn2   S    
C6    C16   S    
C29   H18   S    
C22   C45   T    
C20   C21   S    
C34   H5    S    
C14   C15   S    
C10   C17   S    
O4    Zn2   S    
N1    Zn2   S    
C20   H60   S    
C4    C47   S    
