data_mof_unit_50076.cif
_audit_creation_date              2012-12-11T20:51:14-0500
_audit_creation_method            fapswitch 2.2
_symmetry_space_group_name_H-M    P1
_symmetry_Int_Tables_number       1
_space_group_crystal_system       triclinic
_cell_length_a                    30.412191
_cell_length_b                    34.231315
_cell_length_c                    8.449554
_cell_angle_alpha                 90.0
_cell_angle_beta                  89.992011
_cell_angle_gamma                 89.908448
_cell_volume                      8796.39087705

loop_
_atom_site_label
_atom_site_type_symbol
_atom_type_description
_atom_site_fract_x
_atom_site_fract_y
_atom_site_fract_z
_atom_type_partial_charge
Ba1   Ba    Ba6+2 0.999930 0.472870 0.844940 1.744997
Ba2   Ba    Ba6+2 0.999930 0.527130 0.344940 1.740620
Ba3   Ba    Ba6+2 0.499930 0.972870 0.844940 1.745649
Ba4   Ba    Ba6+2 0.499930 0.027130 0.344940 1.745889
Br1   Br    Br    0.251197 0.513725 0.086351 -0.468809
Br2   Br    Br    0.993608 0.758421 0.085044 -0.425521
Br3   Br    Br    0.485862 0.745372 0.581578 -0.426820
Br4   Br    Br    0.485780 0.247817 0.973452 -0.453516
Br5   Br    Br    0.017066 0.248627 0.140978 -0.422226
Br6   Br    Br    0.025887 0.749137 0.641331 -0.425958
Br7   Br    Br    0.517114 0.748633 0.140900 -0.422396
Br8   Br    Br    0.542271 0.258526 0.511424 -0.440157
Br9   Br    Br    0.175023 0.454402 0.956132 -0.578550
Br10  Br    Br    0.175163 0.545060 0.448210 -0.478827
Br11  Br    Br    0.675022 0.954510 0.955567 -0.579393
Br12  Br    Br    0.261927 0.491231 0.494510 -0.437357
Br13  Br    Br    0.675781 0.044542 0.446898 -0.475502
Br14  Br    Br    0.751027 0.013817 0.087801 -0.467570
Br15  Br    Br    0.762011 0.990137 0.495167 -0.435372
Br16  Br    Br    0.816876 0.562668 0.234899 -0.587110
Br17  Br    Br    0.814149 0.442905 0.741642 -0.570305
Br18  Br    Br    0.317059 0.063165 0.234173 -0.591892
Br19  Br    Br    0.314208 0.942853 0.741268 -0.572145
Br20  Br    Br    0.985935 0.245397 0.581622 -0.426819
C1    C     C_3   0.027567 0.285164 0.646331 0.133862
C2    C     C_R   0.201853 0.326582 0.590496 0.585834
C3    C     C_R   0.402588 0.086951 0.693339 0.024758
C4    C     C_R   0.869486 0.386186 0.162594 -0.114447
C5    C     C_R   0.870758 0.615105 0.651234 -0.096948
C6    C     C_R   0.369478 0.886153 0.162422 -0.114518
C7    C     C_R   0.370213 0.114766 0.652193 -0.085834
C8    C     C_R   0.865715 0.349583 0.242986 0.165639
C9    C     C_R   0.859935 0.647114 0.751491 0.187160
C10   C     C_R   0.365621 0.849568 0.242956 0.165488
C11   C     C_R   0.359052 0.146510 0.753297 0.187539
C12   C     C_2   0.081987 0.588834 0.851753 -0.211864
C13   C     C_R   0.690343 0.179802 0.139985 0.591695
C14   C     C_2   0.083803 0.410479 0.351383 -0.242818
C15   C     C_2   0.581695 0.088930 0.852752 -0.197500
C16   C     C_2   0.583651 0.910417 0.351605 -0.242729
C17   C     C_3   0.158386 0.508550 0.990024 0.483986
C18   C     C_3   0.161962 0.490896 0.497487 0.488276
C19   C     C_3   0.658372 0.008617 0.989706 0.485256
C20   C     C_3   0.662019 0.990529 0.496703 0.489819
C21   C     C_3   0.197645 0.537409 0.001514 0.519365
C22   C     C_3   0.204472 0.467714 0.541330 0.478467
C23   C     C_3   0.697667 0.037434 0.001136 0.520832
C24   C     C_R   0.701824 0.826698 0.590807 0.586847
C25   C     C_3   0.704278 0.966947 0.540147 0.477780
C26   C     C_3   0.873044 0.524496 0.012714 0.364341
C27   C     C_3   0.876791 0.473527 0.522956 0.375447
C28   C     C_3   0.372418 0.024155 0.011767 0.364011
C29   C     C_3   0.376988 0.973421 0.522994 0.374086
C30   C     C_3   0.831874 0.549885 0.018032 0.058620
C31   C     C_3   0.836961 0.446675 0.527709 0.074193
C32   C     C_3   0.331049 0.049286 0.017549 0.055408
C33   C     C_3   0.337188 0.946532 0.527538 0.073927
C34   C     C_3   0.009934 0.325840 0.610300 0.312891
C35   C     C_R   0.176773 0.713748 0.896334 0.607913
C36   C     C_3   0.002210 0.675733 0.048406 0.309583
C37   C     C_3   0.509907 0.825811 0.609966 0.313007
C38   C     C_3   0.508485 0.169690 0.060824 0.367675
C39   C     C_R   0.932469 0.405835 0.310874 -0.298107
C40   C     C_R   0.926855 0.591694 0.824541 -0.311058
C41   C     C_R   0.432516 0.905744 0.310576 -0.298299
C42   C     C_R   0.425943 0.091102 0.826427 -0.314687
C43   C     C_3   0.230433 0.588688 0.864829 0.275271
C44   C     C_3   0.238887 0.606054 0.701237 -0.144627
C45   C     C_3   0.267761 0.642404 0.711899 -0.485582
C46   C     C_R   0.157105 0.276943 0.472573 0.600308
C47   C     C_3   0.208799 0.423653 0.327291 0.278836
C48   C     C_3   0.248663 0.397238 0.297223 -0.145699
C49   C     C_3   0.256729 0.391100 0.120600 -0.423554
C50   C     C_3   0.730908 0.088345 0.863598 0.275896
C51   C     C_3   0.739428 0.105532 0.699749 -0.144384
C52   C     C_3   0.768365 0.141852 0.709894 -0.486008
C53   C     C_3   0.708460 0.923277 0.324754 0.277167
C54   C     C_3   0.747884 0.896381 0.294622 -0.146329
C55   C     C_3   0.756247 0.890523 0.118157 -0.423492
C56   C     C_3   0.743159 0.348945 0.716104 0.316515
C57   C     C_R   0.677342 0.213398 0.896048 0.606575
C58   C     C_3   0.746376 0.364719 0.547258 -0.140853
C59   C     C_3   0.714950 0.398869 0.520459 -0.479311
C60   C     C_3   0.710251 0.634654 0.323378 0.292820
C61   C     C_3   0.698075 0.592391 0.285594 -0.142333
C62   C     C_3   0.700830 0.584279 0.108119 -0.437976
C63   C     C_3   0.243042 0.849087 0.716123 0.317047
C64   C     C_3   0.246307 0.864829 0.547238 -0.140911
C65   C     C_3   0.214964 0.899034 0.520323 -0.480168
C66   C     C_3   0.209802 0.134576 0.323052 0.292962
C67   C     C_3   0.197939 0.092254 0.285059 -0.142086
C68   C     C_R   0.657237 0.776968 0.472763 0.600049
C69   C     C_3   0.200808 0.084200 0.107563 -0.438704
C70   C     C_R   0.211908 0.739482 0.929448 -0.078362
C71   C     C_R   0.188682 0.248123 0.513683 -0.079063
C72   C     C_R   0.712406 0.239203 0.929111 -0.077442
C73   C     C_3   0.029643 0.711621 0.087707 0.133581
C74   C     C_R   0.688930 0.748229 0.513698 -0.078883
C75   C     C_R   0.232025 0.738535 0.078223 -0.054437
C76   C     C_R   0.228191 0.259304 0.586805 -0.051923
C77   C     C_R   0.732558 0.238263 0.077819 -0.054517
C78   C     C_R   0.728444 0.759517 0.586501 -0.052332
C79   C     C_R   0.236536 0.711350 0.341903 -0.057643
C80   C     C_R   0.275044 0.310104 0.693813 -0.078899
C81   C     C_R   0.737250 0.210970 0.341287 -0.055225
C82   C     C_R   0.775161 0.810444 0.693264 -0.078941
C83   C     C_R   0.766922 0.240184 0.384771 -0.062949
C84   C     C_3   0.527541 0.785133 0.645953 0.133644
C85   C     C_R   0.808077 0.783063 0.723607 -0.055289
C86   C     C_R   0.266390 0.740446 0.385178 -0.063601
C87   C     C_R   0.307812 0.282616 0.724695 -0.056443
C88   C     C_R   0.781819 0.267737 0.273095 -0.005359
C89   C     C_R   0.801482 0.743212 0.690656 -0.008741
C90   C     C_R   0.281433 0.767906 0.273365 -0.005483
C91   C     C_R   0.301080 0.242781 0.691809 -0.012159
C92   C     C_R   0.765271 0.266249 0.118004 -0.104433
C93   C     C_R   0.761220 0.731188 0.624134 -0.106109
C94   C     C_R   0.264871 0.766428 0.118292 -0.104450
C95   C     C_3   0.527895 0.210646 0.057637 0.117889
C96   C     C_R   0.260826 0.230877 0.624813 -0.105735
C97   C     C_R   0.226473 0.766913 0.817538 -0.123911
C98   C     C_R   0.181609 0.208315 0.482322 -0.107424
C99   C     C_R   0.726846 0.266708 0.817294 -0.123616
C100  C     C_R   0.681971 0.708397 0.482495 -0.107175
C101  C     C_3   0.991292 0.327708 0.083465 0.328857
C102  C     C_3   0.995974 0.673078 0.553809 0.345175
C103  C     C_3   0.491282 0.827685 0.083114 0.328884
C104  C     C_3   0.508918 0.182615 0.583336 0.302268
C105  C     C_R   0.760723 0.293228 0.852372 0.429810
C106  C     C_R   0.219089 0.709952 0.187758 0.001947
C107  C     C_R   0.713868 0.680016 0.519810 0.414253
C108  C     C_R   0.260435 0.793354 0.852557 0.430254
C109  C     C_R   0.213385 0.179847 0.519819 0.414353
C110  C     C_R   0.781126 0.292655 0.003510 -0.085234
C111  C     C_R   0.753694 0.691113 0.595290 -0.085739
C112  C     C_R   0.280833 0.792762 0.003707 -0.085550
C113  C     C_R   0.253178 0.190825 0.595781 -0.085103
C114  C     C_R   0.816994 0.317368 0.043431 0.615056
C115  C     C_R   0.786056 0.663476 0.643802 0.617881
C116  C     C_R   0.316787 0.817400 0.043545 0.615093
C117  C     C_R   0.235001 0.298874 0.623993 -0.023822
C118  C     C_R   0.285404 0.163091 0.644509 0.616535
C119  C     C_R   0.812213 0.297113 0.314591 0.580220
C120  C     C_R   0.834443 0.715304 0.722860 0.586485
C121  C     C_R   0.311976 0.797188 0.314736 0.580264
C122  C     C_R   0.333892 0.214764 0.724493 0.591539
C123  C     C_2   0.115476 0.648946 0.797178 -0.055576
C124  C     C_2   0.109888 0.345799 0.313395 -0.079611
C125  C     C_2   0.615807 0.148727 0.797565 -0.065463
C126  C     C_2   0.609841 0.845762 0.313588 -0.080152
C127  C     C_3   0.076489 0.625925 0.777913 -0.062355
C128  C     C_R   0.719812 0.209572 0.187140 0.003375
C129  C     C_3   0.074509 0.373036 0.285145 -0.063877
C130  C     C_3   0.576527 0.126035 0.778804 -0.099973
C131  C     C_3   0.574432 0.872972 0.285251 -0.064077
C132  C     C_1   0.097553 0.587809 0.004810 -0.057164
C133  C     C_1   0.099119 0.412522 0.504507 -0.029343
C134  C     C_1   0.597720 0.087731 0.005053 -0.064261
C135  C     C_1   0.598982 0.912470 0.504698 -0.028688
C136  C     C_2   0.117666 0.621185 0.064753 -0.101691
C137  C     C_2   0.120945 0.380449 0.567531 -0.056230
C138  C     C_2   0.618479 0.120767 0.064832 -0.110372
C139  C     C_R   0.735114 0.799096 0.623811 -0.024408
C140  C     C_2   0.620753 0.880381 0.567844 -0.055538
C141  C     C_2   0.133852 0.652346 0.951815 0.142895
C142  C     C_2   0.131335 0.346036 0.463206 0.167649
C143  C     C_2   0.634496 0.151969 0.951812 0.148714
C144  C     C_2   0.631249 0.846004 0.463485 0.168648
C145  C     C_R   0.894638 0.342041 0.362175 -0.073705
C146  C     C_R   0.881029 0.650724 0.892385 -0.070065
C147  C     C_R   0.394532 0.842021 0.362206 -0.073490
C148  C     C_R   0.379723 0.149824 0.895103 -0.059826
C149  C     C_3   0.974681 0.286130 0.060979 0.147055
C150  C     C_R   0.189414 0.680299 0.140842 0.588644
C151  C     C_3   0.983870 0.715930 0.533521 0.133615
C152  C     C_3   0.474716 0.786093 0.060661 0.146926
C153  C     C_3   0.493896 0.221651 0.515810 0.141766
C154  C     C_R   0.925865 0.372236 0.414778 -0.067775
C155  C     C_R   0.916468 0.623217 0.935693 -0.048140
C156  C     C_R   0.425841 0.872185 0.414650 -0.068162
C157  C     C_R   0.414961 0.122144 0.938801 -0.029103
C158  C     C_R   0.904322 0.412527 0.192084 0.026258
C159  C     C_R   0.903043 0.587218 0.692548 0.020099
C160  C     C_R   0.404365 0.912464 0.191829 0.027254
H1    H     H_    0.034519 0.347657 0.650933 -0.009217
H2    H     H_    0.888740 0.475555 0.399666 -0.060589
H3    H     H_    0.213166 0.451663 0.263263 0.132434
H4    H     H_    0.179111 0.409418 0.277243 0.069778
H5    H     H_    0.278485 0.410445 0.351370 0.185292
H6    H     H_    0.243182 0.368257 0.352731 0.131900
H7    H     H_    0.227307 0.377850 0.063770 0.169094
H8    H     H_    0.264467 0.419380 0.062229 0.223705
H9    H     H_    0.285097 0.371036 0.103956 0.141568
H10   H     H_    0.763203 0.082829 0.921193 0.126598
H11   H     H_    0.712467 0.110295 0.934211 0.041864
H12   H     H_    0.756168 0.083358 0.624785 0.214615
H13   H     H_    0.381447 0.019407 0.886429 -0.026818
H14   H     H_    0.707611 0.113531 0.643628 0.166162
H15   H     H_    0.751129 0.165410 0.775661 0.124138
H16   H     H_    0.776069 0.152402 0.588949 0.163730
H17   H     H_    0.799840 0.134948 0.770498 0.170121
H18   H     H_    0.713433 0.951336 0.261855 0.134077
H19   H     H_    0.678619 0.909557 0.273701 0.070819
H20   H     H_    0.777777 0.909011 0.350005 0.185422
H21   H     H_    0.741754 0.867404 0.348760 0.130382
H22   H     H_    0.726816 0.877704 0.060249 0.169932
H23   H     H_    0.764437 0.918804 0.061055 0.223091
H24   H     H_    0.389054 0.975406 0.399854 -0.060229
H25   H     H_    0.784380 0.870222 0.101445 0.141659
H26   H     H_    0.750511 0.372731 0.801673 0.102989
H27   H     H_    0.708553 0.339235 0.735636 0.005281
H28   H     H_    0.780559 0.374411 0.523356 0.175257
H29   H     H_    0.738146 0.341005 0.462487 0.119993
H30   H     H_    0.680391 0.389284 0.537390 0.161654
H31   H     H_    0.718782 0.409901 0.397653 0.152532
H32   H     H_    0.722261 0.423039 0.603970 0.184000
H33   H     H_    0.745124 0.639698 0.288235 0.075968
H34   H     H_    0.688454 0.654175 0.252596 0.023819
H35   H     H_    0.899946 0.539622 0.077181 0.034825
H36   H     H_    0.720653 0.572332 0.349671 0.189140
H37   H     H_    0.663979 0.586560 0.326622 0.142723
H38   H     H_    0.676420 0.602398 0.043347 0.154763
H39   H     H_    0.693614 0.552997 0.085302 0.165949
H40   H     H_    0.734240 0.590944 0.062603 0.173558
H41   H     H_    0.250461 0.872868 0.801637 0.103136
H42   H     H_    0.208407 0.839462 0.735671 0.003779
H43   H     H_    0.280515 0.874452 0.523330 0.175572
H44   H     H_    0.238022 0.841118 0.462525 0.118709
H45   H     H_    0.180381 0.889515 0.537214 0.160266
H46   H     H_    0.902822 0.460717 0.599161 0.052087
H47   H     H_    0.218838 0.910045 0.397503 0.152471
H48   H     H_    0.222319 0.923200 0.603802 0.184427
H49   H     H_    0.244650 0.139815 0.288034 0.075270
H50   H     H_    0.187887 0.153999 0.252305 0.024330
H51   H     H_    0.220647 0.072310 0.349137 0.189182
H52   H     H_    0.163875 0.086217 0.325935 0.142843
H53   H     H_    0.176285 0.102192 0.042765 0.154999
H54   H     H_    0.193831 0.052882 0.084595 0.165764
H55   H     H_    0.234181 0.091070 0.062204 0.173495
H56   H     H_    0.399375 0.039550 0.074863 0.028485
H57   H     H_    0.402966 0.960684 0.599619 0.052841
H58   H     H_    0.803896 0.534246 0.962308 0.131275
H59   H     H_    0.810795 0.458098 0.448465 0.099868
H60   H     H_    0.302928 0.033156 0.965142 0.133171
H61   H     H_    0.025105 0.650586 0.035850 -0.072526
H62   H     H_    0.311072 0.957890 0.447923 0.099596
H63   H     H_    0.837342 0.577407 0.952261 0.016108
H64   H     H_    0.846426 0.417042 0.487178 0.003371
H65   H     H_    0.335898 0.076462 0.948875 0.013425
H66   H     H_    0.346709 0.916885 0.487374 0.003955
H67   H     H_    0.005834 0.328218 0.480058 -0.034528
H68   H     H_    0.984895 0.681109 0.935062 0.030722
H69   H     H_    0.505755 0.828177 0.479741 -0.034433
H70   H     H_    0.500558 0.161014 0.937238 -0.102479
H71   H     H_    0.058716 0.280594 0.581345 0.097040
H72   H     H_    0.534514 0.847624 0.650441 -0.009621
H73   H     H_    0.056098 0.714942 0.998085 0.077950
H74   H     H_    0.558653 0.780546 0.580750 0.097293
H75   H     H_    0.557655 0.210883 0.981454 0.050307
H76   H     H_    0.034464 0.282015 0.774427 0.113339
H77   H     H_    0.045145 0.708219 0.205874 0.100560
H78   H     H_    0.534505 0.781998 0.774011 0.113233
H79   H     H_    0.537583 0.219622 0.178815 0.122120
H80   H     H_    0.943284 0.282392 0.126400 0.039691
H81   H     H_    0.950675 0.721281 0.583851 0.084042
H82   H     H_    0.443305 0.782342 0.125982 0.039959
H83   H     H_    0.533707 0.149555 0.109732 -0.015304
H84   H     H_    0.467342 0.233869 0.591388 0.106051
H85   H     H_    0.211983 0.767700 0.700381 0.130088
H86   H     H_    0.151109 0.198881 0.428310 0.156734
H87   H     H_    0.712333 0.267487 0.700172 0.132150
H88   H     H_    0.651463 0.698875 0.428804 0.156556
H89   H     H_    0.778927 0.240562 0.505480 0.130696
H90   H     H_    0.838568 0.793196 0.775508 0.145809
H91   H     H_    0.278401 0.740813 0.505878 0.131000
H92   H     H_    0.338300 0.292656 0.776918 0.145606
H93   H     H_    0.895665 0.314248 0.422522 0.159898
H94   H     H_    0.187796 0.560736 0.086496 0.030794
H95   H     H_    0.872249 0.673616 0.974942 0.120447
H96   H     H_    0.395498 0.814250 0.422716 0.160130
H97   H     H_    0.370799 0.172633 0.977849 0.120588
H98   H     H_    0.226259 0.690484 0.430699 0.122975
H99   H     H_    0.281469 0.340378 0.723088 0.139733
H100  H     H_    0.727080 0.190024 0.429930 0.122847
H101  H     H_    0.781481 0.840732 0.722611 0.140204
H102  H     H_    0.113058 0.628123 0.188147 0.175695
H103  H     H_    0.131387 0.380786 0.689962 0.170144
H104  H     H_    0.614706 0.127287 0.189110 0.176833
H105  H     H_    0.206365 0.467204 0.670858 0.160822
H106  H     H_    0.631152 0.880710 0.690314 0.169660
H107  H     H_    0.130440 0.661785 0.693437 0.152869
H108  H     H_    0.118983 0.324762 0.223015 0.134361
H109  H     H_    0.630722 0.161509 0.693619 0.155147
H110  H     H_    0.618997 0.824749 0.223193 0.134215
H111  H     H_    0.845357 0.394648 0.075153 0.152035
H112  H     H_    0.853593 0.611497 0.540103 0.162135
H113  H     H_    0.345354 0.894639 0.075002 0.152106
H114  H     H_    0.353289 0.111355 0.540475 0.160300
H115  H     H_    0.958214 0.426484 0.338869 0.074634
H116  H     H_    0.687736 0.060919 0.085238 0.030491
H117  H     H_    0.951597 0.570410 0.857003 0.073209
H118  H     H_    0.458284 0.926373 0.338532 0.074382
H119  H     H_    0.450767 0.069873 0.858696 0.070463
H120  H     H_    0.077979 0.561956 0.784759 0.075485
H121  H     H_    0.082869 0.436635 0.278484 0.080217
H122  H     H_    0.577298 0.062076 0.785894 0.075979
H123  H     H_    0.582657 0.936582 0.278768 0.079755
H124  H     H_    0.966691 0.348134 0.031835 0.030115
H125  H     H_    0.971492 0.654975 0.489536 0.043155
H126  H     H_    0.466678 0.848091 0.031373 0.030365
H127  H     H_    0.706023 0.966094 0.669599 0.160699
H128  H     H_    0.479658 0.163261 0.594862 -0.027976
H129  H     H_    0.993680 0.333055 0.212826 -0.063184
H130  H     H_    0.993839 0.666082 0.681795 -0.098161
H131  H     H_    0.493628 0.833046 0.212478 -0.063261
H132  H     H_    0.523187 0.188396 0.702002 0.023297
H133  H     H_    0.968409 0.280248 0.934003 0.124904
H134  H     H_    0.983273 0.723626 0.406280 0.130756
H135  H     H_    0.468483 0.780189 0.933679 0.125025
H136  H     H_    0.480756 0.217733 0.394477 0.113878
H137  H     H_    0.138160 0.516564 0.886187 0.034551
H138  H     H_    0.882392 0.519991 0.887548 -0.030235
H139  H     H_    0.146393 0.478437 0.390261 -0.016071
H140  H     H_    0.638130 0.016655 0.885893 0.033864
H141  H     H_    0.646256 0.978204 0.389593 -0.016173
H142  H     H_    0.262747 0.583263 0.922445 0.126771
H143  H     H_    0.211849 0.610488 0.935732 0.041031
H144  H     H_    0.255651 0.583984 0.625846 0.214813
H145  H     H_    0.207043 0.614060 0.645337 0.164560
H146  H     H_    0.250568 0.665820 0.778586 0.123950
H147  H     H_    0.275291 0.653172 0.591136 0.163288
H148  H     H_    0.299321 0.635448 0.771800 0.170293
N1    N     N_R   0.167132 0.682251 0.996100 -0.427537
N2    N     N_R   0.163850 0.316140 0.509092 -0.430294
N3    N     N_R   0.667862 0.181828 0.995659 -0.427153
N4    N     N_R   0.663851 0.816178 0.509367 -0.430475
N5    N     N_R   0.831290 0.321035 0.199787 -0.438924
N6    N     N_R   0.826307 0.675631 0.704773 -0.435568
N7    N     N_R   0.331117 0.821061 0.199873 -0.438814
N8    N     N_R   0.325602 0.175128 0.706219 -0.436547
O1    O     O_2   0.914200 0.445720 0.903420 -0.434294
O2    O     O_3   0.038307 0.666170 0.492093 -0.576211
O3    O     O_3   0.532204 0.832489 0.007224 -0.586334
O4    O     O_3   0.540490 0.165592 0.482919 -0.576719
O5    O     O_3   0.049930 0.518940 0.045960 -0.473939
O6    O     O_3   0.049930 0.481060 0.545960 -0.470124
O7    O     O_3   0.549930 0.018940 0.045960 -0.474477
O8    O     O_3   0.549930 0.981060 0.545960 -0.470370
O9    O     O_2   0.184210 0.652590 0.229537 -0.579105
O10   O     O_2   0.207359 0.360209 0.633240 -0.541624
O11   O     O_2   0.685532 0.151913 0.228025 -0.579643
O12   O     O_2   0.914200 0.554280 0.403420 -0.424547
O13   O     O_2   0.707185 0.860307 0.633994 -0.541201
O14   O     O_2   0.154224 0.720492 0.780235 -0.570390
O15   O     O_2   0.123389 0.266867 0.405720 -0.565300
O16   O     O_2   0.654710 0.220146 0.780161 -0.572590
O17   O     O_2   0.623538 0.766810 0.405996 -0.565307
O18   O     O_2   0.836134 0.334729 0.937814 -0.502822
O19   O     O_2   0.778010 0.628614 0.634668 -0.532726
O20   O     O_2   0.335968 0.834700 0.937862 -0.502745
O21   O     O_2   0.277303 0.128247 0.634832 -0.533087
O22   O     O_2   0.821063 0.301600 0.454237 -0.544683
O23   O     O_2   0.414200 0.945720 0.903420 -0.435234
O24   O     O_2   0.870666 0.726449 0.766164 -0.575912
O25   O     O_2   0.320892 0.801641 0.454344 -0.544661
O26   O     O_2   0.370126 0.225770 0.768294 -0.563362
O27   O     O_3   0.950020 0.480960 0.143730 -0.502509
O28   O     O_3   0.950020 0.519040 0.643730 -0.511078
O29   O     O_3   0.450020 0.980960 0.143730 -0.502045
O30   O     O_3   0.450020 0.019040 0.643730 -0.511737
O31   O     O_3   0.985090 0.412220 0.642040 -0.507741
O32   O     O_3   0.985090 0.587780 0.142040 -0.486724
O33   O     O_3   0.485090 0.912220 0.642040 -0.507823
O34   O     O_2   0.414200 0.054280 0.403420 -0.424408
O35   O     O_3   0.485090 0.087780 0.142040 -0.497549
O36   O     O_2   0.908285 0.383609 0.735774 -0.397483
O37   O     O_2   0.912568 0.619274 0.266530 -0.455658
O38   O     O_2   0.408289 0.883580 0.735711 -0.397656
O39   O     O_2   0.413430 0.120262 0.271828 -0.450469
O40   O     O_3   0.863457 0.488518 0.082623 -0.597464
O41   O     O_3   0.864237 0.510629 0.576260 -0.584414
O42   O     O_3   0.363298 0.988307 0.083365 -0.598309
O43   O     O_3   0.364320 0.010530 0.575816 -0.585866
O44   O     O_3   0.969867 0.331575 0.690010 -0.573717
O45   O     O_3   0.132776 0.492141 0.627681 -0.622473
O46   O     O_3   0.971432 0.668874 0.169152 -0.587725
O47   O     O_3   0.469876 0.831568 0.689882 -0.573664
O48   O     O_3   0.470878 0.169049 0.157539 -0.572494
O49   O     O_2   0.085560 0.445380 0.786390 -0.413653
O50   O     O_2   0.085560 0.554620 0.286390 -0.397440
O51   O     O_2   0.585560 0.945380 0.786390 -0.414209
O52   O     O_2   0.585560 0.054620 0.286390 -0.397085
O53   O     O_3   0.014550 0.412170 0.047860 -0.481029
O54   O     O_3   0.014550 0.587830 0.547860 -0.490909
O55   O     O_3   0.514550 0.912170 0.047860 -0.481022
O56   O     O_3   0.133387 0.508830 0.129738 -0.632502
O57   O     O_3   0.514550 0.087830 0.547860 -0.477258
O58   O     O_2   0.093143 0.385047 0.959359 -0.451542
O59   O     O_2   0.095842 0.610038 0.462731 -0.426892
O60   O     O_2   0.593171 0.885067 0.959618 -0.451909
O61   O     O_2   0.596577 0.108284 0.468243 -0.421015
O62   O     O_3   0.206394 0.553450 0.849955 -0.646961
O63   O     O_3   0.202346 0.428261 0.492208 -0.642188
O64   O     O_3   0.706677 0.053195 0.849297 -0.645857
O65   O     O_3   0.701832 0.927629 0.489632 -0.643571
O66   O     O_3   0.774547 0.318747 0.735675 -0.567104
O67   O     O_3   0.632888 0.992050 0.627062 -0.622007
O68   O     O_3   0.704926 0.641195 0.487461 -0.597037
O69   O     O_3   0.274339 0.818817 0.735783 -0.567179
O70   O     O_3   0.204364 0.141058 0.487126 -0.596955
O71   O     O_3   0.633412 0.008855 0.129540 -0.631884
O72   O     O_3   0.032200 0.332489 0.007460 -0.586440
P1    P     P_3+3 0.909970 0.458430 0.077330 1.031939
P2    P     P_3+3 0.057010 0.621854 0.569686 1.017857
P3    P     P_3+3 0.554959 0.876284 0.074730 0.999567
P4    P     P_3+3 0.557323 0.121694 0.569953 1.011878
P5    P     P_3+3 0.945187 0.624607 0.127888 0.978191
P6    P     P_3+3 0.946469 0.374870 0.619958 1.007504
P7    P     P_3+3 0.444722 0.124220 0.128456 1.004511
P8    P     P_3+3 0.446469 0.874861 0.619848 1.007047
P9    P     P_3+3 0.909970 0.541570 0.577330 1.037207
P10   P     P_3+3 0.409970 0.958430 0.077330 1.031298
P11   P     P_3+3 0.409970 0.041570 0.577330 1.039168
P12   P     P_3+3 0.089830 0.458070 0.612460 1.044110
P13   P     P_3+3 0.089830 0.541930 0.112460 1.031773
P14   P     P_3+3 0.589830 0.958070 0.612460 1.043661
P15   P     P_3+3 0.589830 0.041930 0.112460 1.029519
P16   P     P_3+3 0.054973 0.376302 0.074698 0.999789

loop_
_geom_bond_atom_site_label_1
_geom_bond_atom_site_label_2
_ccdc_geom_bond_type
C150  N1    Am   
C50   H10   S    
C109  C113  A    
Ba2   O5    S    
C83   C88   A    
C30   H63   S    
C112  C116  A    
Br14  C23   S    
C20   H141  S    
C123  H107  S    
C106  C150  A    
C111  C115  A    
C68   O17   D    
C45   H148  S    
C30   H58   S    
O58   P16   D    
C64   H43   S    
C120  O24   D    
C5    C9    A    
C103  H126  S    
C102  H125  S    
C1    H76   S    
C78   C139  A    
Ba3   P14   S    
C84   H78   S    
C142  N2    S    
C16   H123  S    
O45   P12   S    
C73   H77   S    
O23   P10   D    
C53   H18   S    
C27   H46   S    
C11   C148  D    
O1    P1    D    
C156  P8    S    
C9    C146  D    
C5    H112  S    
C45   H147  S    
C43   H143  S    
O33   P8    S    
C29   O43   S    
C42   H119  S    
C15   C130  A    
C3    C7    A    
C126  H110  S    
Br2   C73   S    
C140  C144  S    
Br16  C30   S    
Br17  C31   S    
O61   P4    D    
C37   O47   S    
Br18  C32   S    
C102  O2    S    
C74   C78   A    
C122  N8    Am   
C51   C52   S    
C46   N2    Am   
Br15  C25   S    
C126  C144  A    
C32   H65   S    
C35   N1    Am   
C14   H121  S    
C82   C139  A    
C65   H47   S    
C24   O13   D    
C38   C95   S    
C60   H34   S    
C71   C98   A    
C50   O64   S    
C155  P5    S    
C115  N6    Am   
C134  P15   S    
O49   P12   D    
C124  C129  A    
C93   C111  A    
C132  P13   S    
C102  H130  S    
C94   C112  A    
C13   O11   D    
C56   H26   S    
C51   H14   S    
C103  C152  S    
C152  H135  S    
C37   H69   S    
C40   H117  S    
C14   C133  A    
C47   H3    S    
C48   C49   S    
O42   P10   S    
Ba4   O35   S    
C41   C156  S    
C66   O70   S    
C89   C120  A    
Ba4   O52   S    
O31   P6    S    
C23   H116  S    
O27   P1    S    
C54   H21   S    
C3    C42   D    
C140  H106  S    
C101  H124  S    
C55   H23   S    
C27   C31   S    
Ba1   O1    S    
C83   H89   S    
C79   C106  A    
O48   P7    S    
C20   O67   S    
C21   O62   S    
C27   O41   S    
C64   C65   S    
Ba3   P10   S    
C36   O46   S    
Ba4   O57   S    
C17   C21   S    
C80   C117  A    
Ba3   O23   S    
C44   H145  S    
C19   C23   S    
C10   C147  D    
C121  O25   D    
C103  H131  S    
C113  C118  A    
C82   H101  S    
C16   C135  A    
O41   P9    S    
C22   O63   S    
C43   O62   S    
C59   H32   S    
C125  H109  S    
C61   C62   S    
C74   C100  A    
C81   C83   A    
C91   C122  A    
Br7   C152  S    
O67   P14   S    
C79   C86   A    
C60   O68   S    
C29   H57   S    
C80   H99   S    
C10   N7    S    
C67   H51   S    
C26   H35   S    
C4    C158  A    
Ba1   O5    S    
C123  C141  A    
C148  C157  S    
C69   H53   S    
O50   P13   D    
Br5   C149  S    
C57   O16   D    
C86   C90   A    
C85   H90   S    
Ba4   P11   S    
C51   H12   S    
C151  H134  S    
Ba1   P1    S    
C32   H60   S    
C36   H61   S    
C40   C159  D    
C34   H67   S    
C119  O22   D    
C48   H6    S    
C58   H28   S    
C6    C10   A    
C132  C136  A    
C56   C58   S    
O35   P7    S    
O29   P10   S    
C40   C155  S    
C52   H17   S    
C131  P3    S    
C118  O21   D    
C105  C110  A    
C66   H49   S    
C3    P11   S    
Ba4   O8    S    
C22   H105  S    
C123  C127  A    
C127  P2    S    
C58   H29   S    
O39   P7    D    
O57   P4    S    
O52   P15   D    
C108  C112  A    
C63   H42   S    
O37   P5    D    
C153  H136  S    
C49   H7    S    
C87   H92   S    
C56   O66   S    
C13   N3    Am   
C103  O3    S    
Ba2   O50   S    
C78   C93   A    
C89   C93   A    
C148  H97   S    
O46   P5    S    
C58   C59   S    
C126  C131  A    
C15   C134  A    
C62   H39   S    
C97   C108  A    
Ba3   Ba4   S    
C97   H85   S    
C88   C92   A    
C59   H30   S    
C160  P10   S    
Br6   C151  S    
Ba2   O6    S    
C50   H11   S    
C100  H88   S    
C72   C99   A    
Ba2   O32   S    
C90   C121  A    
C33   H62   S    
C52   H15   S    
C68   N4    Am   
C152  H82   S    
C39   H115  S    
O7    P15   S    
C146  C155  S    
C31   H64   S    
Br11  C19   S    
C47   C48   S    
C27   H2    S    
Ba4   O34   S    
C64   H44   S    
C69   H55   S    
O28   P9    S    
C133  P12   S    
O3    P3    S    
O4    P4    S    
Ba2   O27   S    
C49   H8    S    
C28   H56   S    
C86   H91   S    
Ba2   O54   S    
O71   P15   S    
C8    C145  D    
O43   P11   S    
C135  C140  A    
C17   H137  S    
C104  C153  S    
C13   C128  A    
C14   C129  A    
C61   H37   S    
C102  C151  S    
Br4   C95   S    
Ba3   O8    S    
C41   C160  D    
C95   H75   S    
C63   C64   S    
C130  P4    S    
C49   H9    S    
C124  C142  A    
C48   H5    S    
C114  N5    Am   
C125  C143  A    
C44   H144  S    
Br9   C17   S    
C1    H71   S    
O30   P11   S    
C53   C54   S    
Ba2   P9    S    
C26   C30   S    
C39   C154  S    
C31   H59   S    
C88   C119  A    
C149  H133  S    
C61   H36   S    
C76   C117  A    
C92   C110  A    
C99   H87   S    
C124  H108  S    
C29   H24   S    
O38   P8    D    
C129  P16   S    
Br19  C33   S    
C18   C22   S    
O51   P14   D    
C23   O64   S    
C157  P7    S    
C149  H80   S    
O8    P14   S    
C44   C45   S    
C11   N8    S    
C16   C131  A    
C35   C70   A    
C2    C117  A    
Ba3   O33   S    
C79   H98   S    
Ba3   O51   S    
C118  N8    Am   
C24   N4    Am   
Ba2   O12   S    
O55   P3    S    
C105  O66   S    
C72   C77   A    
C34   H1    S    
C141  N1    S    
C104  O4    S    
C53   H19   S    
C108  O69   S    
Ba2   P13   S    
C73   H73   S    
C43   C44   S    
O32   P5    S    
C15   H122  S    
C60   C61   S    
C116  N7    Am   
C36   C73   S    
Br12  C22   S    
C57   C72   A    
C29   C33   S    
C71   C76   A    
C19   H140  S    
Ba1   O31   S    
Br1   C21   S    
C125  C130  A    
C34   O44   S    
C7    H114  S    
C67   C69   S    
C26   H138  S    
C4    C8    A    
O44   P6    S    
O2    P2    S    
C136  C141  S    
C158  P1    S    
C146  H95   S    
C2    N2    Am   
C42   C157  S    
Ba1   O28   S    
C7    C11   A    
C133  C137  A    
C12   C132  A    
O59   P2    D    
C55   H25   S    
C81   C128  A    
C75   C106  A    
O6    P12   S    
C143  N3    S    
C59   H31   S    
C63   O69   S    
C154  P6    S    
C77   C128  A    
Ba4   O7    S    
Br13  C20   S    
C66   C67   S    
O47   P8    S    
Ba1   O49   S    
C136  H102  S    
C65   H48   S    
C60   H33   S    
C98   H86   S    
O5    P13   S    
C109  O70   S    
C70   C97   A    
C38   O48   S    
Ba4   O29   S    
C26   O40   S    
C96   C113  A    
C21   H94   S    
C77   C92   A    
C28   O42   S    
O12   P9    D    
C28   H13   S    
C33   H66   S    
C122  O26   D    
C20   C25   S    
O56   P13   S    
C84   H74   S    
C47   H4    S    
C101  C149  S    
C25   O65   S    
C151  H81   S    
C68   C74   A    
C24   C139  A    
Ba1   P12   S    
C150  O9    D    
Ba4   P15   S    
C54   H20   S    
C107  C111  A    
C18   H139  S    
Ba3   O55   S    
O34   P11   D    
C81   H100  S    
Ba1   O53   S    
C46   O15   D    
C66   H50   S    
Ba1   Ba2   S    
C37   C84   S    
O53   P16   S    
C115  O19   D    
C95   H79   S    
C63   H41   S    
Ba3   O30   S    
C76   C96   A    
C137  C142  S    
O36   P6    D    
Br10  C18   S    
C43   H142  S    
Br8   C153  S    
C119  N5    Am   
C39   C158  D    
C99   C105  A    
C62   H40   S    
C12   H120  S    
C18   O45   S    
C50   C51   S    
C159  P9    S    
Br20  C1    S    
C101  H129  S    
C52   H16   S    
C153  H84   S    
C35   O14   D    
C134  C138  A    
C54   C55   S    
C104  H132  S    
C67   H52   S    
O72   P16   S    
C100  C107  A    
C2    O10   D    
C47   O63   S    
C144  N4    S    
C98   C109  A    
Ba1   O6    S    
C8    N5    S    
C135  P14   S    
C38   H83   S    
O54   P2    S    
C69   H54   S    
C57   N3    Am   
O40   P1    S    
O60   P3    D    
C90   C94   A    
C56   H27   S    
C37   H72   S    
C147  C156  S    
C145  H93   S    
C1    C34   S    
C145  C154  S    
C114  O18   D    
Ba3   O7    S    
C38   H70   S    
C17   O56   S    
C5    C159  A    
C6    C160  A    
C121  N7    Am   
C110  C114  A    
C80   C87   A    
C12   C127  A    
C85   C89   A    
C41   H118  S    
C55   H22   S    
C9    N6    S    
C104  H128  S    
C101  O72   S    
C116  O20   D    
C120  N6    Am   
C46   C71   A    
C75   C94   A    
C107  O68   S    
C70   C75   A    
C19   O71   S    
C147  H96   S    
C138  C143  S    
C28   C32   S    
C45   H146  S    
C91   C96   A    
C53   O65   S    
C36   H68   S    
Br3   C84   S    
C87   C91   A    
C62   H38   S    
C4    H111  S    
C65   H45   S    
C25   H127  S    
C82   C85   A    
C137  H103  S    
C6    H113  S    
C138  H104  S    
