data_mof_unit_17311.cif
_audit_creation_date              2012-12-10T17:47:03-0500
_audit_creation_method            fapswitch 2.2
_symmetry_space_group_name_H-M    P1
_symmetry_Int_Tables_number       1
_space_group_crystal_system       triclinic
_cell_length_a                    9.937232
_cell_length_b                    10.635281
_cell_length_c                    13.618768
_cell_angle_alpha                 91.590192
_cell_angle_beta                  82.905888
_cell_angle_gamma                 89.929634
_cell_volume                      1427.71879093

loop_
_atom_site_label
_atom_site_type_symbol
_atom_type_description
_atom_site_fract_x
_atom_site_fract_y
_atom_site_fract_z
_atom_type_partial_charge
C1    C     C_R   0.500320 0.739247 0.497472 0.848243
C2    C     C_R   0.557774 0.938033 0.564752 -0.212190
C3    C     C_R   0.558061 0.066516 0.564579 -0.191199
C4    C     C_R   0.475600 0.499617 0.685512 0.871567
C5    C     C_R   0.502202 0.128011 0.490303 -0.098254
C6    C     C_R   0.839228 0.666902 0.628611 -0.101317
C7    C     C_R   0.899044 0.748112 0.692148 -0.117783
C8    C     C_R   0.038114 0.746182 0.693132 -0.191602
C9    C     C_R   0.118440 0.663739 0.629971 -0.144176
C10   C     C_R   0.061638 0.581113 0.563815 0.164744
C11   C     C_R   0.917254 0.581792 0.563457 0.162683
C12   C     C_1   0.457492 0.496651 0.789185 -0.114942
C13   C     C_R   0.939000 0.421931 0.439191 -0.095295
C14   C     C_R   0.081954 0.422092 0.439112 -0.096296
C15   C     C_R   0.500600 0.260595 0.497099 0.864074
C16   C     C_R   0.524437 0.500786 0.314455 0.875123
C17   C     C_1   0.543180 0.510187 0.211088 -0.175293
C18   C     C_2   0.560491 0.528442 0.020080 0.513318
C19   C     C_2   0.449932 0.492449 0.980414 -0.360385
C20   C     C_1   0.448403 0.494118 0.876846 0.130774
C21   C     C_1   0.555677 0.519526 0.123738 -0.053196
C22   C     C_R   0.401419 0.863126 0.332614 -0.165481
C23   C     C_R   0.352968 0.926070 0.255552 -0.113112
C24   C     C_R   0.353195 0.056885 0.255439 -0.129581
C25   C     C_R   0.401964 0.125223 0.332354 -0.188325
C26   C     C_R   0.449915 0.062854 0.411801 0.096214
C27   C     C_R   0.449624 0.930998 0.411954 0.096939
C28   C     C_R   0.501649 0.871338 0.490627 -0.085472
H1    H     H_    0.360680 0.458067 0.026004 0.139929
H2    H     H_    0.403616 0.226548 0.327900 0.140482
H3    H     H_    0.599148 0.118403 0.623709 0.162588
H4    H     H_    0.893985 0.358036 0.389481 0.151078
H5    H     H_    0.836867 0.812862 0.741092 0.181025
H6    H     H_    0.903703 0.655223 0.983025 0.378736
H7    H     H_    0.731916 0.674034 0.632945 0.196460
H8    H     H_    0.084226 0.809042 0.743092 0.158493
H9    H     H_    0.224388 0.667212 0.635150 0.203631
H10   H     H_    0.143996 0.358270 0.389334 0.146130
H11   H     H_    0.598709 0.890359 0.623995 0.146842
H12   H     H_    0.402533 0.761547 0.328360 0.152862
H13   H     H_    0.316463 0.873128 0.195230 0.147386
H14   H     H_    0.316845 0.105579 0.195039 0.142447
N1    N     N_R   0.857120 0.501200 0.500900 -0.120408
N2    N     N_R   0.142720 0.501280 0.500940 -0.119061
O1    O     O_R   0.385310 0.683220 0.500000 -0.640447
O2    O     O_2   0.673037 0.703577 0.899518 -0.338505
O3    O     O_3   0.825422 0.622199 0.026785 -0.543624
O4    O     O_R   0.614640 0.683250 0.500010 -0.632053
O5    O     O_R   0.368830 0.499960 0.640340 -0.631261
O6    O     O_R   0.598160 0.499980 0.640350 -0.600913
O7    O     O_R   0.385360 0.316750 0.499990 -0.612759
O8    O     O_R   0.614690 0.316780 0.500000 -0.609858
O9    O     O_R   0.401840 0.500020 0.359650 -0.628142
O10   O     O_R   0.631170 0.500040 0.359660 -0.590734
O11   O     O_2   0.765104 0.489525 0.874884 -0.296923
S1    S     S_3+6 0.708659 0.587096 0.950942 0.024644
Zn1   Zn    Zn3+2 0.346870 0.499980 0.499990 0.936536
Zn2   Zn    Zn3+2 0.653130 0.500020 0.500010 0.965642

loop_
_geom_bond_atom_site_label_1
_geom_bond_atom_site_label_2
_ccdc_geom_bond_type
C8    C9    A    
C1    C28   S    
C23   C24   A    
C1    O4    A    
C11   N1    A    
C6    C7    A    
O7    Zn1   S    
C15   O7    A    
C4    C12   S    
C18   C21   S    
C24   H14   S    
C9    C10   A    
N2    Zn1   S    
C13   H4    S    
C19   C20   S    
C23   H13   S    
C18   S1    S    
C4    O5    A    
O11   S1    D    
C22   H12   S    
C12   C20   T    
C9    H9    S    
C2    C3    A    
C7    C8    A    
C13   C14   A    
C6    H7    S    
C3    H3    S    
C7    H5    S    
C1    O1    A    
C26   C27   A    
C16   C17   S    
O8    Zn2   S    
C22   C27   A    
C22   C23   A    
O10   Zn2   S    
O1    Zn1   S    
C16   O10   A    
C5    C15   S    
C14   H10   S    
C10   C11   A    
C10   N2    A    
C5    C26   A    
C19   H1    S    
C13   N1    A    
O5    Zn1   S    
C24   C25   A    
C14   N2    A    
C18   C19   D    
C8    H8    S    
O2    S1    D    
C6    C11   A    
O9    Zn1   S    
C16   O9    A    
C25   H2    S    
C2    C28   A    
H6    O3    S    
N1    Zn2   S    
C3    C5    A    
C25   C26   A    
C15   O8    A    
C2    H11   S    
O4    Zn2   S    
C17   C21   T    
C4    O6    A    
O3    S1    S    
C27   C28   A    
O6    Zn2   S    
