data_mof_unit_8996.cif
_audit_creation_date              2012-12-10T17:35:38-0500
_audit_creation_method            fapswitch 2.2
_symmetry_space_group_name_H-M    P1
_symmetry_Int_Tables_number       1
_space_group_crystal_system       triclinic
_cell_length_a                    10.738562
_cell_length_b                    12.309246
_cell_length_c                    13.165166
_cell_angle_alpha                 116.622792
_cell_angle_beta                  77.439172
_cell_angle_gamma                 101.040778
_cell_volume                      1509.63241304

loop_
_atom_site_label
_atom_site_type_symbol
_atom_type_description
_atom_site_fract_x
_atom_site_fract_y
_atom_site_fract_z
_atom_type_partial_charge
C1    C     C_R   0.510938 0.854953 0.286542 0.761892
C2    C     C_3   0.123769 0.996698 0.494222 0.060850
C3    C     C_3   0.057371 0.069225 0.618482 -0.427514
C4    C     C_3   0.060175 0.862441 0.444576 -0.460190
C5    C     C_R   0.327798 0.276322 0.022824 -0.197282
C6    C     C_R   0.453035 0.228123 0.834852 -0.059293
C7    C     C_R   0.592177 0.815394 0.084176 -0.194220
C8    C     C_R   0.616085 0.736466 0.968804 -0.150424
C9    C     C_R   0.571769 0.613052 0.931537 -0.189422
C10   C     C_R   0.496726 0.566664 0.009291 0.077096
C11   C     C_R   0.459195 0.650505 0.124145 0.084655
C12   C     C_R   0.740238 0.997642 0.497557 0.792818
C13   C     C_R   0.456057 0.440151 0.976510 0.075667
C14   C     C_R   0.368830 0.400981 0.054507 0.172897
C15   C     C_R   0.320938 0.486774 0.162065 -0.247766
C16   C     C_R   0.363814 0.609802 0.195829 -0.210039
C17   C     C_R   0.500315 0.350993 0.868570 -0.266663
C18   C     C_R   0.369021 0.190167 0.912983 -0.208153
C19   C     C_R   0.516952 0.773216 0.163387 -0.103228
C20   C     C_R   0.699544 0.342446 0.322569 -0.309144
C21   C     C_R   0.327546 0.761172 0.647565 0.072282
C22   C     C_R   0.290622 0.665208 0.680152 -0.258300
C23   C     C_R   0.479798 0.145082 0.713463 0.780386
C24   C     C_R   0.354834 0.560706 0.624005 -0.187692
C25   C     C_R   0.457241 0.550780 0.533749 -0.013364
C26   C     C_R   0.491429 0.651541 0.503275 0.269619
C27   C     C_R   0.527492 0.445630 0.473214 -0.044103
C28   C     C_R   0.628272 0.442875 0.382634 0.146531
C29   C     C_R   0.658897 0.541143 0.353548 -0.253376
C30   C     C_R   0.593155 0.643543 0.413493 -0.103962
C31   C     C_R   0.503050 0.342424 0.498400 0.021567
C32   C     C_R   0.671128 0.244524 0.352087 0.071039
C33   C     C_R   0.260959 0.998212 0.496487 0.795843
C34   C     C_3   0.962013 0.051803 0.415273 -0.567470
C35   C     C_3   0.105907 0.056457 0.417273 -0.399797
C36   C     C_3   0.915240 0.078321 0.619354 0.327195
C37   C     C_3   0.914768 0.861480 0.448894 0.340234
C38   C     C_3   0.878498 0.995786 0.497159 0.020953
Cu1   Cu    Cu3+1 0.529690 0.098270 0.475420 0.917392
Cu2   Cu    Cu3+1 0.470310 0.901730 0.524580 0.928196
H1    H     H_    0.939841 0.146322 0.441495 0.203911
H2    H     H_    0.080326 0.811026 0.488752 0.181659
H3    H     H_    0.065737 0.026369 0.674834 0.169930
H4    H     H_    0.331352 0.095053 0.887778 0.145139
H5    H     H_    0.249874 0.458734 0.220519 0.142416
H6    H     H_    0.260944 0.245959 0.081895 0.129830
H7    H     H_    0.571361 0.374562 0.808031 0.145450
H8    H     H_    0.635153 0.909310 0.111742 0.149543
H9    H     H_    0.595133 0.557325 0.840842 0.131208
H10   H     H_    0.672620 0.770612 0.908318 0.134373
H11   H     H_    0.940866 0.996868 0.325822 0.176184
H12   H     H_    0.318152 0.672396 0.277706 0.172202
H13   H     H_    0.725232 0.166297 0.305785 0.117522
H14   H     H_    0.736861 0.540313 0.285280 0.153719
H15   H     H_    0.776851 0.339847 0.253382 0.137409
H16   H     H_    0.427657 0.336023 0.565009 0.121570
H17   H     H_    0.322263 0.489346 0.652865 0.131472
H18   H     H_    0.212147 0.671918 0.749327 0.143072
H19   H     H_    0.628541 0.716111 0.388410 0.212475
H20   H     H_    0.155710 0.008156 0.328184 0.177352
H21   H     H_    0.148859 0.153522 0.450892 0.192085
H22   H     H_    0.909358 0.175130 0.636992 0.068665
H23   H     H_    0.108098 0.163196 0.655339 0.123545
H24   H     H_    0.900348 0.818428 0.357099 0.085426
H25   H     H_    0.105110 0.813808 0.353622 0.130799
N1    N     N_R   0.574690 0.246280 0.438200 -0.178350
N2    N     N_R   0.426100 0.754320 0.561190 -0.206711
O1    O     O_R   0.537340 0.972510 0.318130 -0.581418
O2    O     O_R   0.487200 0.806530 0.359650 -0.612345
O3    O     O_R   0.707380 0.082980 0.479220 -0.604717
O4    O     O_R   0.657240 0.917000 0.520740 -0.538905
O5    O     O_R   0.512800 0.193470 0.640350 -0.586018
O6    O     O_R   0.462660 0.027490 0.681870 -0.586336
O7    O     O_R   0.342760 0.083000 0.479260 -0.588629
O8    O     O_R   0.292620 0.917020 0.520780 -0.602551
O9    O     O_3   0.834521 0.043464 0.703257 -0.633817
C39   C     C_3   0.767829 0.140203 0.791371 0.068454
H26   H     H_    0.681090 0.098641 0.830111 0.174970
H27   H     H_    0.732680 0.195643 0.758058 0.116233
C40   C     C_3   0.850569 0.221274 0.885309 -0.379480
H28   H     H_    0.881564 0.164076 0.918931 0.221475
H29   H     H_    0.937580 0.264743 0.848788 0.209380
C41   C     C_3   0.776387 0.321255 0.984202 -0.902711
H30   H     H_    0.748510 0.382177 0.953117 0.261913
H31   H     H_    0.837781 0.376987 0.051845 0.245139
H32   H     H_    0.688684 0.280371 0.022564 0.264367
H33   H     H_    0.277336 0.842036 0.691756 0.117475
O10   O     O_3   0.830640 0.783628 0.494448 -0.612746
C42   C     C_3   0.855781 0.785360 0.596361 0.168993
H34   H     H_    0.767101 0.806054 0.660466 0.181152
H35   H     H_    0.932838 0.855237 0.636694 0.162080
C43   C     C_3   0.886452 0.658613 0.571629 -0.397256
H36   H     H_    0.801002 0.591340 0.546403 0.237981
H37   H     H_    0.966583 0.629779 0.499094 0.221496
C44   C     C_3   0.923822 0.657611 0.676527 -0.948036
H38   H     H_    0.009694 0.723797 0.703102 0.250318
H39   H     H_    0.946692 0.564851 0.655215 0.263405
H40   H     H_    0.843328 0.681829 0.748972 0.252529

loop_
_geom_bond_atom_site_label_1
_geom_bond_atom_site_label_2
_ccdc_geom_bond_type
C2    C35   S    
C31   N1    A    
C21   H33   S    
Cu2   O4    S    
Cu1   O1    S    
C37   O10   S    
C44   H38   S    
C44   H40   S    
C7    C8    A    
C39   H26   S    
C11   C19   A    
C34   H11   S    
C29   C30   A    
C26   N2    A    
C28   C29   A    
C40   C41   S    
C4    H25   S    
C29   H14   S    
C15   C16   A    
C1    O1    A    
Cu2   O6    S    
C34   C35   S    
Cu1   O7    S    
C36   O9    S    
C33   O8    A    
C8    C9    A    
Cu2   N2    S    
Cu1   O5    S    
C31   H16   S    
C42   H35   S    
C9    C10   A    
C21   C22   A    
C21   N2    A    
C34   H1    S    
C23   O6    A    
C20   H15   S    
C36   H22   S    
C4    C37   S    
C39   H27   S    
C6    C18   A    
C1    C19   S    
Cu2   O2    S    
C27   C31   A    
C17   H7    S    
C9    H9    S    
C24   C25   A    
C40   H29   S    
Cu1   Cu2   S    
C24   H17   S    
C5    C18   A    
C20   C28   A    
C25   C26   A    
C43   C44   S    
C1    O2    A    
C35   H20   S    
C2    C4    S    
C37   C38   S    
C18   H4    S    
C11   C16   A    
C41   H30   S    
C3    H3    S    
C30   H19   S    
C43   H37   S    
C35   H21   S    
O9    C39   S    
C42   C43   S    
C5    C14   A    
C2    C33   S    
C41   H31   S    
C12   O4    A    
C26   C30   A    
C7    C19   A    
Cu1   N1    S    
C22   C24   A    
C15   H5    S    
C8    H10   S    
C32   H13   S    
C37   H24   S    
C32   N1    A    
C20   C32   A    
C39   C40   S    
C6    C17   A    
C12   O3    A    
C34   C38   S    
C23   O5    A    
C16   H12   S    
C40   H28   S    
C10   C13   A    
C22   H18   S    
C44   H39   S    
C3    H23   S    
C25   C27   A    
C5    H6    S    
Cu2   O8    S    
C13   C17   A    
C7    H8    S    
C36   C38   S    
C2    C3    S    
C4    H2    S    
C3    C36   S    
C6    C23   S    
C43   H36   S    
Cu1   O3    S    
C12   C38   S    
C10   C11   A    
C33   O7    A    
C41   H32   S    
O10   C42   S    
C27   C28   A    
C14   C15   A    
C42   H34   S    
C13   C14   A    
