data_mof_unit_29518.cif
_audit_creation_date              2012-12-10T21:28:07-0500
_audit_creation_method            fapswitch 2.2
_symmetry_space_group_name_H-M    P1
_symmetry_Int_Tables_number       1
_space_group_crystal_system       triclinic
_cell_length_a                    12.940178
_cell_length_b                    16.205846
_cell_length_c                    16.616559
_cell_angle_alpha                 87.918793
_cell_angle_beta                  91.944322
_cell_angle_gamma                 97.956604
_cell_volume                      3447.30817571

loop_
_atom_site_label
_atom_site_type_symbol
_atom_type_description
_atom_site_fract_x
_atom_site_fract_y
_atom_site_fract_z
_atom_type_partial_charge
C1    C     C_R   0.490322 0.488187 0.652990 0.884585
C2    C     C_R   0.503736 0.510884 0.346617 0.870947
C3    C     C_R   0.408421 0.549734 0.854551 0.010439
C4    C     C_R   0.566072 0.437410 0.146449 -0.008282
C5    C     C_R   0.410545 0.475672 0.900055 0.250560
C6    C     C_R   0.510267 0.486596 0.094860 0.246102
C7    C     C_R   0.426227 0.402382 0.863860 -0.222537
C8    C     C_R   0.467768 0.554000 0.124625 -0.220876
C9    C     C_R   0.447033 0.402582 0.782098 -0.033200
C10   C     C_R   0.470026 0.568308 0.206624 -0.050193
C11   C     C_R   0.440627 0.755065 0.466089 -0.057757
C12   C     C_R   0.556874 0.245463 0.537215 -0.038446
C13   C     C_R   0.442725 0.842407 0.463342 0.067448
C14   C     C_R   0.556712 0.158442 0.539634 0.081074
C15   C     C_R   0.524609 0.893505 0.504107 0.275556
C16   C     C_R   0.478382 0.107284 0.495367 0.269641
C17   C     C_R   0.598891 0.854128 0.549495 0.031094
C18   C     C_R   0.405429 0.146308 0.447746 0.036296
C19   C     C_R   0.590430 0.765562 0.553009 0.060249
C20   C     C_R   0.412657 0.234684 0.444567 0.060381
C21   C     C_R   0.702011 0.514744 0.495486 0.911968
C22   C     C_R   0.298118 0.485172 0.497875 0.901383
C23   C     C_R   0.187016 0.478383 0.498312 -0.056009
C24   C     C_R   0.812831 0.520521 0.483027 -0.092412
C25   C     C_R   0.973904 0.606405 0.449188 0.000992
C26   C     C_R   0.027937 0.407650 0.552309 -0.001698
C27   C     C_R   0.866564 0.596488 0.457000 -0.315606
C28   C     C_R   0.134968 0.415696 0.547096 -0.327374
C29   C     C_R   0.866065 0.451038 0.496899 0.112415
C30   C     C_R   0.134863 0.538945 0.457649 0.115356
C31   C     C_R   0.973815 0.465709 0.508559 0.047488
C32   C     C_R   0.028881 0.538920 0.472413 0.053983
C33   C     C_R   0.458909 0.479679 0.737560 -0.110352
C34   C     C_R   0.517492 0.514271 0.259752 -0.092929
C35   C     C_R   0.433413 0.551205 0.773720 -0.288310
C36   C     C_R   0.569889 0.452290 0.228622 -0.290978
H1    H     H_    0.178264 0.373280 0.581747 0.153949
H2    H     H_    0.824415 0.648318 0.441451 0.170395
H3    H     H_    0.609247 0.411980 0.269181 0.161687
H4    H     H_    0.430980 0.608491 0.738853 0.167362
H5    H     H_    0.422760 0.345154 0.900197 0.144858
H6    H     H_    0.431575 0.595397 0.083160 0.179466
H7    H     H_    0.611106 0.284450 0.575163 0.156938
H8    H     H_    0.381957 0.716178 0.431799 0.168466
N1    N     N_2   0.412868 0.478881 0.983968 -0.212199
N2    N     N_2   0.501733 0.471805 0.011989 -0.182903
N3    N     N_R   0.512890 0.717880 0.509760 -0.144068
N4    N     N_R   0.487110 0.282120 0.490240 -0.143567
N5    N     N_2   0.541085 0.983162 0.495083 -0.156963
N6    N     N_2   0.462127 0.017838 0.504797 -0.167428
O1    O     O_R   0.495390 0.422190 0.612650 -0.614646
O2    O     O_R   0.504610 0.577810 0.387350 -0.620539
O3    O     O_R   0.503660 0.562120 0.618910 -0.611675
O4    O     O_R   0.496340 0.437880 0.381090 -0.616709
O5    O     O_R   0.650190 0.441600 0.497400 -0.626098
O6    O     O_R   0.349810 0.558400 0.502600 -0.620680
O7    O     O_R   0.658460 0.581530 0.503670 -0.614929
O8    O     O_R   0.341540 0.418470 0.496330 -0.621411
Zn1   Zn    Zn3+2 0.494480 0.406570 0.495820 0.938416
Zn2   Zn    Zn3+2 0.505520 0.593430 0.504180 0.943108
C37   C     C_3   0.186754 0.592258 0.389515 -0.858023
H9    H     H_    0.215721 0.655590 0.410183 0.250334
H10   H     H_    0.130815 0.596136 0.337805 0.227693
H11   H     H_    0.252899 0.564791 0.365546 0.234397
C38   C     C_3   0.814354 0.362432 0.483015 -0.834118
H12   H     H_    0.760981 0.360451 0.429144 0.242961
H13   H     H_    0.872117 0.320664 0.469185 0.222028
H14   H     H_    0.772083 0.336807 0.537052 0.249807
C39   C     C_3   0.684414 0.908318 0.595313 -0.921033
H15   H     H_    0.739182 0.873448 0.630486 0.243987
H16   H     H_    0.731344 0.951015 0.552465 0.248467
H17   H     H_    0.648587 0.945051 0.639000 0.246011
C40   C     C_3   0.321544 0.092252 0.400424 -0.934635
H18   H     H_    0.268629 0.127467 0.363591 0.243886
H19   H     H_    0.358831 0.054954 0.358137 0.251308
H20   H     H_    0.272371 0.050415 0.442534 0.239545
C41   C     C_R   0.664162 0.725060 0.605524 0.204542
C42   C     C_R   0.766952 0.723301 0.581966 -0.137419
C43   C     C_R   0.837769 0.688238 0.633726 -0.145143
C44   C     C_R   0.807286 0.657157 0.710101 -0.133651
C45   C     C_R   0.707046 0.663546 0.735720 -0.159475
C46   C     C_R   0.636637 0.699188 0.684151 -0.114567
H21   H     H_    0.792028 0.749978 0.524056 0.127353
H22   H     H_    0.916371 0.685610 0.614926 0.138220
H23   H     H_    0.862022 0.629841 0.750025 0.127819
H24   H     H_    0.684343 0.641798 0.795753 0.135997
H25   H     H_    0.560975 0.707640 0.705270 0.108458
C47   C     C_R   0.338741 0.275588 0.392554 0.195599
C48   C     C_R   0.365728 0.302912 0.313978 -0.110694
C49   C     C_R   0.294837 0.339703 0.263798 -0.160505
C50   C     C_R   0.195304 0.346566 0.290772 -0.137309
C51   C     C_R   0.165994 0.315435 0.367439 -0.144402
C52   C     C_R   0.237079 0.279259 0.418000 -0.130564
H26   H     H_    0.442026 0.296595 0.292062 0.130354
H27   H     H_    0.316984 0.362613 0.203946 0.141413
H28   H     H_    0.140511 0.375129 0.251947 0.127637
H29   H     H_    0.088367 0.319620 0.387821 0.140223
H30   H     H_    0.213688 0.255161 0.477254 0.113621
C53   C     C_R   0.024122 0.692443 0.431691 0.144691
C54   C     C_R   0.005825 0.731944 0.356938 -0.179261
C55   C     C_R   0.042169 0.816539 0.344059 -0.140931
C56   C     C_R   0.094656 0.862532 0.406224 -0.126913
C57   C     C_R   0.113055 0.823538 0.480785 -0.148332
C58   C     C_R   0.078819 0.738594 0.493354 -0.158342
H31   H     H_    0.962321 0.697423 0.309229 0.124239
H32   H     H_    0.028112 0.846757 0.286348 0.124701
H33   H     H_    0.121508 0.928294 0.396522 0.130236
H34   H     H_    0.153548 0.859219 0.528967 0.132833
H35   H     H_    0.092233 0.709331 0.551697 0.124203
C59   C     C_R   0.976742 0.344496 0.610825 0.151554
C60   C     C_R   0.993995 0.260810 0.608874 -0.179253
C61   C     C_R   0.944415 0.201425 0.663108 -0.129761
C62   C     C_R   0.877899 0.225069 0.719967 -0.126367
C63   C     C_R   0.861043 0.308206 0.722897 -0.155458
C64   C     C_R   0.910657 0.367874 0.668960 -0.145062
H36   H     H_    0.044450 0.241383 0.564601 0.116317
H37   H     H_    0.957242 0.136967 0.660841 0.128381
H38   H     H_    0.839208 0.178926 0.761636 0.122558
H39   H     H_    0.809449 0.326416 0.766940 0.131920
H40   H     H_    0.897075 0.432135 0.672126 0.126326
C65   C     C_R   0.616214 0.367937 0.116483 0.130347
C66   C     C_R   0.559347 0.306807 0.068300 -0.136617
C67   C     C_R   0.607481 0.241982 0.039735 -0.155085
C68   C     C_R   0.712249 0.237032 0.059695 -0.112377
C69   C     C_R   0.768984 0.296770 0.108469 -0.135769
C70   C     C_R   0.721269 0.361895 0.136945 -0.166399
H41   H     H_    0.477620 0.308876 0.053364 0.127940
H42   H     H_    0.563424 0.195423 0.002321 0.125242
H43   H     H_    0.749375 0.186767 0.037581 0.118940
H44   H     H_    0.850061 0.292736 0.124078 0.124779
H45   H     H_    0.766484 0.408051 0.174223 0.125221
C71   C     C_R   0.387418 0.626972 0.892760 0.130062
C72   C     C_R   0.299473 0.625875 0.940516 -0.159953
C73   C     C_R   0.282389 0.697423 0.979794 -0.146898
C74   C     C_R   0.352389 0.770759 0.971361 -0.100012
C75   C     C_R   0.439428 0.772734 0.923437 -0.139795
C76   C     C_R   0.457044 0.701229 0.884293 -0.164085
H46   H     H_    0.244594 0.569452 0.947798 0.129016
H47   H     H_    0.215086 0.695901 0.017039 0.127604
H48   H     H_    0.339269 0.826001 0.002055 0.123163
H49   H     H_    0.493786 0.829523 0.917143 0.125226
H50   H     H_    0.526120 0.703332 0.849016 0.118485
C77   C     C_R   0.445394 0.320186 0.746317 0.152485
C78   C     C_R   0.516408 0.266659 0.774100 -0.184723
C79   C     C_R   0.503494 0.183834 0.750593 -0.151173
C80   C     C_R   0.419775 0.153945 0.699337 -0.100823
C81   C     C_R   0.349889 0.207200 0.670318 -0.153224
C82   C     C_R   0.361989 0.289802 0.694309 -0.082148
H51   H     H_    0.579766 0.288437 0.815696 0.130207
H52   H     H_    0.557720 0.142550 0.772862 0.126687
H53   H     H_    0.409502 0.089658 0.681587 0.131458
H54   H     H_    0.285413 0.184133 0.630308 0.120468
H55   H     H_    0.304968 0.329560 0.674269 0.110331
C83   C     C_R   0.421944 0.640257 0.231407 0.139857
C84   C     C_R   0.486168 0.713585 0.252842 -0.102317
C85   C     C_R   0.444550 0.788520 0.255194 -0.150005
C86   C     C_R   0.338570 0.790456 0.237000 -0.130075
C87   C     C_R   0.273458 0.717140 0.218524 -0.137111
C88   C     C_R   0.315106 0.642384 0.214814 -0.183670
H56   H     H_    0.569263 0.713612 0.263266 0.124289
H57   H     H_    0.494948 0.845403 0.269548 0.136174
H58   H     H_    0.306748 0.848771 0.237522 0.128939
H59   H     H_    0.191351 0.718663 0.204852 0.127339
H60   H     H_    0.265091 0.586791 0.195983 0.127757
C89   C     C_3   0.636308 0.122329 0.593058 -0.901081
H61   H     H_    0.689556 0.092857 0.555770 0.257165
H62   H     H_    0.684789 0.171023 0.628389 0.238670
H63   H     H_    0.596419 0.075873 0.636292 0.241090
C90   C     C_3   0.359402 0.878829 0.414905 -0.903646
H64   H     H_    0.315282 0.913729 0.454556 0.254709
H65   H     H_    0.395306 0.920337 0.366040 0.242268
H66   H     H_    0.302236 0.829556 0.387801 0.250836

loop_
_geom_bond_atom_site_label_1
_geom_bond_atom_site_label_2
_ccdc_geom_bond_type
C76   H50   S    
C4    C36   A    
C17   C39   S    
C89   H61   S    
O5    Zn1   S    
C37   H11   S    
C90   H65   S    
C40   H18   S    
C11   N3    A    
C60   C61   A    
C24   C27   A    
C12   N4    A    
C10   C83   S    
C45   C46   A    
C9    C77   S    
C1    C33   S    
C74   C75   A    
C41   C42   A    
C38   H12   S    
C54   H31   S    
C55   C56   A    
C69   C70   A    
C70   H45   S    
C85   C86   A    
C8    H6    S    
C62   C63   A    
C12   H7    S    
C58   H35   S    
C19   N3    A    
C27   H2    S    
C77   C78   A    
C20   C47   S    
C66   H41   S    
C19   C41   S    
C90   H64   S    
C48   H26   S    
C39   H16   S    
C1    O3    A    
C59   C60   A    
C54   C55   A    
C41   C46   A    
O2    Zn2   S    
C56   C57   A    
N3    Zn2   S    
C24   C29   A    
C69   H44   S    
C25   C53   S    
C86   C87   A    
C81   C82   A    
C7    H5    S    
C71   C72   A    
C38   H13   S    
C4    C65   S    
C60   H36   S    
C57   C58   A    
C26   C59   S    
C18   C20   A    
C45   H24   S    
C2    C34   S    
C25   C32   A    
C13   C90   S    
C53   C58   A    
C50   H28   S    
C72   H46   S    
C26   C31   A    
C89   H62   S    
C9    C33   A    
C40   H19   S    
C77   C82   A    
C42   H21   S    
C61   C62   A    
O3    Zn2   S    
C51   H29   S    
C79   C80   A    
C7    C9    A    
O4    Zn1   S    
C36   H3    S    
C74   H48   S    
C59   C64   A    
C3    C71   S    
C23   C30   A    
C67   C68   A    
C4    C6    A    
C2    O4    A    
C73   H47   S    
C5    C7    A    
C42   C43   A    
C44   C45   A    
O7    Zn2   S    
C22   O6    A    
C71   C76   A    
N1    N2    D    
C5    N1    S    
C43   C44   A    
C80   H53   S    
C39   H17   S    
C21   O7    A    
C44   H23   S    
C53   C54   A    
C3    C35   A    
C38   H14   S    
C37   H10   S    
C83   C84   A    
C11   H8    S    
C10   C34   A    
C23   C28   A    
C14   C89   S    
C1    O1    A    
C65   C66   A    
C20   N4    A    
C2    O2    A    
C87   H59   S    
C29   C38   S    
C16   C18   A    
C12   C14   A    
C85   H57   S    
C64   H40   S    
C89   H63   S    
C13   C15   A    
C87   C88   A    
C40   H20   S    
C14   C16   A    
C30   C37   S    
O1    Zn1   S    
C82   H55   S    
C17   C19   A    
C48   C49   A    
C56   H33   S    
C50   C51   A    
N4    Zn1   S    
C21   O5    A    
C80   C81   A    
C55   H32   S    
C15   C17   A    
C47   C52   A    
C6    N2    S    
C43   H22   S    
C84   H56   S    
C22   C23   S    
C31   C32   A    
C79   H52   S    
C16   N6    S    
C78   C79   A    
C3    C5    A    
C49   H27   S    
C22   O8    A    
C6    C8    A    
C63   C64   A    
C73   C74   A    
C18   C40   S    
C26   C28   A    
C61   H37   S    
C37   H9    S    
C81   H54   S    
O8    Zn1   S    
C83   C88   A    
C29   C31   A    
C30   C32   A    
C11   C13   A    
C49   C50   A    
C72   C73   A    
C63   H39   S    
C28   H1    S    
C52   H30   S    
C51   C52   A    
C33   C35   A    
C75   H49   S    
C68   H43   S    
C35   H4    S    
C34   C36   A    
C15   N5    S    
C39   H15   S    
C78   H51   S    
C62   H38   S    
O6    Zn2   S    
C65   C70   A    
C47   C48   A    
C8    C10   A    
N5    N6    D    
C21   C24   S    
C67   H42   S    
C84   C85   A    
C88   H60   S    
C75   C76   A    
C57   H34   S    
C90   H66   S    
C66   C67   A    
C86   H58   S    
C46   H25   S    
C68   C69   A    
C25   C27   A    
