data_mof_unit_29473.cif
_audit_creation_date              2012-12-10T18:09:45-0500
_audit_creation_method            fapswitch 2.2
_symmetry_space_group_name_H-M    P1
_symmetry_Int_Tables_number       1
_space_group_crystal_system       triclinic
_cell_length_a                    10.752889
_cell_length_b                    12.728229
_cell_length_c                    13.187334
_cell_angle_alpha                 80.969124
_cell_angle_beta                  94.238156
_cell_angle_gamma                 102.474149
_cell_volume                      1738.93731835

loop_
_atom_site_label
_atom_site_type_symbol
_atom_type_description
_atom_site_fract_x
_atom_site_fract_y
_atom_site_fract_z
_atom_type_partial_charge
C1    C     C_R   0.480152 0.438719 0.691230 0.837254
C2    C     C_3   0.121553 0.499675 0.499512 0.019001
C3    C     C_3   0.059520 0.500603 0.387972 -0.248711
C4    C     C_3   0.102529 0.605750 0.538345 -0.084636
C5    C     C_R   0.526570 0.731100 0.050072 -0.194792
C6    C     C_R   0.537914 0.598220 0.200341 -0.053503
C7    C     C_R   0.495442 0.297453 0.845160 -0.042518
C8    C     C_R   0.552129 0.282672 0.943080 -0.181898
C9    C     C_R   0.581819 0.367526 0.001485 0.087655
C10   C     C_R   0.531800 0.463504 0.969248 0.036756
C11   C     C_R   0.475960 0.479191 0.869136 0.052545
C12   C     C_R   0.741480 0.499547 0.503232 0.833340
C13   C     C_R   0.534313 0.544553 0.032039 0.078256
C14   C     C_R   0.510438 0.647914 0.989124 0.184084
C15   C     C_R   0.456376 0.661916 0.890446 -0.237046
C16   C     C_R   0.427440 0.574577 0.835919 -0.175558
C17   C     C_R   0.539006 0.519722 0.138074 -0.276526
C18   C     C_R   0.545244 0.706716 0.156066 -0.200828
C19   C     C_R   0.473656 0.401292 0.802905 -0.176050
C20   C     C_R   0.293029 0.091363 0.361176 -0.277289
C21   C     C_R   0.658287 0.803907 0.629889 0.229166
C22   C     C_R   0.673447 0.901595 0.669060 0.091927
C23   C     C_R   0.519500 0.561105 0.309406 0.870864
C24   C     C_R   0.600369 0.976081 0.626793 -0.261040
C25   C     C_R   0.512707 0.955210 0.544430 -0.049760
C26   C     C_R   0.490673 0.851159 0.511416 0.154430
C27   C     C_R   0.450561 0.036928 0.491241 -0.020686
C28   C     C_R   0.348687 0.009652 0.419511 0.127768
C29   C     C_R   0.309426 0.903013 0.400737 -0.016670
C30   C     C_R   0.391520 0.830367 0.432962 0.077751
C31   C     C_R   0.490134 0.147263 0.502437 0.007554
C32   C     C_R   0.338191 0.197740 0.374723 -0.003291
C33   C     C_R   0.258474 0.499527 0.499363 0.854024
C34   C     C_3   0.914050 0.403107 0.587572 0.196588
C35   C     C_3   0.054579 0.398061 0.571554 -0.387008
C36   C     C_3   0.912317 0.485325 0.393170 -0.098391
C37   C     C_3   0.960032 0.609520 0.532028 -0.254172
C38   C     C_3   0.878532 0.498491 0.504191 0.075055
H1    H     H_    0.154003 0.676686 0.486610 0.161218
H2    H     H_    0.882565 0.551984 0.337776 0.138476
H3    H     H_    0.094854 0.582673 0.344382 0.102689
H4    H     H_    0.556419 0.770712 0.202805 0.160072
H5    H     H_    0.426611 0.736981 0.859004 0.153825
H6    H     H_    0.516698 0.812500 0.016891 0.142199
H7    H     H_    0.530302 0.436128 0.172374 0.173992
H8    H     H_    0.582170 0.206946 0.971489 0.153616
H9    H     H_    0.369080 0.583626 0.766066 0.189543
H10   H     H_    0.297080 0.261491 0.330803 0.163155
H11   H     H_    0.218118 0.075217 0.302806 0.168394
H12   H     H_    0.566504 0.176717 0.554519 0.122130
H13   H     H_    0.614419 0.050245 0.659676 0.152120
H14   H     H_    0.108677 0.389453 0.646660 0.154299
H15   H     H_    0.057888 0.324578 0.536654 0.180114
H16   H     H_    0.932569 0.622276 0.607926 0.164069
N1    N     N_R   0.433240 0.222190 0.444680 -0.112845
N2    N     N_R   0.566070 0.776970 0.554790 -0.139988
O1    O     O_R   0.468120 0.366740 0.627160 -0.605174
O2    O     O_R   0.510770 0.544830 0.662520 -0.629902
O3    O     O_R   0.663880 0.410950 0.482330 -0.588633
O4    O     O_R   0.706530 0.589040 0.517700 -0.638913
O5    O     O_R   0.489230 0.455170 0.337480 -0.620188
O6    O     O_R   0.531880 0.633260 0.372840 -0.590251
O7    O     O_R   0.293470 0.410960 0.482300 -0.614456
O8    O     O_R   0.336120 0.589050 0.517670 -0.604645
Zn1   Zn    Zn3+2 0.471520 0.381090 0.476390 0.954394
Zn2   Zn    Zn3+2 0.528480 0.618910 0.523610 0.942174
N3    N     N_3   0.831533 0.296055 0.576999 -0.448334
H17   H     H_    0.746728 0.287695 0.614215 0.186901
H18   H     H_    0.873953 0.234320 0.617269 0.162923
C39   C     C_1   0.466111 0.205696 0.789324 0.180846
N4    N     N_1   0.441407 0.131499 0.745435 -0.231959
N5    N     N_3   0.676165 0.358365 0.083636 -0.473089
H19   H     H_    0.725686 0.434611 0.099276 0.194218
H20   H     H_    0.632783 0.311577 0.148937 0.185248
N6    N     N_3   0.903792 0.426887 0.692229 -0.498330
H21   H     H_    0.922191 0.361768 0.746041 0.185198
H22   H     H_    0.810600 0.433989 0.702635 0.162098
N7    N     N_3   0.202347 0.876825 0.329441 -0.461009
H23   H     H_    0.169121 0.793454 0.332478 0.168279
H24   H     H_    0.125833 0.902204 0.355373 0.207451
N8    N     N_3   0.747420 0.737076 0.666697 -0.457511
H25   H     H_    0.701837 0.658245 0.693786 0.234715
H26   H     H_    0.804807 0.739044 0.606288 0.198409
N9    N     N_3   0.766521 0.925193 0.750917 -0.438060
H27   H     H_    0.856702 0.938551 0.720644 0.190547
H28   H     H_    0.760160 0.997296 0.776896 0.173118
N10   N     N_3   0.392768 0.754455 0.365724 -0.366327
H29   H     H_    0.306484 0.698919 0.363350 0.167867
H30   H     H_    0.405318 0.797030 0.291525 0.172942
N11   N     N_3   0.840479 0.382563 0.361164 -0.406396
H31   H     H_    0.882308 0.317359 0.392917 0.228348
H32   H     H_    0.841837 0.388645 0.281212 0.182399
C40   C     C_1   0.097004 0.425631 0.326529 0.175940
N12   N     N_1   0.124738 0.367673 0.276895 -0.230372
C41   C     C_1   0.936381 0.704188 0.457484 0.121325
N13   N     N_1   0.914691 0.776902 0.399635 -0.220161
N14   N     N_3   0.159949 0.616701 0.642008 -0.452342
H33   H     H_    0.158071 0.694291 0.657969 0.185667
H34   H     H_    0.108097 0.560713 0.697855 0.214322

loop_
_geom_bond_atom_site_label_1
_geom_bond_atom_site_label_2
_ccdc_geom_bond_type
C2    C35   S    
N10   H29   S    
O7    Zn1   S    
C40   N12   T    
C35   H15   S    
C41   N13   T    
C9    N5    S    
C7    C39   S    
N14   H33   S    
C7    C8    A    
C11   C19   A    
C29   C30   A    
C21   C22   A    
C28   C29   A    
N9    H28   S    
C18   H4    S    
N7    H24   S    
C15   C16   A    
C37   C41   S    
C34   C35   S    
N8    H26   S    
C12   O3    A    
O2    Zn2   S    
C23   O6    A    
C29   N7    S    
C8    C9    A    
C39   N4    T    
C9    C10   A    
C32   N1    A    
C34   N6    S    
C24   H13   S    
O4    Zn2   S    
C13   C14   A    
C32   H10   S    
C16   H9    S    
N14   H34   S    
N8    H25   S    
C6    C18   A    
C1    C19   S    
O6    Zn2   S    
C27   C31   A    
N3    H17   S    
C36   H2    S    
C24   C25   A    
N5    H20   S    
O1    Zn1   S    
N7    H23   S    
C5    C18   A    
C20   C28   A    
C25   C26   A    
N3    H18   S    
C22   N9    S    
C2    C4    S    
N6    H21   S    
C37   C38   S    
C1    O1    A    
C20   H11   S    
C11   C16   A    
N11   H32   S    
C4    H1    S    
C33   O7    A    
C3    C40   S    
N9    H27   S    
N6    H22   S    
C5    C14   A    
C37   H16   S    
C2    C33   S    
C5    H6    S    
C21   N8    S    
C26   C30   A    
C7    C19   A    
N10   H30   S    
C22   C24   A    
N1    Zn1   S    
C31   H12   S    
C35   H14   S    
C20   C32   A    
C36   N11   S    
C6    C17   A    
C3    H3    S    
C34   C38   S    
C17   H7    S    
N5    H19   S    
C10   C13   A    
C26   N2    A    
C34   N3    S    
C21   N2    A    
C25   C27   A    
C13   C17   A    
C36   C38   S    
C2    C3    S    
C15   H5    S    
C1    O2    A    
O3    Zn1   S    
N11   H31   S    
C3    C36   S    
C33   O8    A    
N2    Zn2   S    
C6    C23   S    
C12   C38   S    
C8    H8    S    
C10   C11   A    
C12   O4    A    
O5    Zn1   S    
C23   O5    A    
C4    C37   S    
C27   C28   A    
C14   C15   A    
C31   N1    A    
C30   N10   S    
C4    N14   S    
O8    Zn2   S    
