data_mof_unit_15168.cif
_audit_creation_date              2012-12-10T19:00:47-0500
_audit_creation_method            fapswitch 2.2
_symmetry_space_group_name_H-M    P1
_symmetry_Int_Tables_number       1
_space_group_crystal_system       triclinic
_cell_length_a                    15.076343
_cell_length_b                    10.821363
_cell_length_c                    9.535206
_cell_angle_alpha                 89.943778
_cell_angle_beta                  89.761248
_cell_angle_gamma                 90.147992
_cell_volume                      1555.6167908

loop_
_atom_site_label
_atom_site_type_symbol
_atom_type_description
_atom_site_fract_x
_atom_site_fract_y
_atom_site_fract_z
_atom_type_partial_charge
C1    C     C_R   0.501649 0.262272 0.499998 0.805845
C2    C     C_R   0.907688 0.534343 0.381129 0.125638
C3    C     C_R   0.953967 0.424619 0.747006 0.443469
C4    C     C_R   0.046823 0.426885 0.744522 -0.287619
C5    C     C_R   0.093095 0.463259 0.623907 0.033326
C6    C     C_R   0.046588 0.498277 0.502553 0.068876
C7    C     C_R   0.093254 0.533870 0.380124 0.114651
C8    C     C_R   0.046910 0.569920 0.260033 -0.170185
C9    C     C_R   0.954642 0.570868 0.260860 -0.131774
C10   C     C_R   0.185605 0.464666 0.622683 -0.207086
C11   C     C_R   0.231914 0.499244 0.501010 -0.071845
C12   C     C_R   0.328660 0.499725 0.500295 0.807940
C13   C     C_R   0.185646 0.533316 0.379970 -0.234573
C14   C     C_R   0.513385 0.063412 0.625479 0.153645
C15   C     C_R   0.510695 0.129208 0.499592 -0.100172
C16   C     C_R   0.520949 0.064596 0.372655 -0.204061
C17   C     C_R   0.520985 0.935776 0.372570 -0.211115
C18   C     C_R   0.510793 0.870781 0.499422 -0.100155
C19   C     C_R   0.513397 0.936234 0.625373 0.126733
C20   C     C_3   0.453690 0.929156 0.750560 -0.461304
C21   C     C_3   0.453762 0.069482 0.750804 -0.481280
C22   C     C_R   0.532529 0.599157 0.073196 0.244621
C23   C     C_R   0.501741 0.737706 0.499871 0.803266
C24   C     C_R   0.459144 0.408657 0.074825 -0.070530
C25   C     C_R   0.459041 0.408743 0.925893 -0.070789
C26   C     C_R   0.532446 0.599161 0.925802 0.236717
C27   C     C_3   0.624220 0.650017 0.918386 -0.458880
C28   C     C_3   0.624647 0.649268 0.077584 -0.487111
C29   C     C_R   0.671407 0.499623 0.499922 0.817225
C30   C     C_R   0.815488 0.534282 0.380905 -0.214112
C31   C     C_R   0.768301 0.498436 0.500617 -0.103900
C32   C     C_R   0.813541 0.461937 0.621881 -0.151886
C33   C     C_R   0.906515 0.461058 0.625563 -0.022119
C34   C     C_R   0.953548 0.497814 0.503309 0.004081
Cu1   Cu    Cu3+1 0.500000 0.499980 0.640670 0.950947
Cu2   Cu    Cu3+1 0.500000 0.500020 0.359330 0.947931
H1    H     H_    0.780580 0.563648 0.287906 0.141710
H2    H     H_    0.524439 0.887848 0.273055 0.160286
H3    H     H_    0.387832 0.888205 0.725978 0.203183
H4    H     H_    0.487492 0.888683 0.843178 0.194840
H5    H     H_    0.387922 0.110247 0.726593 0.195275
H6    H     H_    0.487799 0.109597 0.843465 0.200693
H7    H     H_    0.427376 0.333587 0.130798 0.139896
H8    H     H_    0.426973 0.333997 0.870477 0.134806
H9    H     H_    0.672308 0.584156 0.871534 0.246266
H10   H     H_    0.625899 0.744581 0.872855 0.193077
H11   H     H_    0.672317 0.581971 0.121569 0.215284
H12   H     H_    0.775218 0.433469 0.712252 0.219134
H13   H     H_    0.627439 0.743304 0.124104 0.191079
H14   H     H_    0.083574 0.399584 0.836839 0.189344
H15   H     H_    0.221554 0.437474 0.716001 0.151830
H16   H     H_    0.221493 0.560810 0.286099 0.154541
H17   H     H_    0.082008 0.597778 0.165697 0.151580
H18   H     H_    0.919993 0.600221 0.167379 0.189640
H19   H     H_    0.524465 0.112816 0.273176 0.166788
N1    N     N_R   0.500570 0.500930 0.147930 -0.184086
N2    N     N_R   0.500570 0.500890 0.852020 -0.182174
O1    O     O_R   0.500000 0.319640 0.618810 -0.581821
O2    O     O_R   0.500010 0.319680 0.381230 -0.589495
O3    O     O_R   0.370250 0.499950 0.618800 -0.587845
O4    O     O_R   0.370260 0.499990 0.381220 -0.583274
O5    O     O_R   0.499990 0.680320 0.618770 -0.580257
O6    O     O_R   0.500000 0.680360 0.381190 -0.587426
O7    O     O_R   0.629740 0.500010 0.618780 -0.585522
O8    O     O_R   0.629750 0.500050 0.381200 -0.581109
S1    S     S_3+6 0.900163 0.374254 0.902867 -0.028527
O9    O     O_2   0.846857 0.260090 0.871385 -0.292140
O10   O     O_2   0.966586 0.345272 0.015305 -0.291516
O11   O     O_3   0.831794 0.485856 0.960396 -0.593152
H20   H     H_    0.798696 0.447783 0.039364 0.364678

loop_
_geom_bond_atom_site_label_1
_geom_bond_atom_site_label_2
_ccdc_geom_bond_type
C8    H17   S    
S1    O10   D    
C11   C12   S    
C28   H11   S    
C6    C7    A    
C1    C15   S    
C18   C23   S    
C24   N1    A    
C13   H16   S    
C11   C13   A    
C28   H13   S    
C19   C20   S    
C2    C30   A    
C30   C31   A    
Cu1   N2    S    
Cu2   O2    S    
C32   C33   A    
C27   H9    S    
C23   O6    A    
C17   C18   A    
C20   H3    S    
C16   H19   S    
C5    C10   A    
C29   C31   S    
C22   C28   S    
C1    O1    A    
C24   C25   A    
C12   O4    A    
C32   H12   S    
C2    C34   A    
C26   C27   S    
Cu1   O7    S    
C25   N2    A    
Cu1   O1    S    
C29   O8    A    
C10   H15   S    
C14   C21   S    
Cu2   N1    S    
C9    H18   S    
C33   C34   A    
Cu1   O5    S    
C17   H2    S    
C1    O2    A    
C5    C6    A    
C20   H4    S    
C26   N2    A    
O11   H20   S    
C29   O7    A    
S1    O11   S    
C7    C8    A    
C10   C11   A    
C3    C33   A    
C15   C16   A    
Cu2   O6    S    
C6    C34   A    
C7    C13   A    
S1    O9    D    
C20   C21   S    
C25   H8    S    
C30   H1    S    
C18   C19   A    
C22   C26   A    
C27   C28   S    
C24   H7    S    
C3    S1    S    
Cu2   O8    S    
Cu1   O3    S    
C22   N1    A    
C21   H6    S    
C23   O5    A    
C4    C5    A    
C14   C15   A    
C2    C9    A    
C21   H5    S    
C14   C19   A    
C31   C32   A    
C27   H10   S    
C3    C4    A    
Cu2   O4    S    
C16   C17   A    
C4    H14   S    
C8    C9    A    
Cu1   Cu2   S    
C12   O3    A    
