data_mof_unit_31698.cif
_audit_creation_date              2013-03-05T15:52:46-0500
_audit_creation_method            fapswitch 2.2
_symmetry_space_group_name_H-M    P1
_symmetry_Int_Tables_number       1
_space_group_crystal_system       triclinic
_cell_length_a                    6.991302
_cell_length_b                    14.987786
_cell_length_c                    21.427681
_cell_angle_alpha                 73.897731
_cell_angle_beta                  88.814037
_cell_angle_gamma                 90.758381
_cell_volume                      2156.3115955

loop_
_atom_site_label
_atom_site_type_symbol
_atom_site_description
_atom_site_fract_x
_atom_site_fract_y
_atom_site_fract_z
_atom_type_partial_charge
O1    O     O_R   0.648150 0.130050 0.214300 -0.605832
O2    O     O_R   0.351850 0.869950 0.785700 -0.605779
O3    O     O_R   0.320490 0.006660 0.340150 -0.583910
O4    O     O_R   0.679510 0.993340 0.659850 -0.583901
O5    O     O_R   0.146100 0.869940 0.285700 -0.582259
O6    O     O_R   0.853900 0.130060 0.714300 -0.582299
C1    C     C_R   0.487375 0.002250 0.366825 1.094799
C2    C     C_R   0.512626 0.997751 0.633175 1.094756
O7    O     O_R   0.318690 0.137980 0.218120 -0.573725
O8    O     O_R   0.681310 0.862020 0.781880 -0.573733
O9    O     O_R   0.144280 0.002190 0.162800 -0.547055
O10   O     O_R   0.855720 0.997810 0.837200 -0.547174
C3    C     C_R   0.489606 0.175094 0.206290 1.018420
C4    C     C_R   0.510391 0.824903 0.793689 1.018386
O11   O     O_R   0.649960 0.997790 0.337200 -0.579465
O12   O     O_R   0.350040 0.002210 0.662800 -0.579478
O13   O     O_3   0.479300 0.955290 0.231990 -0.254294
O14   O     O_3   0.520700 0.044710 0.768010 -0.254264
V1    V     V_3+5 0.206040 0.008290 0.253340 1.316567
V2    V     V_3+5 0.793960 0.991710 0.746660 1.316544
O15   O     O_R   0.814320 0.993320 0.159850 -0.582347
O16   O     O_R   0.185680 0.006680 0.840150 -0.582183
C5    C     C_R   0.985904 0.999541 0.133046 1.116555
C6    C     C_R   0.014100 0.000487 0.866950 1.115946
O17   O     O_R   0.816120 0.862000 0.281880 -0.593971
O18   O     O_R   0.183880 0.138000 0.718120 -0.593877
C7    C     C_R   0.982725 0.824823 0.294574 0.982282
C8    C     C_R   0.017270 0.175176 0.705433 0.981854
V3    V     V_3+5 0.705540 0.991700 0.246660 1.299906
V4    V     V_3+5 0.294460 0.008300 0.753340 1.300061
O19   O     O_3   0.982150 0.044700 0.268010 -0.275265
O20   O     O_3   0.017850 0.955300 0.731990 -0.275240
C9    C     C_R   0.982255 0.723770 0.322176 -0.148834
C10   C     C_R   0.017719 0.276227 0.677840 -0.148832
C11   C     C_R   0.922655 0.569865 0.311427 -0.117686
C12   C     C_R   0.077151 0.430129 0.688613 -0.117454
C13   C     C_R   0.928987 0.665736 0.284312 -0.109302
C14   C     C_R   0.070803 0.334257 0.715727 -0.109445
C15   C     C_R   0.015902 0.685703 0.388337 -0.111168
C16   C     C_R   0.984177 0.314297 0.611673 -0.110998
C17   C     C_R   0.984136 0.589969 0.418826 0.125911
C18   C     C_R   0.015916 0.410035 0.581195 0.125861
C19   C     C_R   0.954476 0.531608 0.377925 0.090149
C20   C     C_R   0.045478 0.468391 0.622104 0.090088
C21   C     C_R   0.992443 0.549546 0.487616 -0.089832
C22   C     C_R   0.007646 0.450463 0.512403 -0.089812
C23   C     C_R   0.017159 0.396706 0.467057 0.390476
C24   C     C_R   0.982919 0.603303 0.532962 0.390564
C25   C     C_R   0.972241 0.436059 0.402443 -0.210553
C26   C     C_R   0.027748 0.563943 0.597584 -0.210601
H1    H     H_    0.969887 0.392568 0.369559 0.174678
H2    H     H_    0.030058 0.607432 0.630469 0.174658
H3    H     H_    0.929428 0.268282 0.585416 0.198145
H4    H     H_    0.070728 0.731715 0.414584 0.198177
H5    H     H_    0.101216 0.305546 0.766646 0.173334
H6    H     H_    0.898404 0.694440 0.233408 0.173355
H7    H     H_    0.894225 0.525503 0.280358 0.118252
H8    H     H_    0.105457 0.474488 0.719691 0.118209
C27   C     C_3   0.832254 0.966989 0.988137 0.410722
C28   C     C_3   0.167802 0.033079 0.011850 0.410619
C29   C     C_3   0.974068 0.914868 0.038069 0.262464
C30   C     C_3   0.025979 0.085210 0.961911 0.262076
C31   C     C_3   0.003228 0.000995 0.062791 -0.484089
C32   C     C_3   0.996809 0.999066 0.937198 -0.483607
C33   C     C_3   0.859277 0.054539 0.012304 -0.276129
C34   C     C_3   0.140768 0.945525 0.987688 -0.275788
H9    H     H_    0.756864 0.104440 0.022600 0.261136
H10   H     H_    0.243237 0.895623 0.977428 0.261089
C35   C     C_3   0.672610 0.023404 0.471395 0.359919
C36   C     C_3   0.327396 0.976598 0.528604 0.359910
C37   C     C_3   0.550685 0.082664 0.504312 0.334258
C38   C     C_3   0.449322 0.917338 0.495688 0.334254
C39   C     C_3   0.507233 0.998090 0.562827 -0.435517
C40   C     C_3   0.492772 0.001912 0.437172 -0.435525
C41   C     C_3   0.629397 0.936851 0.530306 -0.279734
C42   C     C_3   0.370609 0.063151 0.469694 -0.279744
H11   H     H_    0.723388 0.880682 0.556123 0.248681
H12   H     H_    0.276617 0.119320 0.443877 0.248681
C43   C     C_R   0.508931 0.275669 0.177794 -0.260211
C44   C     C_R   0.491063 0.724319 0.822151 -0.260239
C45   C     C_R   0.696443 0.412726 0.176246 -0.130733
C46   C     C_R   0.303607 0.587260 0.823652 -0.130703
C47   C     C_R   0.622876 0.325755 0.209614 -0.178493
C48   C     C_R   0.377119 0.674258 0.790311 -0.178471
C49   C     C_R   0.453434 0.316540 0.113367 0.251109
C50   C     C_R   0.546591 0.683403 0.886565 0.250883
C51   C     C_R   0.511011 0.409785 0.081198 -0.045966
C52   C     C_R   0.489074 0.590140 0.918701 -0.045940
C53   C     C_R   0.649029 0.452850 0.111543 0.122490
C54   C     C_R   0.351071 0.547088 0.888345 0.122763
C55   C     C_R   0.449661 0.458867 0.017782 0.066934
C56   C     C_R   0.550453 0.541036 0.982105 0.066543
C57   C     C_R   0.712142 0.569856 0.010306 -0.068905
C58   C     C_R   0.288003 0.430038 0.989567 -0.069196
C59   C     C_R   0.750861 0.531227 0.075318 -0.143520
C60   C     C_R   0.249296 0.468678 0.924553 -0.143572
H13   H     H_    0.868640 0.559680 0.096356 0.166221
H14   H     H_    0.131548 0.440216 0.903506 0.166020
H15   H     H_    0.330478 0.706280 0.741380 0.154746
H16   H     H_    0.669484 0.293766 0.258555 0.154728
H17   H     H_    0.798461 0.446541 0.199986 0.120516
H18   H     H_    0.201587 0.553462 0.799902 0.120490
H19   H     H_    0.811459 0.622436 0.982846 0.179432
H20   H     H_    0.188685 0.377450 0.017014 0.179168
Br1   Br    Br    0.911290 0.066370 0.425582 -0.448237
Br2   Br    Br    0.088716 0.933632 0.574418 -0.448244
N1    N     N_R   0.615263 0.743104 0.923400 0.223825
O21   O     O_R   0.519127 0.748073 0.974899 -0.322595
O22   O     O_R   0.779019 0.786970 0.908538 -0.409695
N2    N     N_R   0.384671 0.256808 0.076569 0.223584
O23   O     O_R   0.220891 0.212975 0.091460 -0.410441
O24   O     O_R   0.480683 0.251818 0.025051 -0.322856
Br3   Br    Br    0.136684 0.277818 0.482679 -0.479058
Br4   Br    Br    0.863473 0.722213 0.517323 -0.479055
N3    N     N_R   0.956793 0.820127 0.080232 0.247453
O25   O     O_R   0.825013 0.763462 0.070947 -0.326101
O26   O     O_R   0.089884 0.788352 0.121634 -0.401907
N4    N     N_R   0.042975 0.179945 0.919703 0.247004
O27   O     O_R   0.177567 0.236041 0.927777 -0.326097
O28   O     O_R   0.908704 0.212003 0.878861 -0.400680
N5    N     N_R   0.645034 0.929308 0.980808 0.288744
O29   O     O_R   0.542408 0.890767 0.032849 -0.313987
O30   O     O_R   0.565783 0.950525 0.924383 -0.341975
N6    N     N_R   0.355110 0.070636 0.019217 0.288697
O31   O     O_R   0.458004 0.108932 0.967196 -0.313412
O32   O     O_R   0.434258 0.049338 0.075659 -0.342202
N7    N     N_R   0.605856 0.175372 0.507513 0.271997
O33   O     O_R   0.640439 0.240980 0.454166 -0.353242
O34   O     O_R   0.604544 0.195091 0.562892 -0.403675
N8    N     N_R   0.394166 0.824628 0.492486 0.271988
O35   O     O_R   0.359590 0.759020 0.545834 -0.353250
O36   O     O_R   0.395543 0.804902 0.437110 -0.403716

loop_
_geom_bond_atom_site_label_1
_geom_bond_atom_site_label_2
_geom_bond_distance
_ccdc_geom_bond_type
C27   N5    1.447416 S    
C34   H10   1.104452 S    
C3    C43   1.464238 S    
C51   C55   1.431634 A    
O13   V3    1.729540 S    
C50   N1    1.431839 S    
O4    C2    1.304239 A    
V1    O19   1.715841 S    
C57   H19   1.077390 S    
C31   C33   1.553084 S    
C23   C25   1.390450 A    
C45   H17   1.082969 S    
C21   C22   1.437956 A    
C7    C9    1.465130 S    
O9    V1    2.022537 S    
C27   C32   1.545426 S    
C9    C15   1.399771 A    
C40   C42   1.551905 S    
C28   C31   1.545565 S    
C10   C16   1.399747 A    
C24   Br4   1.924989 S    
C11   C13   1.392254 A    
C42   H12   1.103594 S    
C12   H8    1.082697 S    
C37   C42   1.539492 S    
C50   C52   1.424600 A    
C5    C31   1.501838 S    
C15   H4    1.075114 S    
O12   V4    1.997780 S    
N3    O25   1.300114 A    
C28   C30   1.529485 S    
C18   C22   1.432581 A    
C28   N6    1.447402 S    
O7    C3    1.301217 A    
N4    O27   1.299503 A    
C2    C39   1.507235 S    
C30   C32   1.538087 S    
N2    O23   1.301227 A    
C13   H6    1.082749 S    
C29   C34   1.547064 S    
O7    V1    2.022177 S    
O6    C8    1.302763 A    
C14   H5    1.082785 S    
C52   C56   1.431574 A    
O8    V2    2.022177 S    
C33   H9    1.104461 S    
C60   H14   1.084355 S    
C29   N3    1.458221 S    
C26   H2    1.084723 S    
N1    O21   1.300466 A    
O3    V1    2.034176 S    
O14   V4    1.729539 S    
C4    C44   1.464260 S    
V4    O20   2.185783 S    
C11   C19   1.404245 A    
C44   C48   1.397722 A    
C45   C53   1.398401 A    
C24   C26   1.390457 A    
C28   C34   1.549226 S    
C2    O12   1.301988 A    
O5    C7    1.302797 A    
C17   C19   1.415670 A    
C37   N7    1.457368 S    
C18   C20   1.415673 A    
C38   C41   1.539487 S    
C45   C47   1.387415 A    
O11   V3    1.997780 S    
C1    C40   1.507239 S    
N4    O28   1.300252 A    
C49   C51   1.424623 A    
O17   V3    2.048462 S    
C27   C29   1.529315 S    
C35   C37   1.534806 S    
C38   C40   1.537395 S    
C49   N2    1.431858 S    
C36   Br2   1.927684 S    
C55   C56   1.424837 A    
C37   C39   1.537397 S    
C35   Br1   1.927684 S    
C19   C25   1.390087 A    
C1    O11   1.301984 A    
C25   H1    1.084724 S    
O15   V3    1.988715 S    
C54   C60   1.392324 A    
C9    C13   1.396017 A    
C6    C32   1.501830 S    
C32   C34   1.553151 S    
C53   C59   1.392296 A    
N8    O36   1.299891 A    
N7    O34   1.299890 A    
O10   V2    2.022537 S    
C36   C39   1.542976 S    
O1    V3    2.043873 S    
C46   H18   1.082952 S    
C35   C40   1.542977 S    
C58   C60   1.386204 A    
C41   H11   1.103593 S    
N5    O29   1.300213 A    
C52   C54   1.418680 A    
O18   V4    2.048462 S    
C46   C48   1.387454 A    
C47   H16   1.084057 S    
O15   C5    1.310122 A    
C36   C42   1.559818 S    
O16   C6    1.310086 A    
C12   C20   1.404267 A    
O1    C3    1.295091 A    
C39   C41   1.551903 S    
N7    O33   1.300316 A    
C43   C49   1.411018 A    
N5    O30   1.299635 A    
N6    O32   1.299633 A    
V2    O20   1.715843 S    
C21   C24   1.425028 A    
C20   C26   1.390095 A    
C23   Br3   1.924985 S    
N3    O26   1.300445 A    
C22   C23   1.425025 A    
O16   V4    1.988711 S    
C30   C33   1.547256 S    
C10   C14   1.395990 A    
C48   H15   1.084057 S    
O18   C8    1.299014 A    
C29   C31   1.537946 S    
C16   C18   1.414368 A    
C59   H13   1.084346 S    
C38   N8    1.457365 S    
O5    V1    2.030634 S    
O17   C7    1.299005 A    
O6    V2    2.030634 S    
O10   C6    1.294710 A    
O3    C1    1.304245 A    
C46   C54   1.398408 A    
O2    V4    2.043875 S    
C11   H7    1.082719 S    
C12   C14   1.392266 A    
N8    O35   1.300316 A    
V3    O19   2.185784 S    
C27   C33   1.549224 S    
C55   C58   1.410619 A    
C43   C47   1.397704 A    
N1    O22   1.301233 A    
O9    C5    1.294673 A    
C56   C57   1.410576 A    
O13   V1    2.166945 S    
C35   C41   1.559813 S    
O14   V2    2.166944 S    
C8    C10   1.465082 S    
O2    C4    1.295090 A    
N2    O24   1.300468 A    
C30   N4    1.458375 S    
C58   H20   1.077372 S    
O4    V2    2.034179 S    
C44   C50   1.410969 A    
C15   C17   1.414382 A    
C57   C59   1.386165 A    
C16   H3    1.075109 S    
C51   C53   1.418714 A    
C17   C21   1.432579 A    
C36   C38   1.534807 S    
O8    C4    1.301232 A    
N6    O31   1.300162 A    
