data_mof_unit_17899.cif
_audit_creation_date              2012-12-10T19:46:26-0500
_audit_creation_method            fapswitch 2.2
_symmetry_space_group_name_H-M    P1
_symmetry_Int_Tables_number       1
_space_group_crystal_system       triclinic
_cell_length_a                    10.925168
_cell_length_b                    10.915818
_cell_length_c                    10.434073
_cell_angle_alpha                 91.279874
_cell_angle_beta                  91.643547
_cell_angle_gamma                 90.206386
_cell_volume                      1243.50432689

loop_
_atom_site_label
_atom_site_type_symbol
_atom_type_description
_atom_site_fract_x
_atom_site_fract_y
_atom_site_fract_z
_atom_type_partial_charge
C1    C     C_R   0.498281 0.261424 0.498298 0.803054
C2    C     C_R   0.501624 0.738598 0.501741 0.801434
C3    C     C_R   0.872172 0.498529 0.504342 -0.090246
C4    C     C_R   0.127849 0.501823 0.495525 -0.090904
C5    C     C_R   0.943440 0.484484 0.618142 0.056518
C6    C     C_R   0.056586 0.515367 0.381593 0.055177
C7    C     C_R   0.337201 0.190823 0.084989 -0.117295
C8    C     C_R   0.654896 0.804071 0.916616 -0.115246
C9    C     C_R   0.356039 0.153453 0.211324 -0.086136
C10   C     C_R   0.638269 0.841318 0.789969 -0.078550
C11   C     C_R   0.471097 0.109716 0.251906 0.099962
C12   C     C_R   0.525774 0.890596 0.748904 0.098981
C13   C     C_R   0.566508 0.103434 0.164681 -0.127826
C14   C     C_R   0.430971 0.903000 0.836235 -0.130731
C15   C     C_R   0.546899 0.141165 0.038652 -0.114313
C16   C     C_R   0.448571 0.866035 0.962752 -0.116414
C17   C     C_R   0.432607 0.185476 0.998962 -0.153691
C18   C     C_R   0.560129 0.815889 0.002741 -0.154219
C19   C     C_R   0.490979 0.930733 0.386703 -0.235241
C20   C     C_R   0.508844 0.069390 0.613505 -0.235732
C21   C     C_R   0.502597 0.872160 0.504411 -0.080348
C22   C     C_R   0.497320 0.127897 0.495794 -0.080332
C23   C     C_R   0.261395 0.501235 0.498110 0.808831
C24   C     C_R   0.738611 0.498797 0.501859 0.809243
C25   C     C_R   0.511643 0.942683 0.619720 0.002537
C26   C     C_R   0.487745 0.057398 0.380617 0.001767
C27   C     C_1   0.500025 0.499979 0.071965 0.088319
C28   C     C_1   0.500011 0.499987 0.928036 0.087051
C29   C     C_R   0.190435 0.670525 0.098328 -0.093523
C30   C     C_R   0.813598 0.320638 0.897684 -0.099348
C31   C     C_R   0.151878 0.649050 0.222219 -0.185527
C32   C     C_R   0.851782 0.345525 0.774497 -0.190375
C33   C     C_R   0.108317 0.532920 0.253955 0.053403
C34   C     C_R   0.891689 0.463530 0.745054 0.053704
C35   C     C_R   0.102985 0.438372 0.159617 0.389951
C36   C     C_R   0.893813 0.556562 0.840994 0.390618
C37   C     C_R   0.143724 0.460495 0.036106 -0.196973
C38   C     C_R   0.852603 0.531234 0.963571 -0.197164
C39   C     C_R   0.187685 0.576223 0.005714 -0.130960
C40   C     C_R   0.812162 0.413616 0.991650 -0.130183
C41   C     C_R   0.929986 0.514088 0.387789 -0.169610
C42   C     C_R   0.070014 0.486442 0.612090 -0.170852
Cu1   Cu    Cu3+1 0.500000 0.500000 0.625300 0.985591
Cu2   Cu    Cu3+1 0.500000 0.500000 0.374700 0.986240
H1    H     H_    0.217345 0.593498 0.909659 0.172032
H2    H     H_    0.782431 0.393854 0.087112 0.174954
H3    H     H_    0.654678 0.066266 0.193343 0.142709
H4    H     H_    0.344925 0.944487 0.807302 0.141824
H5    H     H_    0.618370 0.131078 0.970157 0.129298
H6    H     H_    0.377715 0.881164 0.031178 0.131288
H7    H     H_    0.481939 0.877670 0.297835 0.154927
H8    H     H_    0.517564 0.122544 0.702377 0.155903
H9    H     H_    0.219756 0.761079 0.073547 0.141039
H10   H     H_    0.788125 0.228437 0.920778 0.142634
H11   H     H_    0.153268 0.723523 0.292652 0.142913
H12   H     H_    0.853395 0.272168 0.702907 0.144915
H13   H     H_    0.138349 0.389140 0.962445 0.151159
H14   H     H_    0.855197 0.601546 0.038387 0.150469
H15   H     H_    0.876500 0.526040 0.299767 0.158699
H16   H     H_    0.123462 0.474195 0.700070 0.157850
H17   H     H_    0.417121 0.212983 0.900852 0.134825
H18   H     H_    0.574099 0.788500 0.101086 0.135317
H19   H     H_    0.248018 0.220971 0.052415 0.175424
H20   H     H_    0.742011 0.768823 0.949259 0.174014
H21   H     H_    0.280689 0.155792 0.276563 0.163771
H22   H     H_    0.713345 0.834206 0.724731 0.163685
N1    N     N_1   0.500010 0.499990 0.186410 -0.146097
N2    N     N_1   0.499990 0.500010 0.813590 -0.146508
O1    O     O_R   0.499990 0.319650 0.605810 -0.591715
O2    O     O_R   0.500010 0.680350 0.394190 -0.591909
O3    O     O_R   0.499990 0.319640 0.394190 -0.565522
O4    O     O_R   0.500010 0.680360 0.605810 -0.566845
O5    O     O_R   0.319640 0.500010 0.605810 -0.588545
O6    O     O_R   0.680360 0.499990 0.394190 -0.588240
O7    O     O_R   0.319650 0.500010 0.394190 -0.568372
O8    O     O_R   0.680350 0.499990 0.605810 -0.568541
Cl1   Cl    Cl    0.041923 0.293288 0.192855 -0.710144
Cl2   Cl    Cl    0.952039 0.703528 0.811136 -0.707851

loop_
_geom_bond_atom_site_label_1
_geom_bond_atom_site_label_2
_ccdc_geom_bond_type
Cu1   O5    S    
C38   C40   A    
C5    C42   A    
Cu1   O4    S    
C40   H2    S    
C30   H10   S    
C1    O3    A    
C4    C42   A    
C19   C21   A    
C16   H6    S    
C20   C25   A    
Cu2   O3    S    
C15   C17   A    
C19   C26   A    
C17   H17   S    
C38   H14   S    
Cu1   N2    S    
C7    C17   A    
C6    C41   A    
C31   C33   A    
Cu2   O2    S    
C39   H1    S    
C1    C22   S    
Cu1   O1    S    
C3    C24   S    
C23   O5    A    
C2    O4    A    
C10   H22   S    
C37   C39   A    
C41   H15   S    
C4    C6    A    
C42   H16   S    
C13   H3    S    
C4    C23   S    
C18   H18   S    
C14   H4    S    
C11   C26   S    
C35   Cl1   S    
C1    O1    A    
C32   C34   A    
Cu2   O7    S    
Cu1   Cu2   S    
C5    C34   S    
C29   C39   A    
C2    C21   S    
C8    C18   A    
C30   C40   A    
Cu2   O6    S    
C9    C11   A    
C7    H19   S    
C10   C12   A    
C8    H20   S    
C16   C18   A    
C20   C22   A    
C13   C15   A    
C14   C16   A    
C35   C37   A    
Cu1   O8    S    
C7    C9    A    
C21   C25   A    
C3    C41   A    
C28   N2    T    
C24   O8    A    
C23   O7    A    
C3    C5    A    
C6    C33   S    
C12   C25   S    
C20   H8    S    
C36   C38   A    
C12   C14   A    
C29   C31   A    
C36   Cl2   S    
C30   C32   A    
C11   C13   A    
C24   O6    A    
C29   H9    S    
C33   C35   A    
C34   C36   A    
C15   H5    S    
C9    H21   S    
C27   N1    T    
C19   H7    S    
C8    C10   A    
C22   C26   A    
C27   C28   S    
Cu2   N1    S    
C31   H11   S    
C2    O2    A    
C32   H12   S    
C37   H13   S    
