data_mof_unit_34872.cif
_audit_creation_date              2012-10-26T20:32:59-0400
_audit_creation_method            fapswitch 2.2
_symmetry_space_group_name_H-M    P1
_symmetry_Int_Tables_number       1
_space_group_crystal_system       triclinic
_cell_length_a                    27.829807
_cell_length_b                    10.814624
_cell_length_c                    9.532238
_cell_angle_alpha                 89.906763
_cell_angle_beta                  90.068498
_cell_angle_gamma                 90.159174
_cell_volume                      2868.89026875

loop_
_atom_site_label
_atom_site_type_symbol
_atom_type_description
_atom_site_fract_x
_atom_site_fract_y
_atom_site_fract_z
_atom_type_partial_charge
C1    C     C_R   0.500873 0.262267 0.500043 0.552391
C2    C     C_R   0.974530 0.393690 0.455465 0.019410
C3    C     C_R   0.974311 0.609295 0.540063 0.021160
C4    C     C_R   0.407457 0.499936 0.499900 0.550801
C5    C     C_R   0.949177 0.501046 0.497967 0.038483
C6    C     C_R   0.947730 0.286180 0.422054 -0.143916
C7    C     C_R   0.897832 0.285947 0.424551 -0.112219
C8    C     C_R   0.872580 0.392464 0.461034 0.024173
C9    C     C_R   0.898080 0.500195 0.498250 -0.027968
C10   C     C_R   0.872357 0.607102 0.535651 0.024317
C11   C     C_R   0.821917 0.604333 0.535119 0.398209
C12   C     C_R   0.278848 0.497661 0.626288 -0.060983
C13   C     C_R   0.822133 0.393505 0.462333 0.398694
C14   C     C_R   0.721376 0.502860 0.626386 -0.054532
C15   C     C_R   0.671277 0.502747 0.626834 -0.140759
C16   C     C_R   0.500902 0.737711 0.499858 0.551939
C17   C     C_R   0.670976 0.492265 0.372716 -0.142170
C18   C     C_R   0.721077 0.492011 0.372542 -0.055289
C19   C     C_R   0.746424 0.497710 0.499295 0.242407
C20   C     C_R   0.025552 0.396834 0.448753 0.029575
C21   C     C_R   0.050767 0.503074 0.497342 0.021055
C22   C     C_R   0.025361 0.607928 0.546371 -0.027612
C23   C     C_R   0.253662 0.501180 0.499060 0.237251
C24   C     C_R   0.052443 0.297295 0.393887 -0.142991
C25   C     C_R   0.102118 0.709816 0.600928 0.267811
C26   C     C_R   0.947276 0.716137 0.572863 -0.142554
C27   C     C_R   0.897377 0.714631 0.571205 -0.110997
C28   C     C_R   0.592569 0.499443 0.500055 0.552713
C29   C     C_R   0.051959 0.707803 0.602140 -0.132338
C30   C     C_R   0.507080 0.063345 0.625715 0.029263
C31   C     C_R   0.505741 0.129213 0.499748 0.011869
C32   C     C_R   0.511342 0.064704 0.372850 -0.155501
C33   C     C_R   0.511322 0.935862 0.372723 -0.155954
C34   C     C_R   0.101911 0.503918 0.497686 -0.070108
C35   C     C_R   0.505750 0.870784 0.499492 0.009569
C36   C     C_R   0.507058 0.936114 0.625560 0.020378
C37   C     C_3   0.474513 0.928952 0.749845 -0.263518
C38   C     C_3   0.474602 0.069338 0.750180 -0.273341
C39   C     C_R   0.517029 0.599905 0.073533 0.156057
C40   C     C_R   0.177735 0.402249 0.447482 0.391333
C41   C     C_R   0.478290 0.407894 0.074538 -0.013976
C42   C     C_R   0.478230 0.407997 0.925590 -0.013222
C43   C     C_R   0.517050 0.599848 0.926150 0.155033
C44   C     C_3   0.566519 0.652639 0.920270 -0.273482
C45   C     C_R   0.127384 0.401207 0.445800 0.028076
C46   C     C_3   0.566497 0.652813 0.079559 -0.274106
C47   C     C_R   0.178421 0.603516 0.549212 0.410984
C48   C     C_R   0.278935 0.503944 0.372134 -0.058544
C49   C     C_R   0.329032 0.503301 0.372268 -0.145087
C50   C     C_R   0.328952 0.497167 0.626737 -0.147691
C51   C     C_3   0.124463 0.910309 0.566745 0.006752
C52   C     C_3   0.154531 0.015592 0.626227 -0.330372
C53   C     C_R   0.102250 0.299659 0.392685 -0.121776
C54   C     C_R   0.127674 0.606951 0.549881 0.026745
C55   C     C_R   0.354524 0.500064 0.499647 0.002562
C56   C     C_R   0.645549 0.498228 0.499920 0.005588
Cu1   Cu    Cu3+1 0.500000 0.499980 0.640670 0.942474
Cu2   Cu    Cu3+1 0.500000 0.500020 0.359330 0.940715
H1    H     H_    0.347595 0.494444 0.726479 0.130412
H2    H     H_    0.259525 0.495120 0.724793 0.132546
H3    H     H_    0.492648 0.888344 0.843025 0.133784
H4    H     H_    0.438984 0.110226 0.725012 0.136899
H5    H     H_    0.492925 0.109305 0.843419 0.131799
H6    H     H_    0.461428 0.332238 0.130287 0.115861
H7    H     H_    0.461187 0.332709 0.869949 0.112078
H8    H     H_    0.592989 0.587300 0.875301 0.148116
H9    H     H_    0.593033 0.587783 0.125404 0.149156
H10   H     H_    0.121033 0.220855 0.349402 0.152325
H11   H     H_    0.652827 0.506139 0.726468 0.119852
H12   H     H_    0.259685 0.507051 0.273403 0.132582
H13   H     H_    0.740799 0.506623 0.724799 0.130229
H14   H     H_    0.879087 0.201266 0.397713 0.168037
H15   H     H_    0.964152 0.199194 0.396049 0.106774
H16   H     H_    0.036159 0.216456 0.348112 0.104343
H17   H     H_    0.347731 0.505658 0.272728 0.131803
H18   H     H_    0.087036 0.944246 0.552447 0.105742
H19   H     H_    0.139678 0.884473 0.462687 0.148543
H20   H     H_    0.192273 0.985002 0.640884 0.198128
H21   H     H_    0.154061 0.095401 0.552958 0.124427
H22   H     H_    0.139725 0.045333 0.728883 0.157903
H23   H     H_    0.963525 0.803980 0.597315 0.104658
H24   H     H_    0.513302 0.113024 0.273385 0.132468
H25   H     H_    0.567088 0.746984 0.873895 0.130230
H26   H     H_    0.567003 0.747329 0.125077 0.123618
H27   H     H_    0.652266 0.487462 0.273330 0.121493
H28   H     H_    0.878448 0.798823 0.597704 0.168195
H29   H     H_    0.740266 0.487893 0.273906 0.130449
H30   H     H_    0.034956 0.785586 0.651722 0.119970
H31   H     H_    0.513191 0.887997 0.273204 0.129672
H32   H     H_    0.438860 0.888071 0.724190 0.147702
N1    N     N_R   0.202091 0.502270 0.498720 -0.406415
N2    N     N_R   0.797945 0.498497 0.498953 -0.398774
N3    N     N_R   0.500300 0.500930 0.147930 -0.230305
N4    N     N_R   0.500310 0.500890 0.852020 -0.229979
O1    O     O_R   0.500000 0.319640 0.618810 -0.504019
O2    O     O_R   0.569730 0.499960 0.618810 -0.502972
O3    O     O_R   0.569740 0.500000 0.381220 -0.504240
O4    O     O_2   0.202264 0.303495 0.399447 -0.513411
O5    O     O_3   0.125826 0.809295 0.660851 -0.508755
O6    O     O_2   0.797420 0.290278 0.428160 -0.490902
O7    O     O_2   0.204136 0.700575 0.597214 -0.452441
O8    O     O_2   0.796990 0.706755 0.569550 -0.491875
O9    O     O_R   0.500010 0.319680 0.381230 -0.513788
O10   O     O_R   0.430260 0.500000 0.618780 -0.504492
O11   O     O_R   0.430270 0.500040 0.381190 -0.500905
O12   O     O_R   0.499990 0.680320 0.618770 -0.498411
O13   O     O_R   0.500000 0.680360 0.381190 -0.504890

loop_
_geom_bond_atom_site_label_1
_geom_bond_atom_site_label_2
_ccdc_geom_bond_type
C28   O3    A    
C10   C27   A    
C8    C13   A    
C47   O7    S    
C22   C29   A    
C14   H13   S    
C44   H8    S    
C35   C36   A    
C44   H25   S    
C28   C56   S    
C7    C8    A    
C12   C23   A    
C26   C27   A    
C37   H32   S    
C17   H27   S    
C50   H1    S    
C36   C37   S    
Cu2   N3    S    
C18   C19   A    
C16   C35   S    
C40   O4    S    
C30   C31   A    
C1    C31   S    
C43   N4    A    
C30   C38   S    
Cu2   O13   S    
C41   C42   A    
C53   H10   S    
C39   N3    A    
C29   H30   S    
C19   N2    S    
C16   O13   A    
C11   N2    A    
C25   O5    S    
C41   N3    A    
C20   C24   A    
C8    C9    A    
Cu1   O2    S    
C42   H7    S    
C49   H17   S    
C52   H21   S    
C9    C10   A    
C1    O9    A    
C16   O12   A    
Cu1   O12   S    
C45   C53   A    
C21   C22   A    
C51   O5    S    
C2    C6    A    
Cu2   O3    S    
C52   H20   S    
C44   C46   S    
C25   C29   A    
C40   C45   A    
C15   H11   S    
C2    C20   A    
C51   C52   S    
C51   H18   S    
C7    H14   S    
C39   C43   A    
C21   C34   A    
C24   C53   A    
C49   C55   A    
C27   H28   S    
C43   C44   S    
C51   H19   S    
C5    C9    A    
C37   C38   S    
C33   H31   S    
C37   H3    S    
C31   C32   A    
C1    O1    A    
C17   C18   A    
C34   C45   A    
C25   C54   A    
C17   C56   A    
C39   C46   S    
C46   H26   S    
C48   C49   A    
C34   C54   A    
C26   H23   S    
Cu1   N4    S    
C47   C54   A    
C4    C55   S    
C23   N1    S    
C2    C5    A    
C6    H15   S    
C38   H5    S    
Cu1   O10   S    
C23   C48   A    
C42   N4    A    
C47   N1    A    
C14   C19   A    
C3    C26   A    
C50   C55   A    
C48   H12   S    
C3    C5    A    
C12   C50   A    
C6    C7    A    
C32   H24   S    
C4    O11   A    
C18   H29   S    
C30   C36   A    
C28   O2    A    
Cu2   O11   S    
C15   C56   A    
C13   O6    S    
C46   H9    S    
C13   N2    A    
C32   C33   A    
C24   H16   S    
Cu1   Cu2   S    
C4    O10   A    
C33   C35   A    
C11   O8    S    
C40   N1    A    
C10   C11   A    
C12   H2    S    
C20   C21   A    
Cu1   O1    S    
C14   C15   A    
C3    C22   A    
Cu2   O9    S    
C41   H6    S    
C52   H22   S    
C38   H4    S    
