data_mof_unit_49475.cif
_audit_creation_date              2012-12-11T14:52:36-0500
_audit_creation_method            fapswitch 2.2
_symmetry_space_group_name_H-M    P1
_symmetry_Int_Tables_number       1
_space_group_crystal_system       triclinic
_cell_length_a                    18.989342
_cell_length_b                    10.993066
_cell_length_c                    18.822146
_cell_angle_alpha                 89.507183
_cell_angle_beta                  91.382747
_cell_angle_gamma                 88.958793
_cell_volume                      3927.19014608

loop_
_atom_site_label
_atom_site_type_symbol
_atom_type_description
_atom_site_fract_x
_atom_site_fract_y
_atom_site_fract_z
_atom_type_partial_charge
C1    C     C_R   0.271646 0.044041 0.852565 0.581464
C2    C     C_R   0.695127 0.542246 0.033862 0.264105
C3    C     C_3   0.999941 0.326950 0.072845 -0.075365
C4    C     C_R   0.806601 0.041600 0.965587 0.247803
C5    C     C_R   0.195127 0.042246 0.033862 0.264105
C6    C     C_R   0.297578 0.529428 0.038310 0.424332
C7    C     C_R   0.698872 0.529741 0.960392 0.459473
C8    C     C_R   0.797578 0.029428 0.038310 0.424332
C9    C     C_R   0.198872 0.029741 0.960392 0.459473
C10   C     C_R   0.234872 0.566832 0.069192 -0.014952
C11   C     C_R   0.751953 0.587656 0.922794 -0.024592
C12   C     C_R   0.734872 0.066832 0.069192 -0.014952
C13   C     C_R   0.724553 0.038124 0.144110 0.604856
C14   C     C_R   0.251953 0.087656 0.922794 -0.024592
C15   C     C_R   0.177752 0.611226 0.025334 0.255336
C16   C     C_R   0.798112 0.665766 0.958722 0.206045
C17   C     C_R   0.677752 0.111226 0.025334 0.255336
C18   C     C_R   0.298112 0.165766 0.958722 0.206045
C19   C     C_R   0.183485 0.607537 0.952004 0.273490
C20   C     C_R   0.800505 0.667543 0.032178 0.270965
C21   C     C_R   0.683485 0.107537 0.952004 0.273490
C22   C     C_R   0.300505 0.167543 0.032178 0.270965
C23   C     C_R   0.249348 0.582774 0.921661 -0.052301
C24   C     C_R   0.771646 0.544041 0.852565 0.581464
C25   C     C_R   0.746985 0.609177 0.071272 -0.034633
C26   C     C_R   0.749348 0.082774 0.921661 -0.052301
C27   C     C_R   0.246985 0.109177 0.071272 -0.034633
C28   C     C_R   0.540307 0.723214 0.553126 0.218680
C29   C     C_R   0.551636 0.716922 0.480344 0.194315
C30   C     C_R   0.040307 0.223214 0.553126 0.218680
C31   C     C_R   0.051636 0.216922 0.480344 0.194315
C32   C     C_R   0.543907 0.823237 0.437297 -0.032486
C33   C     C_R   0.511037 0.830471 0.582009 -0.040237
C34   C     C_R   0.043907 0.323237 0.437297 -0.032486
C35   C     C_R   0.224553 0.538124 0.144110 0.604856
C36   C     C_R   0.011037 0.330471 0.582009 -0.040237
C37   C     C_R   0.525117 0.934317 0.469268 0.405242
C38   C     C_R   0.506995 0.937143 0.540388 0.406059
C39   C     C_R   0.025117 0.434317 0.469268 0.405242
C40   C     C_R   0.006994 0.437143 0.540388 0.406059
C41   C     C_R   0.436157 0.817147 0.861698 0.576527
C42   C     C_R   0.529199 0.821853 0.145057 0.629193
C43   C     C_R   0.936157 0.317147 0.861698 0.576527
C44   C     C_R   0.029199 0.321853 0.145057 0.629193
C45   C     C_R   0.209631 0.693498 0.523688 0.392360
C46   C     C_3   0.509619 0.738080 0.972598 0.400191
C47   C     C_R   0.726582 0.702207 0.476868 0.345002
C48   C     C_R   0.709631 0.193498 0.523688 0.392360
C49   C     C_R   0.226582 0.202207 0.476868 0.345002
C50   C     C_R   0.211293 0.687790 0.450949 0.250879
C51   C     C_R   0.732621 0.681603 0.549285 0.229285
C52   C     C_R   0.711293 0.187790 0.450949 0.250880
C53   C     C_R   0.232621 0.181603 0.549285 0.229285
C54   C     C_R   0.253253 0.597564 0.419636 -0.057527
C55   C     C_R   0.759113 0.569068 0.572938 0.007492
C56   C     C_R   0.753253 0.097564 0.419636 -0.057527
C57   C     C_3   0.463693 0.719647 0.037494 0.400710
C58   C     C_R   0.259113 0.069068 0.572938 0.007492
C59   C     C_R   0.303567 0.530854 0.461001 0.421733
C60   C     C_R   0.784096 0.481082 0.525544 0.391688
C61   C     C_R   0.803568 0.030854 0.461001 0.421733
C62   C     C_R   0.284096 0.981082 0.525544 0.391688
C63   C     C_R   0.304176 0.540872 0.534080 0.404880
C64   C     C_R   0.777718 0.501857 0.453325 0.396873
C65   C     C_R   0.804176 0.040872 0.534080 0.404880
C66   C     C_R   0.277718 0.001857 0.453325 0.396873
C67   C     C_R   0.255282 0.618435 0.566048 -0.031840
C68   C     C_3   0.009619 0.238080 0.972598 0.400191
C69   C     C_R   0.746749 0.610400 0.429589 0.021024
C70   C     C_R   0.755282 0.118435 0.566048 -0.031839
C71   C     C_R   0.246749 0.110400 0.429589 0.021024
C72   C     C_R   0.260681 0.633849 0.850972 0.583868
C73   C     C_R   0.738445 0.641370 0.146467 0.595633
C74   C     C_R   0.760681 0.133849 0.850972 0.583868
C75   C     C_R   0.238445 0.141370 0.146467 0.595633
C76   C     C_R   0.271671 0.045082 0.646231 0.641309
C77   C     C_R   0.730205 0.049323 0.352035 0.614186
C78   C     C_R   0.771671 0.545083 0.646231 0.641309
C79   C     C_3   0.963693 0.219646 0.037494 0.400710
C80   C     C_R   0.230205 0.549323 0.352035 0.614186
C81   C     C_R   0.472516 0.823241 0.648703 0.626938
C82   C     C_R   0.559807 0.818383 0.360987 0.616596
C83   C     C_R   0.972516 0.323241 0.648703 0.626938
C84   C     C_R   0.059807 0.318383 0.360987 0.616596
C85   C     C_R   0.261275 0.643044 0.641168 0.641999
C86   C     C_R   0.740430 0.637574 0.355979 0.648721
C87   C     C_R   0.761275 0.143044 0.641168 0.641999
C88   C     C_R   0.240430 0.137574 0.355979 0.648721
C89   C     C_3   0.443683 0.912698 0.041225 0.376030
C90   C     C_R   0.306601 0.541600 0.965587 0.247803
C91   C     C_3   0.488750 0.933232 0.975574 0.393786
C92   C     C_3   0.943683 0.412698 0.041225 0.376030
C93   C     C_3   0.988750 0.433232 0.975574 0.393786
C94   C     C_3   0.406684 0.806342 0.004457 0.094710
C95   C     C_3   0.545978 0.845930 0.007883 0.124077
C96   C     C_3   0.906684 0.306342 0.004457 0.094710
C97   C     C_3   0.045978 0.345930 0.007883 0.124077
C98   C     C_3   0.453199 0.825072 0.938947 -0.111710
C99   C     C_3   0.499941 0.826950 0.072845 -0.075365
C100  C     C_3   0.953198 0.325072 0.938947 -0.111710
Cl1   Cl    Cl    0.313652 0.813044 0.006438 -0.626921
Cl2   Cl    Cl    0.626252 0.466445 0.076093 -0.245981
Cl3   Cl    Cl    0.893409 0.022578 0.935380 -0.251845
Cl4   Cl    Cl    0.126252 0.966445 0.076093 -0.245981
Cl5   Cl    Cl    0.095655 0.664970 0.057964 -0.227308
Cl6   Cl    Cl    0.856597 0.760155 0.912757 -0.298415
Cl7   Cl    Cl    0.595655 0.164970 0.057964 -0.227308
Cl8   Cl    Cl    0.356597 0.260155 0.912757 -0.298415
Cl9   Cl    Cl    0.106697 0.636812 0.898395 -0.243059
Cl10  Cl    Cl    0.875443 0.739779 0.071029 -0.161786
Cl11  Cl    Cl    0.606697 0.136812 0.898395 -0.243059
Cl12  Cl    Cl    0.639218 0.843981 0.007714 -0.643001
Cl13  Cl    Cl    0.375443 0.239779 0.071029 -0.161786
Cl14  Cl    Cl    0.564328 0.594741 0.607200 -0.344879
Cl15  Cl    Cl    0.573319 0.571786 0.445663 -0.344670
Cl16  Cl    Cl    0.064328 0.094741 0.607200 -0.344879
Cl17  Cl    Cl    0.073319 0.071786 0.445663 -0.344670
Cl18  Cl    Cl    0.813652 0.313044 0.006438 -0.626921
Cl19  Cl    Cl    0.139218 0.343981 0.007714 -0.643001
Cl20  Cl    Cl    0.157420 0.792965 0.401448 -0.294874
Cl21  Cl    Cl    0.709185 0.797592 0.608905 -0.492952
Cl22  Cl    Cl    0.657420 0.292965 0.401448 -0.294874
Cl23  Cl    Cl    0.209184 0.297592 0.608905 -0.492952
Cl24  Cl    Cl    0.393409 0.522578 0.935380 -0.251845
Cr1   Cr    Cr6+3 0.229630 0.835900 0.747350 1.252517
Cr2   Cr    Cr6+3 0.614200 0.677120 0.250660 1.226936
Cr3   Cr    Cr6+3 0.885800 0.177120 0.749340 1.241843
Cr4   Cr    Cr6+3 0.114200 0.177120 0.250660 1.226936
Cr5   Cr    Cr6+3 0.770370 0.835900 0.252650 1.248153
Cr6   Cr    Cr6+3 0.729630 0.335900 0.747350 1.252517
Cr7   Cr    Cr6+3 0.270370 0.335900 0.252650 1.248153
Cr8   Cr    Cr6+3 0.387410 0.989850 0.750850 1.245467
Cr9   Cr    Cr6+3 0.612590 0.989850 0.249150 1.236908
Cr10  Cr    Cr6+3 0.887410 0.489850 0.750850 1.245467
Cr11  Cr    Cr6+3 0.112590 0.489850 0.249150 1.236908
Cr12  Cr    Cr6+3 0.385800 0.677120 0.749340 1.241843
F1    F     F_    0.164957 0.777055 0.552145 -0.488939
F2    F     F_    0.803691 0.419378 0.406980 -0.570060
F3    F     F_    0.851135 0.972285 0.573425 -0.486650
F4    F     F_    0.303691 0.919378 0.406980 -0.570060
F5    F     F_    0.410977 0.997273 0.082958 -0.526983
F6    F     F_    0.488715 0.048586 0.947313 -0.449776
F7    F     F_    0.910977 0.497273 0.082958 -0.526983
F8    F     F_    0.988715 0.548586 0.947313 -0.449776
F9    F     F_    0.544790 0.644968 0.938500 -0.454507
F10   F     F_    0.457276 0.609139 0.071321 -0.428193
F11   F     F_    0.044790 0.144968 0.938500 -0.454507
F12   F     F_    0.701986 0.811745 0.452152 -0.648955
F13   F     F_    0.957276 0.109139 0.071321 -0.428193
F14   F     F_    0.352096 0.489650 0.080263 -0.459004
F15   F     F_    0.652295 0.456390 0.926464 -0.460666
F16   F     F_    0.852097 0.989650 0.080263 -0.459004
F17   F     F_    0.152295 0.956390 0.926464 -0.460666
F18   F     F_    0.520157 0.039769 0.431215 -0.494329
F19   F     F_    0.482298 0.043510 0.567257 -0.497456
F20   F     F_    0.020157 0.539769 0.431215 -0.494329
F21   F     F_    0.982298 0.543510 0.567257 -0.497456
F22   F     F_    0.664957 0.277055 0.552145 -0.488938
F23   F     F_    0.201986 0.311745 0.452152 -0.648955
F24   F     F_    0.348692 0.449360 0.431611 -0.487074
F25   F     F_    0.818117 0.378588 0.549780 -0.630993
F26   F     F_    0.848692 0.949360 0.431611 -0.487075
F27   F     F_    0.318117 0.878588 0.549780 -0.630993
F28   F     F_    0.351135 0.472285 0.573425 -0.486650
O1    O     O_R   0.214270 0.709000 0.827470 -0.431976
O2    O     O_R   0.543270 0.717630 0.330160 -0.442415
O3    O     O_R   0.956730 0.217630 0.669840 -0.439188
O4    O     O_R   0.043270 0.217630 0.330160 -0.442415
O5    O     O_R   0.320620 0.625640 0.672920 -0.442076
O6    O     O_R   0.679380 0.625640 0.327080 -0.471467
O7    O     O_R   0.820620 0.125640 0.672920 -0.442076
O8    O     O_R   0.179380 0.125640 0.327080 -0.471467
O9    O     O_3   0.334280 0.834290 0.749180 -0.387170
O10   O     O_3   0.665720 0.834290 0.250820 -0.381396
O11   O     O_3   0.834280 0.334290 0.749180 -0.387170
O12   O     O_R   0.785730 0.709000 0.172530 -0.440486
O13   O     O_3   0.165720 0.334290 0.250820 -0.381396
O14   O     O_R   0.236160 0.958490 0.823130 -0.440546
O15   O     O_R   0.763840 0.958490 0.176870 -0.440788
O16   O     O_R   0.736160 0.458490 0.823130 -0.440546
O17   O     O_R   0.263840 0.458490 0.176870 -0.440788
O18   O     O_R   0.332080 0.075470 0.831280 -0.450459
O19   O     O_R   0.667920 0.075470 0.168720 -0.462199
O20   O     O_R   0.832080 0.575470 0.831280 -0.450459
O21   O     O_R   0.167920 0.575470 0.168720 -0.462199
O22   O     O_R   0.446300 0.918110 0.826620 -0.435924
O23   O     O_R   0.714270 0.209000 0.827470 -0.431976
O24   O     O_R   0.553700 0.918110 0.173380 -0.454621
O25   O     O_R   0.946300 0.418110 0.826620 -0.435924
O26   O     O_R   0.053700 0.418110 0.173380 -0.454621
O27   O     O_R   0.457110 0.716200 0.831760 -0.398765
O28   O     O_R   0.542890 0.716200 0.168240 -0.424567
O29   O     O_R   0.957110 0.216200 0.831760 -0.398765
O30   O     O_R   0.042890 0.216200 0.168240 -0.424567
O31   O     O_R   0.320980 0.624310 0.823030 -0.484567
O32   O     O_R   0.679020 0.624310 0.176970 -0.464962
O33   O     O_R   0.820980 0.124310 0.823030 -0.484567
O34   O     O_R   0.285730 0.209000 0.172530 -0.440486
O35   O     O_R   0.179020 0.124310 0.176970 -0.464962
O36   O     O_R   0.213890 0.710430 0.665540 -0.421398
O37   O     O_R   0.786110 0.710430 0.334460 -0.433786
O38   O     O_R   0.713890 0.210430 0.665540 -0.421398
O39   O     O_R   0.286110 0.210430 0.334460 -0.433786
O40   O     O_R   0.235810 0.959820 0.673020 -0.442546
O41   O     O_R   0.764190 0.959820 0.326980 -0.424942
O42   O     O_R   0.735810 0.459820 0.673020 -0.442546
O43   O     O_R   0.264190 0.459820 0.326980 -0.424942
O44   O     O_R   0.331700 0.076900 0.669350 -0.437325
O45   O     O_R   0.445950 0.919440 0.676520 -0.428040
O46   O     O_R   0.668300 0.076900 0.330650 -0.449076
O47   O     O_R   0.831700 0.576900 0.669350 -0.437325
O48   O     O_R   0.168300 0.576900 0.330650 -0.449076
O49   O     O_R   0.554050 0.919440 0.323480 -0.424077
O50   O     O_R   0.945950 0.419440 0.676520 -0.428040
O51   O     O_R   0.054050 0.419440 0.323480 -0.424077
O52   O     O_R   0.456730 0.717630 0.669840 -0.439188

loop_
_geom_bond_atom_site_label_1
_geom_bond_atom_site_label_2
_ccdc_geom_bond_type
C58   C62   A    
C81   O45   A    
C21   C26   A    
Cr1   O40   S    
C88   O8    A    
C53   C58   A    
C24   O20   A    
C72   O1    A    
C14   C18   A    
C19   C23   A    
C2    C7    A    
C4    C8    A    
Cr7   O43   S    
C72   O31   A    
C68   C100  S    
Cr7   O13   S    
C58   C76   S    
Cr11  O26   S    
C30   Cl16  S    
C7    C11   A    
Cr5   O15   S    
C50   C54   A    
C89   C99   S    
Cr2   O6    S    
Cr10  O25   S    
C96   Cl18  S    
C28   C29   A    
C8    F16   S    
Cr4   O30   S    
C15   C19   A    
C29   C32   A    
C95   Cl12  S    
C17   Cl7   S    
C30   C31   A    
C95   C99   S    
Cr2   O32   S    
C46   F9    S    
C20   C25   A    
C2    Cl2   S    
C36   C83   S    
Cr3   O7    S    
C65   C70   A    
C57   C99   S    
C4    Cl3   S    
C11   C24   S    
C92   C96   S    
C76   O44   A    
C59   F24   S    
C89   C94   S    
C92   F7    S    
C68   C97   S    
C31   Cl17  S    
Cr9   O24   S    
C44   O26   A    
C5    C27   A    
C52   Cl22  S    
Cr9   O19   S    
C22   Cl13  S    
C47   C69   A    
C46   C95   S    
C66   C71   A    
C94   Cl1   S    
C13   O19   A    
C12   C17   A    
C24   O16   A    
Cr5   O12   S    
C10   C35   S    
C8    C12   A    
C89   C91   S    
Cr7   O39   S    
Cr9   O10   S    
C87   O38   A    
C25   C73   S    
Cr6   O38   S    
C84   O51   A    
C35   O21   A    
C79   F13   S    
C91   F6    S    
Cr8   O18   S    
C68   C79   S    
Cr11  O48   S    
C29   Cl15  S    
C5    Cl4   S    
Cr1   O9    S    
C88   O39   A    
C86   O6    A    
C55   C60   A    
Cr9   O46   S    
C34   C84   S    
C38   F19   S    
C27   C75   S    
C70   C87   S    
Cr3   O33   S    
C80   O48   A    
C21   Cl11  S    
C60   C64   A    
C54   C80   S    
C54   C59   A    
C19   Cl9   S    
Cr3   O11   S    
C63   F28   S    
Cr11  O51   S    
C3    C44   S    
C67   C85   S    
Cr10  O11   S    
C62   C66   A    
Cr12  O27   S    
C61   F26   S    
C40   F21   S    
C36   C40   A    
Cr7   O34   S    
C43   C100  S    
Cr1   O36   S    
Cr12  O31   S    
C53   Cl23  S    
Cr8   O22   S    
C39   C40   A    
C55   C78   S    
C41   O27   A    
Cr6   O23   S    
C92   C93   S    
C47   C51   A    
C6    C90   A    
C48   F22   S    
C85   O5    A    
C56   C77   S    
C34   C39   A    
Cr10  O20   S    
C3    C92   S    
C6    F14   S    
C97   Cl19  S    
Cr12  O5    S    
Cr1   O1    S    
C9    C14   A    
C78   O42   A    
C63   C67   A    
C5    C9    A    
C37   C38   A    
Cr6   O42   S    
C77   O41   A    
C82   O49   A    
Cr5   O41   S    
C1    O14   A    
C3    C97   S    
C85   O36   A    
C4    C26   A    
C62   F27   S    
C93   C100  S    
C74   O33   A    
C48   C52   A    
C16   C20   A    
C87   O7    A    
C45   F1    S    
C60   F25   S    
C31   C34   A    
C56   C61   A    
C32   C37   A    
C12   C13   S    
Cr2   O28   S    
C93   F8    S    
C86   O37   A    
Cr11  O13   S    
C3    C79   S    
C68   F11   S    
C28   Cl14  S    
C77   O46   A    
C7    F15   S    
C28   C33   A    
Cr8   O44   S    
C75   O35   A    
C57   C94   S    
C46   C57   S    
C51   Cl21  S    
C20   Cl10  S    
Cr5   O10   S    
C93   C97   S    
C64   F2    S    
C83   O50   A    
C32   C82   S    
C74   O23   A    
C82   O2    A    
C75   O34   A    
C42   O24   A    
Cr12  O9    S    
Cr10  O47   S    
C10   C15   A    
C18   C22   A    
C90   Cl24  S    
C37   F18   S    
C49   F23   S    
Cr8   O45   S    
C33   C38   A    
C48   C70   A    
Cr2   O2    S    
Cr2   O10   S    
C6    C10   A    
C61   C65   A    
C1    O18   A    
C76   O40   A    
Cr4   O8    S    
C45   C67   A    
C1    C14   S    
C16   Cl6   S    
Cr6   O11   S    
C35   O17   A    
C64   C69   A    
C43   O29   A    
C59   C63   A    
C50   Cl20  S    
Cr10  O50   S    
C30   C36   A    
C39   F20   S    
C22   C27   A    
Cr9   O49   S    
C15   Cl5   S    
C73   O12   A    
Cr3   O29   S    
Cr4   O35   S    
Cr5   O37   S    
C79   C96   S    
C13   O15   A    
C42   C99   S    
C23   C90   A    
C81   O52   A    
Cr7   O17   S    
C89   F5    S    
C83   O3    A    
C45   C50   A    
C49   C53   A    
C96   C100  S    
C44   O30   A    
C26   C74   S    
C41   O22   A    
C2    C25   A    
C51   C55   A    
Cr8   O9    S    
C91   C98   S    
C46   C98   S    
C18   Cl8   S    
C11   C16   A    
C23   C72   S    
C9    F17   S    
C71   C88   S    
C65   F3    S    
C42   O28   A    
Cr6   O16   S    
C80   O43   A    
C66   F4    S    
C84   O4    A    
C43   O25   A    
C91   C95   S    
Cr3   O3    S    
C49   C71   A    
C73   O32   A    
Cr1   O14   S    
Cr4   O4    S    
C94   C98   S    
C41   C98   S    
C47   F12   S    
Cr4   O13   S    
C57   F10   S    
C33   C81   S    
C78   O47   A    
Cr11  O21   S    
C69   C86   S    
C52   C56   A    
Cr12  O52   S    
C17   C21   A    
