data_mof_unit_30829.cif
_audit_creation_date              2012-12-10T16:57:03-0500
_audit_creation_method            fapswitch 2.2
_symmetry_space_group_name_H-M    P1
_symmetry_Int_Tables_number       1
_space_group_crystal_system       triclinic
_cell_length_a                    7.756417
_cell_length_b                    8.634745
_cell_length_c                    16.535332
_cell_angle_alpha                 91.757475
_cell_angle_beta                  80.902796
_cell_angle_gamma                 93.585427
_cell_volume                      1091.1355411

loop_
_atom_site_label
_atom_site_type_symbol
_atom_type_description
_atom_site_fract_x
_atom_site_fract_y
_atom_site_fract_z
_atom_type_partial_charge
C1    C     C_R   0.545756 0.794407 0.497857 0.874155
C2    C     C_R   0.432476 0.671477 0.241220 0.619082
C3    C     C_R   0.623280 0.579634 0.859072 -0.233267
C4    C     C_R   0.465293 0.738943 0.164920 -0.240295
C5    C     C_R   0.481542 0.658635 0.900912 0.106415
C6    C     C_R   0.609251 0.697371 0.107907 0.095933
C7    C     C_R   0.332794 0.672254 0.864375 -0.172001
C8    C     C_R   0.727577 0.596481 0.129853 -0.154374
C9    C     C_R   0.328499 0.614435 0.785429 -0.243000
C10   C     C_R   0.696342 0.529848 0.206664 -0.241607
C11   C     C_2   0.475298 0.707977 0.986675 -0.179564
C12   C     C_R   0.454264 0.205584 0.501961 0.871834
C13   C     C_2   0.619767 0.732008 0.021359 -0.189566
C14   C     C_2   0.570287 0.956692 0.496709 0.284024
C15   C     C_2   0.429775 0.043256 0.502737 0.293047
C16   C     C_R   0.478469 0.505846 0.654955 0.888380
C17   C     C_R   0.523895 0.507606 0.345525 0.879467
C18   C     C_R   0.473218 0.541668 0.742101 -0.171595
C19   C     C_R   0.546338 0.563704 0.262054 -0.172901
C20   C     C_R   0.619704 0.522019 0.780118 0.620583
F1    F     F_    0.759710 0.447766 0.741236 -0.653144
F2    F     F_    0.291863 0.715015 0.294955 -0.634462
F3    F     F_    0.738857 0.016768 0.489675 -0.611764
F4    F     F_    0.261234 0.983160 0.509593 -0.605136
H1    H     H_    0.748268 0.739525 0.984017 0.149295
H2    H     H_    0.977022 0.619457 0.560551 0.226021
H3    H     H_    0.347075 0.700039 0.024434 0.150817
H4    H     H_    0.220178 0.728323 0.896885 0.148045
H5    H     H_    0.838909 0.562943 0.086064 0.144868
H6    H     H_    0.788246 0.450789 0.222513 0.188211
H7    H     H_    0.213907 0.631239 0.757548 0.207581
H8    H     H_    0.374898 0.819678 0.149317 0.166027
H9    H     H_    0.735565 0.558233 0.887549 0.154623
H10   H     H_    0.022971 0.380511 0.439473 0.218088
N1    N     N_2   0.953500 0.457650 0.478520 -0.125282
N2    N     N_2   0.046500 0.542350 0.521480 -0.116823
O1    O     O_R   0.388470 0.738640 0.505270 -0.562286
O2    O     O_R   0.611530 0.261360 0.494730 -0.571467
O3    O     O_R   0.679650 0.711510 0.491500 -0.585066
O4    O     O_R   0.320350 0.288490 0.508500 -0.582172
O5    O     O_R   0.337210 0.515200 0.623500 -0.622773
O6    O     O_R   0.662790 0.484800 0.376500 -0.621352
O7    O     O_R   0.628380 0.488060 0.609730 -0.568594
O8    O     O_R   0.371620 0.511940 0.390270 -0.570008
Zn1   Zn    Zn3+2 0.305580 0.518120 0.509190 1.074632
Zn2   Zn    Zn3+2 0.694420 0.481880 0.490810 1.067373

loop_
_geom_bond_atom_site_label_1
_geom_bond_atom_site_label_2
_ccdc_geom_bond_type
C14   F3    S    
C2    F2    S    
C2    C4    A    
C12   O4    A    
C1    O1    A    
C10   H6    S    
C1    O3    A    
N1    N2    D    
C12   C15   S    
C11   H3    S    
C10   C19   A    
C17   O8    A    
N2    Zn1   S    
C3    H9    S    
C20   F1    S    
C6    C13   S    
C11   C13   D    
C16   O7    A    
C13   H1    S    
C4    H8    S    
O3    Zn2   S    
C8    H5    S    
H2    N2    S    
C15   F4    S    
C17   C19   S    
C5    C11   S    
C18   C20   A    
C12   O2    A    
O4    Zn1   S    
O7    Zn2   S    
O2    Zn2   S    
C4    C6    A    
C9    H7    S    
O1    Zn1   S    
C7    C9    A    
C9    C18   A    
C3    C20   A    
O8    Zn1   S    
C16   C18   S    
H10   N1    S    
O6    Zn2   S    
C5    C7    A    
O5    Zn1   S    
C14   C15   D    
C6    C8    A    
C1    C14   S    
C2    C19   A    
C17   O6    A    
N1    Zn2   S    
C16   O5    A    
C8    C10   A    
C7    H4    S    
C3    C5    A    
