data_mof_unit_45028.cif
_audit_creation_date              2012-12-11T17:04:54-0500
_audit_creation_method            fapswitch 2.2
_symmetry_space_group_name_H-M    P1
_symmetry_Int_Tables_number       1
_space_group_crystal_system       triclinic
_cell_length_a                    17.573265
_cell_length_b                    24.566775
_cell_length_c                    15.15098
_cell_angle_alpha                 90.260561
_cell_angle_beta                  126.31767
_cell_angle_gamma                 89.938499
_cell_volume                      5270.2830633

loop_
_atom_site_label
_atom_site_type_symbol
_atom_type_description
_atom_site_fract_x
_atom_site_fract_y
_atom_site_fract_z
_atom_type_partial_charge
C1    C     C_R   0.856657 0.653630 0.907890 -0.093186
C2    C     C_R   0.038625 0.498731 0.715838 0.034338
C3    C     C_R   0.768409 0.045686 0.288228 -0.134968
C4    C     C_R   0.812188 0.376042 0.906511 -0.099950
C5    C     C_R   0.159321 0.353754 0.090390 -0.064652
C6    C     C_R   0.323224 0.863422 0.910897 -0.108656
C7    C     C_R   0.685954 0.872561 0.089746 -0.112601
C8    C     C_R   0.938865 0.651705 0.089437 -0.096086
C9    C     C_R   0.058728 0.652937 0.913032 -0.095587
C10   C     C_R   0.443752 0.151891 0.090670 -0.121392
C11   C     C_R   0.559763 0.150773 0.909820 -0.107036
C12   C     C_R   0.878504 0.682907 0.998207 -0.006404
C13   C     C_R   0.483606 0.000590 0.306044 0.022617
C14   C     C_R   0.117202 0.684126 0.005481 0.000130
C15   C     C_R   0.381314 0.182464 0.001524 -0.052189
C16   C     C_R   0.624980 0.180686 0.000061 -0.055467
C17   C     C_2   0.844169 0.679204 0.811091 0.937538
C18   C     C_2   0.159403 0.676452 0.195748 0.938241
C19   C     C_2   0.300852 0.174151 0.797787 0.943724
C20   C     C_2   0.712612 0.171224 0.204869 0.916982
C21   C     C_2   0.530318 0.398584 0.563845 0.973696
C22   C     C_2   0.496999 0.415198 0.323499 1.076122
C23   C     C_2   0.016631 0.904564 0.651503 0.976606
C24   C     C_R   0.441910 0.997983 0.639308 -0.020965
C25   C     C_2   0.985437 0.908671 0.410236 1.035759
C26   C     C_2   0.667631 0.402677 0.098349 1.085531
C27   C     C_2   0.316594 0.401976 0.995603 1.062736
C28   C     C_2   0.439490 0.793355 0.307414 1.049379
C29   C     C_2   0.565057 0.797311 0.696832 1.055182
C30   C     C_2   0.038861 0.599715 0.335215 1.039468
C31   C     C_2   0.006480 0.599554 0.700878 1.025038
C32   C     C_2   0.524579 0.100598 0.322281 1.013970
C33   C     C_2   0.440450 0.100184 0.656261 1.052056
C34   C     C_R   0.679138 0.499272 0.658893 0.040133
C35   C     C_R   0.323890 0.499664 0.272461 0.039603
C36   C     C_R   0.175229 0.999850 0.718975 0.057701
C37   C     C_R   0.821343 0.999559 0.336540 0.056324
C38   C     C_3   0.518344 0.451217 0.507035 -0.109655
C39   C     C_3   0.500866 0.458815 0.395850 -0.136176
C40   C     C_3   0.006157 0.953744 0.587020 -0.104445
C41   C     C_R   0.141855 0.653556 0.094262 -0.109530
C42   C     C_3   0.988608 0.956236 0.475163 -0.120434
C43   C     C_3   0.439902 0.491924 0.475677 -0.159557
C44   C     C_3   0.572676 0.506560 0.442980 -0.179818
C45   C     C_3   0.928444 0.996638 0.550640 -0.161125
C46   C     C_3   0.060707 0.002614 0.515164 -0.178087
C47   C     C_3   0.422817 0.499617 0.364070 0.060761
C48   C     C_3   0.588245 0.498675 0.553290 0.077467
C49   C     C_3   0.912572 0.999021 0.439523 0.076795
C50   C     C_3   0.077678 0.999910 0.627159 0.078874
C51   C     C_3   0.492557 0.547545 0.409937 -0.131248
C52   C     C_R   0.350169 0.152264 0.909276 -0.067277
C53   C     C_3   0.510388 0.539665 0.522030 -0.090062
C54   C     C_3   0.983873 0.045656 0.479164 -0.133315
C55   C     C_3   0.002086 0.043202 0.592229 -0.107824
C56   C     C_R   0.723322 0.320115 0.052179 0.111382
C57   C     C_R   0.254353 0.307029 0.968163 0.077473
C58   C     C_R   0.293362 0.793396 0.109562 0.114771
C59   C     C_R   0.713699 0.799319 0.893375 0.120762
C60   C     C_R   0.754909 0.320344 0.987518 0.060712
C61   C     C_R   0.198232 0.290406 0.999354 0.033224
C62   C     C_R   0.265843 0.815806 0.010030 0.003319
C63   C     C_R   0.654348 0.151103 0.091898 -0.017443
C64   C     C_R   0.746526 0.827523 0.990335 0.010920
C65   C     C_R   0.733097 0.275780 0.917642 -0.187074
C66   C     C_R   0.208120 0.238085 0.040390 -0.187389
C67   C     C_R   0.172490 0.808529 0.916783 -0.134311
C68   C     C_R   0.838878 0.817407 0.084104 -0.170904
C69   C     C_R   0.904178 0.373709 0.090141 -0.141629
C70   C     C_R   0.067606 0.354405 0.906766 -0.105236
C71   C     C_R   0.417221 0.864822 0.093906 -0.112043
C72   C     C_R   0.593737 0.875870 0.906409 -0.134276
C73   C     C_R   0.115178 0.769744 0.917858 -0.138018
C74   C     C_R   0.815971 0.360945 0.995886 0.102625
C75   C     C_R   0.888712 0.772221 0.086098 -0.129452
C76   C     C_R   0.686471 0.231245 0.919889 -0.142729
C77   C     C_R   0.271204 0.202635 0.043293 -0.141507
C78   C     C_R   0.153006 0.737949 0.011851 0.075494
C79   C     C_R   0.845355 0.737599 0.994279 0.071644
C80   C     C_R   0.661465 0.230461 0.992340 0.076950
C81   C     C_R   0.325016 0.220547 0.007489 0.092353
C82   C     C_R   0.238976 0.753401 0.108837 0.223079
C83   C     C_R   0.760905 0.754013 0.897718 0.226354
C84   C     C_R   0.678140 0.276609 0.055060 0.126969
C85   C     C_R   0.138268 0.327842 0.998373 0.059009
C86   C     C_R   0.316356 0.273377 0.972918 0.165980
C87   C     C_3   0.323021 0.719848 0.192228 -0.589068
C88   C     C_3   0.673230 0.722259 0.818011 -0.579542
C89   C     C_3   0.671111 0.301919 0.140099 -0.480438
C90   C     C_3   0.347830 0.313939 0.927729 -0.517725
C91   C     C_3   0.724806 0.351026 0.138075 -0.326689
C92   C     C_3   0.275284 0.352903 0.921100 -0.288246
C93   C     C_3   0.383621 0.765007 0.197121 -0.307088
C94   C     C_3   0.619474 0.772496 0.809795 -0.307203
C95   C     C_R   0.954839 0.513880 0.523464 0.134486
C96   C     C_R   0.333294 0.845454 0.004033 0.070253
C97   C     C_R   0.949481 0.514730 0.430152 0.207381
C98   C     C_R   0.385876 0.027070 0.458310 0.146423
C99   C     C_R   0.398918 0.029103 0.377894 0.251041
C100  C     C_R   0.037826 0.497736 0.622016 0.002568
C101  C     C_R   0.026418 0.497935 0.433973 0.000551
C102  C     C_R   0.445762 0.995053 0.549670 0.014984
C103  C     C_R   0.472407 0.999969 0.390203 0.009696
C104  C     C_R   0.119209 0.486275 0.629318 -0.124536
C105  C     C_R   0.113352 0.486224 0.533675 -0.182226
C106  C     C_R   0.524969 0.969814 0.567000 -0.105076
C107  C     C_R   0.680378 0.859239 0.996677 0.069952
C108  C     C_R   0.538470 0.972308 0.486699 -0.164817
C109  C     C_3   0.850964 0.492803 0.361978 -0.413180
C110  C     C_3   0.856931 0.491908 0.465964 -0.481525
C111  C     C_3   0.295701 0.025516 0.288066 -0.451892
C112  C     C_3   0.281020 0.022926 0.376975 -0.494246
C113  C     C_R   0.018831 0.545159 0.285762 -0.160562
C114  C     C_R   0.014353 0.545148 0.746094 -0.160376
C115  C     C_R   0.501320 0.046606 0.269310 -0.203574
C116  C     C_R   0.455947 0.044373 0.698224 -0.168440
C117  C     C_R   0.735540 0.454508 0.707369 -0.106444
C118  C     C_R   0.017607 0.498706 0.335531 -0.003587
C119  C     C_R   0.268016 0.454628 0.248905 -0.081477
C120  C     C_R   0.230655 0.954818 0.742906 -0.123639
C121  C     C_R   0.765337 0.954509 0.289044 -0.160049
C122  C     C_R   0.025664 0.453967 0.288458 -0.131094
C123  C     C_R   0.011651 0.453952 0.744892 -0.099291
C124  C     C_R   0.504640 0.955076 0.271872 -0.099307
C125  C     C_R   0.452779 0.953826 0.698980 -0.101802
C126  C     C_R   0.731003 0.545439 0.711934 -0.082313
C127  C     C_R   0.268812 0.545541 0.245017 -0.054828
C128  C     C_R   0.230299 0.045705 0.748887 -0.114475
H1    H     H_    0.480441 0.586873 0.367685 0.135247
H2    H     H_    0.956214 0.762031 0.161442 0.174860
H3    H     H_    0.674876 0.196244 0.869405 0.169335
H4    H     H_    0.276736 0.161259 0.071103 0.149684
H5    H     H_    0.328580 0.681437 0.157237 0.198733
H6    H     H_    0.663567 0.687295 0.856888 0.206278
H7    H     H_    0.712807 0.280790 0.220016 0.227331
H8    H     H_    0.328688 0.302014 0.846117 0.227118
H9    H     H_    0.329655 0.714571 0.269377 0.214516
H10   H     H_    0.666034 0.711936 0.741828 0.207214
H11   H     H_    0.596610 0.310221 0.107718 0.197568
H12   H     H_    0.515652 0.572507 0.575997 0.131512
H13   H     H_    0.423261 0.325021 0.988754 0.220289
H14   H     H_    0.797272 0.356255 0.214901 0.123153
H15   H     H_    0.214130 0.362664 0.835928 0.130811
H16   H     H_    0.427077 0.752420 0.169238 0.146050
H17   H     H_    0.576009 0.766057 0.840173 0.147198
H18   H     H_    0.185066 0.476305 0.707036 0.142969
H19   H     H_    0.174876 0.476220 0.536611 0.141423
H20   H     H_    0.576299 0.948740 0.642641 0.176041
H21   H     H_    0.598920 0.952188 0.498834 0.147167
H22   H     H_    0.846049 0.451570 0.328297 0.190676
H23   H     H_    0.973287 0.083081 0.432330 0.139394
H24   H     H_    0.808642 0.521492 0.465151 0.197659
H25   H     H_    0.275786 0.987295 0.239346 0.212088
H26   H     H_    0.244324 0.059287 0.378882 0.217571
H27   H     H_    0.931828 0.362646 0.172892 0.101789
H28   H     H_    0.030859 0.341293 0.822661 0.095077
H29   H     H_    0.450913 0.855186 0.177828 0.095295
H30   H     H_    0.567195 0.873102 0.822103 0.112882
H31   H     H_    0.799306 0.522925 0.301081 0.211547
H32   H     H_    0.855414 0.450143 0.492924 0.206274
H33   H     H_    0.268174 0.063523 0.239137 0.209256
H34   H     H_    0.009986 0.078467 0.643129 0.130833
H35   H     H_    0.252659 0.983163 0.380405 0.221083
H36   H     H_    0.721346 0.413586 0.674715 0.100186
H37   H     H_    0.291277 0.413223 0.272395 0.150661
H38   H     H_    0.206120 0.914179 0.712074 0.105537
H39   H     H_    0.780162 0.913608 0.320606 0.159133
H40   H     H_    0.040352 0.412696 0.318732 0.105752
H41   H     H_    0.010235 0.412328 0.721036 0.095867
H42   H     H_    0.513181 0.914369 0.302449 0.132806
H43   H     H_    0.438709 0.911822 0.671957 0.122803
H44   H     H_    0.707470 0.586654 0.686676 0.151661
H45   H     H_    0.756942 0.273659 0.866146 0.138384
H46   H     H_    0.292720 0.587158 0.256903 0.135756
H47   H     H_    0.205226 0.086967 0.730802 0.120013
H48   H     H_    0.789211 0.086427 0.319918 0.135601
H49   H     H_    0.755963 0.367779 0.821722 0.122352
H50   H     H_    0.207308 0.340356 0.174245 0.112386
H51   H     H_    0.270315 0.850410 0.827963 0.107310
H52   H     H_    0.743332 0.863717 0.173568 0.124293
H53   H     H_    0.983285 0.666859 0.172136 0.152500
H54   H     H_    0.014370 0.668465 0.830844 0.151861
H55   H     H_    0.487386 0.166494 0.173897 0.181707
H56   H     H_    0.166590 0.224708 0.067813 0.143215
H57   H     H_    0.513693 0.166000 0.827488 0.173350
H58   H     H_    0.384178 0.485968 0.488123 0.137243
H59   H     H_    0.629938 0.512652 0.433236 0.153043
H60   H     H_    0.871310 0.994052 0.561414 0.140368
H61   H     H_    0.116946 0.005477 0.502832 0.154060
H62   H     H_    0.810148 0.670635 0.660099 0.356009
H63   H     H_    0.215903 0.666561 0.354745 0.363080
H64   H     H_    0.201881 0.224992 0.681930 0.330053
H65   H     H_    0.836655 0.204120 0.328350 0.322396
H66   H     H_    0.541173 0.316887 0.565021 0.341472
H67   H     H_    0.147138 0.828848 0.841095 0.155978
H68   H     H_    0.432912 0.347539 0.232916 0.332036
H69   H     H_    0.014438 0.822613 0.658646 0.329225
H70   H     H_    0.934956 0.833583 0.348818 0.329562
H71   H     H_    0.606112 0.461814 0.128571 0.335871
H72   H     H_    0.426597 0.453464 0.086128 0.332948
H73   H     H_    0.555202 0.792166 0.464415 0.338056
H74   H     H_    0.448546 0.793832 0.540462 0.337722
H75   H     H_    0.179411 0.587199 0.432875 0.295231
H76   H     H_    0.864484 0.597672 0.603374 0.292978
H77   H     H_    0.659025 0.097860 0.371119 0.299209
H78   H     H_    0.868576 0.840948 0.158228 0.149125
H79   H     H_    0.299281 0.095139 0.574154 0.290649
H80   H     H_    0.046823 0.760650 0.842429 0.164446
N1    N     N_R   0.892620 0.603790 0.941770 -0.060219
N2    N     N_R   0.973690 0.529110 0.793240 -0.062638
N3    N     N_R   0.526310 0.029110 0.206760 -0.068513
N4    N     N_R   0.473690 0.029110 0.793240 -0.058336
N5    N     N_R   0.818570 0.472310 0.793020 -0.050134
N6    N     N_R   0.181430 0.472310 0.206980 -0.060622
N7    N     N_R   0.318570 0.972310 0.793020 -0.047331
N8    N     N_R   0.681430 0.972310 0.206980 -0.043889
N9    N     N_R   0.026930 0.472300 0.207330 -0.041720
N10   N     N_R   0.973070 0.472300 0.792670 -0.047378
N11   N     N_R   0.526930 0.972300 0.207330 -0.049594
N12   N     N_R   0.107380 0.603790 0.058230 -0.065026
N13   N     N_R   0.473070 0.972300 0.792670 -0.047036
N14   N     N_R   0.817960 0.529130 0.792460 -0.031975
N15   N     N_R   0.182040 0.529130 0.207540 -0.035055
N16   N     N_R   0.317960 0.029130 0.792460 -0.043523
N17   N     N_R   0.682040 0.029130 0.207540 -0.047481
N18   N     N_R   0.894850 0.397640 0.943830 -0.055591
N19   N     N_R   0.105150 0.397640 0.056170 -0.036593
N20   N     N_R   0.394850 0.897640 0.943830 -0.044542
N21   N     N_R   0.605150 0.897640 0.056170 -0.044259
N22   N     N_R   0.950040 0.603780 0.055950 -0.063415
N23   N     N_R   0.392620 0.103790 0.941770 -0.065626
N24   N     N_R   0.049960 0.603780 0.944050 -0.057082
N25   N     N_R   0.450040 0.103780 0.055950 -0.055607
N26   N     N_R   0.549960 0.103780 0.944050 -0.053231
N27   N     N_R   0.607380 0.103790 0.058230 -0.070845
N28   N     N_R   0.952270 0.397640 0.058010 -0.047100
N29   N     N_R   0.047730 0.397640 0.941990 -0.033175
N30   N     N_R   0.452270 0.897640 0.058010 -0.045142
N31   N     N_R   0.547730 0.897640 0.941990 -0.045589
N32   N     N_R   0.026310 0.529110 0.206760 -0.060995
Ni1   Ni    Ni4+2 0.934160 0.565860 0.869070 0.259885
Ni2   Ni    Ni4+2 0.065840 0.565860 0.130930 0.259372
Ni3   Ni    Ni4+2 0.434160 0.065860 0.869070 0.259768
Ni4   Ni    Ni4+2 0.565840 0.065860 0.130930 0.248066
Ni5   Ni    Ni4+2 0.067260 0.435560 0.132230 0.224425
Ni6   Ni    Ni4+2 0.932740 0.435560 0.867770 0.225628
Ni7   Ni    Ni4+2 0.567260 0.935560 0.132230 0.223787
Ni8   Ni    Ni4+2 0.432740 0.935560 0.867770 0.227469
O1    O     O_2   0.857573 0.728032 0.810729 -0.630124
O2    O     O_R   0.532209 0.349368 0.518706 -0.771577
O3    O     O_2   0.554425 0.415453 0.302733 -0.608877
O4    O     O_R   0.428543 0.374302 0.280892 -0.787698
O5    O     O_2   0.027410 0.910421 0.738403 -0.638364
O6    O     O_R   0.012245 0.852501 0.611346 -0.760386
O7    O     O_2   0.034898 0.908840 0.378103 -0.642116
O8    O     O_R   0.927875 0.863914 0.388989 -0.781533
O9    O     O_2   0.643437 0.423531 0.012144 -0.622719
O10   O     O_R   0.643710 0.427101 0.162295 -0.747881
O11   O     O_2   0.268087 0.427657 0.014553 -0.649662
O12   O     O_R   0.823587 0.647551 0.723158 -0.840089
O13   O     O_R   0.408400 0.419378 0.039649 -0.773011
O14   O     O_2   0.411539 0.836014 0.320964 -0.653856
O15   O     O_R   0.523517 0.769874 0.394531 -0.784572
O16   O     O_2   0.595669 0.837081 0.678752 -0.667594
O17   O     O_R   0.479077 0.773991 0.612533 -0.778101
O18   O     O_2   0.973491 0.628616 0.313870 -0.597712
O19   O     O_R   0.131388 0.616053 0.416438 -0.745966
O20   O     O_2   0.077619 0.622707 0.724034 -0.579135
O21   O     O_R   0.918471 0.623042 0.625020 -0.761160
O22   O     O_2   0.465755 0.125414 0.324908 -0.600882
O23   O     O_2   0.138141 0.723650 0.197762 -0.630469
O24   O     O_R   0.614144 0.123318 0.372152 -0.719585
O25   O     O_2   0.507216 0.126437 0.674217 -0.608894
O26   O     O_R   0.349405 0.121496 0.587203 -0.726135
O27   O     O_R   0.198899 0.644391 0.288775 -0.831145
O28   O     O_2   0.320246 0.156930 0.737703 -0.647217
O29   O     O_R   0.230695 0.213541 0.759993 -0.815259
O30   O     O_2   0.682454 0.169679 0.259562 -0.639695
O31   O     O_R   0.802645 0.191993 0.249371 -0.808530
O32   O     O_2   0.538830 0.399122 0.649971 -0.621671

loop_
_geom_bond_atom_site_label_1
_geom_bond_atom_site_label_2
_ccdc_geom_bond_type
C8    H53   S    
H65   O31   S    
C99   C103  A    
C58   C62   A    
C30   O18   D    
C89   H7    S    
C57   C92   S    
C62   C96   S    
C6    H51   S    
C53   H12   S    
C29   O17   S    
C87   H5    S    
C35   C119  A    
C111  C112  S    
C111  H33   S    
C20   O31   S    
C95   C110  S    
C4    H49   S    
C80   C84   A    
C35   C47   S    
N7    N16   A    
C128  N16   A    
C25   O7    D    
C120  H38   S    
C15   C81   S    
C2    C123  A    
C68   C75   A    
C22   O4    S    
C3    C37   A    
C59   C64   A    
C69   H27   S    
C65   C76   A    
C106  C108  A    
C62   C67   A    
C9    N24   A    
C70   H28   S    
C101  C118  S    
N10   Ni6   S    
C113  C118  A    
C59   C94   S    
C122  N9    A    
C69   N28   A    
C20   O30   D    
N4    Ni3   S    
C110  H24   S    
C10   C15   A    
C58   C82   A    
C42   C46   S    
C38   C39   S    
C76   H3    S    
C40   C50   S    
C33   O26   S    
N15   Ni2   S    
C45   C49   S    
C23   C40   S    
C105  H19   S    
C12   C79   S    
C100  C104  A    
C29   O16   D    
N18   N28   A    
C57   C86   A    
C59   C83   A    
C118  C122  A    
C60   C74   S    
C112  H35   S    
C92   H15   S    
C18   O23   D    
H64   O29   S    
C9    H54   S    
C27   O13   S    
C8    N22   A    
C61   C66   A    
C43   C53   S    
C56   C91   S    
C21   C38   S    
C89   H11   S    
C6    N20   A    
N30   Ni7   S    
C31   O21   S    
C73   C78   A    
H66   O2    S    
N18   Ni6   S    
C103  C108  A    
C67   C73   A    
C16   C63   A    
C4    N18   A    
C13   C103  S    
C49   C54   S    
C119  H37   S    
C31   C114  S    
C38   C48   S    
C81   C86   A    
C75   H2    S    
C127  N15   A    
N26   Ni3   S    
C91   H14   S    
C5    C85   A    
H76   O21   S    
C94   H17   S    
C40   C42   S    
C83   C88   S    
H77   O24   S    
C2    C100  S    
N7    Ni8   S    
C112  H26   S    
C10   H55   S    
C122  H40   S    
C46   C54   S    
C36   C128  A    
C1    C12   A    
C87   H9    S    
C23   O6    S    
C121  H39   S    
C19   C52   S    
H63   O27   S    
C104  C105  A    
N14   Ni1   S    
C56   C84   A    
H79   O26   S    
N4    N13   A    
C113  N32   A    
C117  H36   S    
C101  C105  A    
C40   C45   S    
C71   H29   S    
C88   C94   S    
C72   N31   A    
C25   O8    S    
N12   N24   A    
C1    N1    A    
N24   Ni1   S    
C90   H13   S    
C121  N8    A    
H62   O12   S    
C69   C74   A    
C98   C112  S    
N2    Ni1   S    
C32   O22   D    
C86   C90   S    
C21   O32   D    
N1    Ni1   S    
C21   O2    S    
C13   C124  A    
C95   C100  A    
C47   C51   S    
C71   C96   A    
C44   H59   S    
C43   H58   S    
C26   C91   S    
C98   C102  A    
N12   Ni2   S    
C51   H1    S    
C16   C80   S    
C5    N19   A    
C5    H50   S    
N31   Ni8   S    
C120  N7    A    
C77   H4    S    
C117  N5    A    
C9    C14   A    
C71   N30   A    
N20   N30   A    
N22   Ni2   S    
C104  H18   S    
N19   Ni5   S    
C24   C102  S    
C97   C109  S    
N5    N14   A    
C78   C82   A    
N25   Ni4   S    
C90   C92   S    
C19   O28   D    
C26   O10   S    
C72   C107  A    
C77   C81   A    
C8    C12   A    
C99   C111  S    
H68   O4    S    
N32   Ni2   S    
C90   H8    S    
C106  H20   S    
N8    Ni7   S    
C27   C92   S    
N23   N25   A    
C13   C115  A    
C15   C52   A    
C17   O12   S    
C35   C127  A    
C111  H25   S    
N9    N32   A    
C88   H10   S    
C37   C49   S    
C123  H41   S    
C93   H16   S    
C61   C85   S    
C23   O5    D    
C14   C41   A    
C37   C121  A    
C44   C51   S    
C70   N29   A    
C123  N10   A    
H73   O15   S    
C60   C65   A    
C24   C116  A    
C6    C96   A    
C68   H78   S    
C24   C125  A    
C110  H32   S    
C7    C107  A    
C32   O24   S    
C89   C91   S    
C84   C89   S    
C46   H61   S    
N8    N17   A    
C109  H31   S    
N16   Ni3   S    
C64   C68   A    
C41   N12   A    
C36   C50   S    
N17   Ni4   S    
C64   C107  S    
C39   C47   S    
C18   O27   S    
C7    N21   A    
C72   H30   S    
H70   O8    S    
C3    H48   S    
C66   C77   A    
C66   H56   S    
C54   C55   S    
C10   N25   A    
C75   C79   A    
C19   O29   S    
C31   O20   D    
C11   H57   S    
C4    C74   A    
N28   Ni5   S    
C73   H80   S    
C76   C80   A    
C55   H34   S    
N9    Ni5   S    
C128  H47   S    
C34   C117  A    
C25   C42   S    
H69   O6    S    
C65   H45   S    
C52   N23   A    
C126  N14   A    
C45   H60   S    
C57   C61   A    
C54   H23   S    
N20   Ni8   S    
N13   Ni8   S    
C125  N13   A    
C48   C53   S    
C28   O15   S    
N3    N11   A    
C46   C50   S    
C1    C17   S    
C50   C55   S    
N2    N10   A    
C115  N3    A    
C114  N2    A    
C20   C63   S    
N21   N31   A    
C39   C44   S    
C88   H6    S    
C22   O3    D    
C116  N4    A    
C44   C48   S    
H75   O19   S    
C109  C110  S    
N3    Ni4   S    
H71   O10   S    
C79   C83   A    
C2    C114  A    
N29   Ni6   S    
H72   O13   S    
C29   C94   S    
C26   O9    D    
C33   O25   D    
C11   N26   A    
C127  H46   S    
C28   O14   D    
C22   C39   S    
C87   C93   S    
C34   C126  A    
C17   O1    D    
C27   O11   D    
C7    H52   S    
C109  H22   S    
N6    Ni5   S    
N11   Ni7   S    
N1    N22   A    
C14   C78   S    
C32   C115  S    
N5    Ni6   S    
C36   C120  A    
H74   O17   S    
N27   Ni4   S    
C124  N11   A    
C11   C16   A    
C126  H44   S    
N6    N15   A    
C18   C41   S    
C42   C49   S    
C63   N27   A    
C108  H21   S    
N21   Ni7   S    
C125  H43   S    
C56   C60   A    
N23   Ni3   S    
C38   C43   S    
C34   C48   S    
C124  H42   S    
C45   C55   S    
C119  N6    A    
C98   C99   A    
N26   N27   A    
C102  C106  A    
C28   C93   S    
C58   C93   S    
C30   O19   S    
C67   H67   S    
C51   C53   S    
C33   C116  S    
C70   C85   A    
C43   C47   S    
C97   C101  A    
C3    N17   A    
C82   C87   S    
C95   C97   A    
C30   C113  S    
N19   N29   A    
