data_mof_unit_24429.cif
_audit_creation_date              2013-03-05T15:44:04-0500
_audit_creation_method            fapswitch 2.2
_symmetry_space_group_name_H-M    P1
_symmetry_Int_Tables_number       1
_space_group_crystal_system       triclinic
_cell_length_a                    30.468307
_cell_length_b                    22.231957
_cell_length_c                    18.141951
_cell_angle_alpha                 90.021765
_cell_angle_beta                  123.42465
_cell_angle_gamma                 89.670649
_cell_volume                      10256.1530276

loop_
_atom_site_label
_atom_site_type_symbol
_atom_site_description
_atom_site_fract_x
_atom_site_fract_y
_atom_site_fract_z
_atom_type_partial_charge
C1    C     C_R   0.541959 0.585750 0.738706 -0.174727
C2    C     C_R   0.463945 0.397875 0.279571 -0.166661
C3    C     C_R   0.458230 0.586232 0.261784 -0.173124
C4    C     C_R   0.539341 0.397443 0.723448 -0.175059
C5    C     C_R   0.043161 0.083787 0.740769 -0.202184
C6    C     C_R   0.959334 0.905364 0.268064 -0.182771
C7    C     C_R   0.956464 0.083482 0.258677 -0.171356
C8    C     C_R   0.040839 0.905692 0.732284 -0.180356
H1    H     H_    0.514876 0.584011 0.759529 0.113015
H2    H     H_    0.494774 0.386877 0.269296 0.112987
H3    H     H_    0.485368 0.584217 0.241065 0.112241
H4    H     H_    0.513159 0.389343 0.744605 0.108323
H5    H     H_    0.017430 0.079806 0.764134 0.118848
H6    H     H_    0.985794 0.900750 0.246463 0.108132
H7    H     H_    0.983408 0.080943 0.237592 0.113151
H8    H     H_    0.014177 0.901076 0.753401 0.109246
N1    N     N_R   0.532970 0.559900 0.665210 -0.050480
N2    N     N_R   0.467030 0.440100 0.334790 -0.050438
N3    N     N_R   0.467030 0.559900 0.334790 -0.050683
N4    N     N_R   0.532970 0.440100 0.665210 -0.050051
N5    N     N_R   0.032970 0.059900 0.665210 -0.049124
N6    N     N_R   0.967030 0.940100 0.334790 -0.047547
N7    N     N_R   0.967030 0.059900 0.334790 -0.048919
N8    N     N_R   0.032970 0.940100 0.665210 -0.047598
C9    C     C_R   0.645997 0.577639 0.571021 -0.137597
C10   C     C_R   0.372279 0.390907 0.426999 -0.135296
C11   C     C_R   0.354000 0.578388 0.428802 -0.136549
C12   C     C_R   0.645974 0.420835 0.572157 -0.155267
C13   C     C_R   0.146043 0.077243 0.570991 -0.137835
C14   C     C_R   0.874632 0.889030 0.427267 -0.126651
C15   C     C_R   0.879623 0.114433 0.428875 -0.158615
C16   C     C_R   0.124905 0.888257 0.573014 -0.130180
H9    H     H_    0.680070 0.569619 0.635877 0.105474
H10   H     H_    0.344004 0.379767 0.359451 0.089640
H11   H     H_    0.319969 0.570667 0.363985 0.106777
H12   H     H_    0.679683 0.428036 0.638014 0.099444
H13   H     H_    0.180084 0.069109 0.635744 0.107167
H14   H     H_    0.847604 0.876726 0.359932 0.082774
H15   H     H_    0.857956 0.130432 0.363149 0.135678
H16   H     H_    0.151738 0.875493 0.640456 0.083462
N9    N     N_R   0.597900 0.559930 0.545530 -0.040162
N10   N     N_R   0.402100 0.440070 0.454470 -0.043094
N11   N     N_R   0.402100 0.559930 0.454470 -0.041874
N12   N     N_R   0.597900 0.440070 0.545530 -0.042437
N13   N     N_R   0.097900 0.059930 0.545530 -0.042737
N14   N     N_R   0.902100 0.940070 0.454470 -0.044458
N15   N     N_R   0.902100 0.059930 0.454470 -0.045492
N16   N     N_R   0.097900 0.940070 0.545530 -0.043834
C17   C     C_R   0.596306 0.579657 0.424957 -0.112016
C18   C     C_R   0.420403 0.391603 0.573967 -0.119979
C19   C     C_R   0.403674 0.580236 0.574899 -0.111634
C20   C     C_R   0.596674 0.419576 0.425777 -0.126254
C21   C     C_R   0.096350 0.079287 0.424931 -0.112952
C22   C     C_R   0.923176 0.889397 0.574090 -0.114156
C23   C     C_R   0.926926 0.112557 0.575158 -0.103485
C24   C     C_R   0.076496 0.888934 0.426246 -0.118490
H17   H     H_    0.584152 0.576338 0.356817 0.088233
H18   H     H_    0.434457 0.382041 0.641394 0.092621
H19   H     H_    0.415865 0.577000 0.643077 0.091092
H20   H     H_    0.584995 0.423140 0.357904 0.087334
H21   H     H_    0.084107 0.075925 0.356745 0.092303
H22   H     H_    0.939537 0.877998 0.641831 0.094694
H23   H     H_    0.946049 0.124381 0.643667 0.098204
H24   H     H_    0.060206 0.877587 0.358624 0.094445
N17   N     N_R   0.567170 0.559950 0.454460 -0.037680
N18   N     N_R   0.432830 0.440050 0.545540 -0.040405
N19   N     N_R   0.432830 0.559950 0.545540 -0.039148
N20   N     N_R   0.567170 0.440050 0.454460 -0.038769
N21   N     N_R   0.067170 0.059950 0.454460 -0.039846
N22   N     N_R   0.932830 0.940050 0.545540 -0.040954
N23   N     N_R   0.932830 0.059950 0.545540 -0.039713
N24   N     N_R   0.067170 0.940050 0.454460 -0.041272
C25   C     C_R   0.384428 0.587297 0.259332 0.194189
C26   C     C_R   0.612330 0.399335 0.722712 0.166992
C27   C     C_R   0.615660 0.586323 0.740955 0.196353
C28   C     C_R   0.387562 0.403094 0.270212 0.142497
C29   C     C_R   0.882654 0.083090 0.256140 0.168862
C30   C     C_R   0.114994 0.908578 0.735986 0.135656
C31   C     C_R   0.115875 0.086428 0.740742 0.204033
C32   C     C_R   0.885203 0.908494 0.264537 0.134567
N25   N     N_R   0.421470 0.559970 0.334770 -0.070206
N26   N     N_R   0.578530 0.440030 0.665230 -0.065322
N27   N     N_R   0.578530 0.559970 0.665230 -0.071005
N28   N     N_R   0.421470 0.440030 0.334770 -0.061656
N29   N     N_R   0.921470 0.059970 0.334770 -0.073048
N30   N     N_R   0.078530 0.940030 0.665230 -0.062968
N31   N     N_R   0.078530 0.059970 0.665230 -0.069464
N32   N     N_R   0.921470 0.940030 0.334770 -0.062570
C33   C     C_R   0.594114 0.602223 0.789621 0.018111
C34   C     C_R   0.414749 0.372032 0.239645 0.036176
C35   C     C_R   0.406125 0.603266 0.210967 0.015789
C36   C     C_R   0.587380 0.368082 0.756365 0.028770
C37   C     C_R   0.094948 0.101283 0.790460 0.018334
C38   C     C_R   0.909647 0.881181 0.226824 0.049200
C39   C     C_R   0.903369 0.098028 0.205716 0.018293
C40   C     C_R   0.090797 0.881688 0.774198 0.048853
C41   C     C_R   0.646758 0.590113 0.497319 0.071903
C42   C     C_R   0.385011 0.357672 0.500865 0.072967
C43   C     C_R   0.353210 0.591171 0.502404 0.070561
C44   C     C_R   0.646959 0.407774 0.498640 0.081208
C45   C     C_R   0.146849 0.089316 0.497328 0.071257
C46   C     C_R   0.888527 0.854925 0.501045 0.068697
C47   C     C_R   0.894530 0.148805 0.502730 0.072887
C48   C     C_R   0.110566 0.853883 0.499390 0.070944
Ni1   Ni    Ni4+2 0.483030 0.500000 0.604430 0.210947
Ni2   Ni    Ni4+2 0.516970 0.500000 0.395570 0.206874
Ni3   Ni    Ni4+2 0.983030 0.000000 0.604430 0.218139
Ni4   Ni    Ni4+2 0.016970 1.000000 0.395570 0.211234
Ni5   Ni    Ni4+2 0.587400 0.500000 0.604430 0.207962
Ni6   Ni    Ni4+2 0.412600 0.500000 0.395570 0.213192
Ni7   Ni    Ni4+2 0.087400 0.000000 0.604430 0.212925
Ni8   Ni    Ni4+2 0.912600 1.000000 0.395570 0.217320
C49   C     C_R   0.691130 0.385258 0.419542 -0.248681
C50   C     C_R   0.308928 0.611589 0.581569 -0.241561
C51   C     C_R   0.380976 0.269559 0.581580 -0.240050
C52   C     C_R   0.690573 0.612129 0.417966 -0.242783
C53   C     C_R   0.113550 0.765061 0.418615 -0.241860
C54   C     C_R   0.890279 0.236914 0.583384 -0.237313
C55   C     C_R   0.884006 0.766874 0.581573 -0.241149
C56   C     C_R   0.190654 0.110572 0.418125 -0.240818
C57   C     C_R   0.694431 0.393808 0.499163 0.112516
C58   C     C_R   0.305627 0.603652 0.501933 0.110871
C59   C     C_R   0.365759 0.297417 0.501323 0.112232
C60   C     C_R   0.694184 0.602860 0.497643 0.111381
C61   C     C_R   0.128436 0.792415 0.498930 0.112813
C62   C     C_R   0.876729 0.210443 0.503247 0.111872
C63   C     C_R   0.869524 0.794305 0.501391 0.113313
C64   C     C_R   0.194337 0.101300 0.497782 0.110485
C65   C     C_R   0.742633 0.383809 0.579959 -0.251469
C66   C     C_R   0.257274 0.613203 0.421123 -0.246956
C67   C     C_R   0.329761 0.268736 0.421217 -0.241735
C68   C     C_R   0.742478 0.612123 0.578398 -0.247161
C69   C     C_R   0.164658 0.763188 0.578920 -0.241529
C70   C     C_R   0.839566 0.239027 0.423124 -0.246344
C71   C     C_R   0.833044 0.765855 0.421247 -0.240770
C72   C     C_R   0.242664 0.110367 0.578568 -0.245908
C73   C     C_R   0.784735 0.357641 0.581659 0.135620
C74   C     C_R   0.215322 0.639522 0.419504 0.133774
C75   C     C_R   0.302018 0.219051 0.420425 0.128751
C76   C     C_R   0.783767 0.639792 0.580046 0.134885
C77   C     C_R   0.193682 0.714372 0.579534 0.130048
C78   C     C_R   0.808492 0.285676 0.421980 0.134644
C79   C     C_R   0.804049 0.717355 0.420344 0.129067
C80   C     C_R   0.283674 0.138693 0.580236 0.133352
C81   C     C_R   0.779055 0.342677 0.501415 0.030912
C82   C     C_R   0.221347 0.654923 0.499812 0.033082
C83   C     C_R   0.312057 0.196546 0.500833 0.032633
C84   C     C_R   0.777292 0.656472 0.499788 0.033434
C85   C     C_R   0.184595 0.693405 0.499062 0.031679
C86   C     C_R   0.816810 0.305793 0.502370 0.028957
C87   C     C_R   0.813390 0.695683 0.500710 0.031326
C88   C     C_R   0.276850 0.155994 0.499952 0.033666
C89   C     C_R   0.733061 0.359143 0.420099 0.136787
C90   C     C_R   0.267123 0.637826 0.581057 0.122255
C91   C     C_R   0.353724 0.219657 0.581891 0.124879
C92   C     C_R   0.731780 0.639540 0.418494 0.122719
C93   C     C_R   0.142221 0.716323 0.418102 0.128942
C94   C     C_R   0.859811 0.283814 0.583525 0.128988
C95   C     C_R   0.855531 0.718185 0.581789 0.129337
C96   C     C_R   0.231545 0.138624 0.418650 0.120544
C97   C     C_R   0.830420 0.340913 0.662287 -0.193391
C98   C     C_R   0.169759 0.656626 0.338947 -0.191198
C99   C     C_R   0.260645 0.195753 0.340320 -0.190037
C100  C     C_R   0.829017 0.656834 0.660648 -0.192733
C101  C     C_R   0.235608 0.690948 0.659517 -0.193939
C102  C     C_R   0.765544 0.307529 0.341560 -0.189002
C103  C     C_R   0.762224 0.694553 0.340186 -0.190611
C104  C     C_R   0.328697 0.156190 0.660839 -0.193842
C105  C     C_R   0.272448 0.652985 0.660512 -0.171664
C106  C     C_R   0.727873 0.344068 0.340624 -0.191450
C107  C     C_R   0.726012 0.655945 0.339066 -0.173888
C108  C     C_R   0.363682 0.196678 0.661663 -0.175574
C109  C     C_R   0.867869 0.304078 0.663220 -0.172634
C110  C     C_R   0.133222 0.694971 0.338248 -0.178795
C111  C     C_R   0.225334 0.155747 0.339190 -0.171206
C112  C     C_R   0.864822 0.696014 0.661517 -0.178104
H25   H     H_    0.654906 0.394493 0.356785 0.120220
H26   H     H_    0.345180 0.602294 0.644277 0.125607
H27   H     H_    0.410963 0.288971 0.644073 0.128474
H28   H     H_    0.654401 0.603058 0.355273 0.123980
H29   H     H_    0.083283 0.784652 0.356152 0.123294
H30   H     H_    0.920764 0.217495 0.645864 0.124738
H31   H     H_    0.914165 0.786061 0.644107 0.123739
H32   H     H_    0.154495 0.101453 0.355435 0.125687
H33   H     H_    0.746724 0.391487 0.642253 0.115603
H34   H     H_    0.253001 0.605684 0.358682 0.121583
H35   H     H_    0.319904 0.287367 0.358797 0.106798
H36   H     H_    0.747064 0.603395 0.640837 0.120217
H37   H     H_    0.174151 0.781331 0.641348 0.108854
H38   H     H_    0.830692 0.221552 0.360780 0.124853
H39   H     H_    0.823617 0.784091 0.358857 0.108850
H40   H     H_    0.247373 0.101359 0.641030 0.121436
H41   H     H_    0.835516 0.352962 0.724440 0.137508
H42   H     H_    0.164309 0.644016 0.276711 0.139278
H43   H     H_    0.253352 0.211912 0.278647 0.155062
H44   H     H_    0.834793 0.643356 0.722841 0.138503
H45   H     H_    0.241991 0.705450 0.721278 0.156226
H46   H     H_    0.759153 0.293000 0.279342 0.143899
H47   H     H_    0.755490 0.709870 0.278414 0.154850
H48   H     H_    0.334754 0.142191 0.723045 0.141717
H49   H     H_    0.306795 0.639014 0.723403 0.169915
H50   H     H_    0.693151 0.357288 0.277729 0.139761
H51   H     H_    0.691828 0.642243 0.276135 0.170660
H52   H     H_    0.396213 0.213221 0.724427 0.167291
H53   H     H_    0.901144 0.288169 0.726020 0.146250
H54   H     H_    0.100215 0.711409 0.275543 0.150085
H55   H     H_    0.191289 0.141771 0.276267 0.171852
H56   H     H_    0.897629 0.712139 0.724307 0.150250
C113  C     C_R   0.379098 0.624417 0.118891 0.122563
C114  C     C_R   0.604756 0.309762 0.804218 0.119857
C115  C     C_R   0.621263 0.624014 0.881371 0.123785
C116  C     C_R   0.397145 0.316901 0.186529 0.118863
C117  C     C_R   0.875764 0.117014 0.111380 0.127468
C118  C     C_R   0.109473 0.827013 0.828770 0.117505
C119  C     C_R   0.122349 0.123255 0.882042 0.124057
C120  C     C_R   0.890822 0.826955 0.171554 0.118999
C121  C     C_R   0.379153 0.683036 0.006025 -0.121224
C122  C     C_R   0.600338 0.230970 0.893332 -0.102389
C123  C     C_R   0.620848 0.683811 0.993086 -0.121170
C124  C     C_R   0.400630 0.243300 0.090763 -0.099046
C125  C     C_R   0.877179 0.171220 0.995686 -0.112604
C126  C     C_R   0.105887 0.752289 0.923026 -0.097354
C127  C     C_R   0.122236 0.183627 0.993512 -0.118933
C128  C     C_R   0.894532 0.752535 0.076915 -0.096951
C129  C     C_R   0.406491 0.654717 0.088759 -0.225255
C130  C     C_R   0.583350 0.286761 0.849465 -0.227195
C131  C     C_R   0.593689 0.654571 0.911307 -0.227472
C132  C     C_R   0.418065 0.297213 0.138801 -0.225419
C133  C     C_R   0.903470 0.146317 0.080871 -0.229011
C134  C     C_R   0.089356 0.807528 0.877654 -0.230002
C135  C     C_R   0.094956 0.154424 0.911756 -0.226635
C136  C     C_R   0.911314 0.807176 0.123233 -0.229197
C137  C     C_R   0.325189 0.616922 0.061705 -0.249300
C138  C     C_R   0.641839 0.275298 0.800222 -0.237593
C139  C     C_R   0.675455 0.617433 0.938039 -0.250312
C140  C     C_R   0.360225 0.281831 0.188311 -0.239930
C141  C     C_R   0.821846 0.107932 0.052045 -0.240793
C142  C     C_R   0.144957 0.790746 0.823804 -0.239392
C143  C     C_R   0.176496 0.116314 0.938507 -0.250715
C144  C     C_R   0.854523 0.791525 0.174821 -0.241420
C145  C     C_R   0.296073 0.656040 0.990207 0.083344
C146  C     C_R   0.665137 0.223973 0.852752 0.085161
C147  C     C_R   0.704079 0.657379 0.008226 0.081648
C148  C     C_R   0.334516 0.235266 0.128115 0.090792
C149  C     C_R   0.792997 0.141459 0.973232 0.082109
C150  C     C_R   0.169623 0.742065 0.880568 0.089940
C151  C     C_R   0.205490 0.155263 0.009852 0.084598
C152  C     C_R   0.829950 0.743292 0.117575 0.088791
C153  C     C_R   0.323679 0.688989 0.960880 0.114655
C154  C     C_R   0.641870 0.199335 0.895552 0.084895
C155  C     C_R   0.676178 0.690301 0.037403 0.114213
C156  C     C_R   0.356903 0.213175 0.082296 0.091205
C157  C     C_R   0.821354 0.173807 0.944938 0.099865
C158  C     C_R   0.147880 0.720164 0.927301 0.091639
C159  C     C_R   0.177723 0.188874 0.038672 0.113754
C160  C     C_R   0.852086 0.721220 0.071355 0.091817
C161  C     C_R   0.242514 0.669957 0.957317 0.082623
C162  C     C_R   0.713405 0.199576 0.869726 0.087568
C163  C     C_R   0.757372 0.671671 0.040414 0.083206
C164  C     C_R   0.284917 0.214088 0.107329 0.100046
C165  C     C_R   0.737760 0.151363 0.930680 0.092185
C166  C     C_R   0.217677 0.718243 0.896878 0.100081
C167  C     C_R   0.259455 0.167547 0.044402 0.082493
C168  C     C_R   0.781838 0.719804 0.100749 0.100140
C169  C     C_R   0.741071 0.226012 0.836200 -0.219056
C170  C     C_R   0.215527 0.642906 0.991946 -0.221816
C171  C     C_R   0.257202 0.243485 0.139035 -0.241074
C172  C     C_R   0.784446 0.644917 0.005480 -0.224611
C173  C     C_R   0.244820 0.746421 0.863423 -0.247714
C174  C     C_R   0.707246 0.119358 0.953943 -0.239860
C175  C     C_R   0.754409 0.747935 0.134026 -0.245556
C176  C     C_R   0.286623 0.140310 0.009924 -0.221405
C177  C     C_R   0.793643 0.212482 0.872043 -0.171282
C178  C     C_R   0.170258 0.668612 0.979519 -0.182265
C179  C     C_R   0.204999 0.231194 0.105420 -0.210056
C180  C     C_R   0.829741 0.670255 0.018436 -0.180547
C181  C     C_R   0.296393 0.731840 0.894388 -0.208312
C182  C     C_R   0.660428 0.143407 0.937740 -0.162392
C183  C     C_R   0.702987 0.733360 0.103213 -0.208606
C184  C     C_R   0.333333 0.163795 0.026362 -0.180281
H57   H     H_    0.813299 0.238055 0.847880 0.163317
H58   H     H_    0.154947 0.649087 0.015366 0.169747
H59   H     H_    0.185426 0.259090 0.127830 0.167470
H60   H     H_    0.845199 0.650850 0.982587 0.168973
H61   H     H_    0.315743 0.758857 0.870998 0.170184
H62   H     H_    0.639964 0.118411 0.960923 0.168957
H63   H     H_    0.683355 0.760386 0.126383 0.169922
H64   H     H_    0.348906 0.144438 0.990669 0.170072
H65   H     H_    0.651638 0.288734 0.754478 0.113235
H66   H     H_    0.306391 0.584120 0.078154 0.146756
H67   H     H_    0.351844 0.291837 0.237367 0.104474
H68   H     H_    0.694721 0.584339 0.922413 0.145632
H69   H     H_    0.152581 0.800981 0.774020 0.104216
H70   H     H_    0.802371 0.078237 0.071173 0.156370
H71   H     H_    0.846295 0.801981 0.223842 0.105837
H72   H     H_    0.195482 0.083458 0.922129 0.147838
H73   H     H_    0.553717 0.312429 0.851492 0.146242
H74   H     H_    0.449002 0.656755 0.129644 0.154812
H75   H     H_    0.449018 0.322699 0.141187 0.149195
H76   H     H_    0.551132 0.656085 0.870987 0.154773
H77   H     H_    0.059311 0.833942 0.877476 0.151971
H78   H     H_    0.945785 0.150387 0.123654 0.154291
H79   H     H_    0.941816 0.832878 0.124502 0.151176
H80   H     H_    0.052402 0.156466 0.871142 0.151435
H81   H     H_    0.724381 0.260213 0.785706 0.127886
H82   H     H_    0.230007 0.603854 0.034098 0.148445
H83   H     H_    0.273293 0.279793 0.185709 0.118982
H84   H     H_    0.770028 0.606359 0.962757 0.149828
H85   H     H_    0.229035 0.783478 0.817611 0.123123
H86   H     H_    0.719936 0.076769 0.988276 0.137456
H87   H     H_    0.769808 0.784989 0.179495 0.123701
H88   H     H_    0.271364 0.103021 0.964856 0.148230
C185  C     C_2   0.409758 0.708883 0.972254 1.009806
O1    O     O_2   0.453539 0.729521 0.023773 -0.616233
O2    O     O_R   0.389572 0.707208 0.881900 -0.828106
H89   H     H_    0.414382 0.725357 0.867325 0.345123
C186  C     C_2   0.576543 0.210154 0.941493 0.994721
O3    O     O_2   0.529258 0.216363 0.907893 -0.634612
O4    O     O_R   0.608221 0.186147 0.026659 -0.810659
H90   H     H_    0.587316 0.174492 0.052648 0.332877
C187  C     C_2   0.590088 0.709896 0.026728 1.009417
O5    O     O_2   0.545968 0.730291 0.975033 -0.616551
O6    O     O_R   0.610542 0.708712 0.117200 -0.829178
H91   H     H_    0.585595 0.726975 0.131680 0.345384
C188  C     C_2   0.428077 0.221355 0.048997 0.992030
O7    O     O_2   0.441396 0.257099 0.013710 -0.624933
O8    O     O_R   0.441014 0.160426 0.053575 -0.806374
H92   H     H_    0.460257 0.151391 0.023648 0.335599
C189  C     C_2   0.909235 0.197065 0.964688 1.004311
O9    O     O_2   0.950882 0.221871 0.017083 -0.620927
O10   O     O_R   0.893047 0.190783 0.876446 -0.811056
H93   H     H_    0.918472 0.209681 0.863824 0.335704
C190  C     C_2   0.078996 0.730744 0.965716 0.987891
O11   O     O_2   0.067813 0.766356 0.004428 -0.622235
O12   O     O_R   0.064067 0.670541 0.958090 -0.811485
H94   H     H_    0.045366 0.661797 0.988934 0.326340
C191  C     C_2   0.091483 0.210595 0.026605 1.010423
O13   O     O_2   0.047780 0.231899 0.974581 -0.625179
O14   O     O_R   0.111409 0.209217 0.116877 -0.827576
H95   H     H_    0.086504 0.228151 0.130953 0.343733
C192  C     C_2   0.921805 0.730638 0.034830 0.986867
O15   O     O_2   0.933501 0.766170 0.996962 -0.621692
O16   O     O_R   0.936502 0.670142 0.042097 -0.811596
H96   H     H_    0.955503 0.661155 0.011743 0.326082
N33   N     N_2   0.330165 0.586572 0.226357 -0.132278
H97   H     H_    0.318598 0.550785 0.247516 0.171602
C193  C     C_3   0.308335 0.644378 0.227020 -0.948937
H98   H     H_    0.265732 0.639623 0.199475 0.248400
H99   H     H_    0.313010 0.677328 0.185871 0.275003
H100  H     H_    0.328318 0.661965 0.295397 0.262499
N34   N     N_2   0.667541 0.405382 0.764299 -0.124915
H101  H     H_    0.685688 0.371682 0.751498 0.148290
C194  C     C_3   0.696380 0.423982 0.855693 -0.931024
H102  H     H_    0.737475 0.434594 0.877992 0.250325
H103  H     H_    0.697078 0.387411 0.898021 0.263567
H104  H     H_    0.678181 0.465049 0.863130 0.253148
N35   N     N_2   0.669867 0.584831 0.773590 -0.132565
H105  H     H_    0.681301 0.548765 0.752324 0.166436
C195  C     C_3   0.691352 0.642293 0.771807 -0.952370
H106  H     H_    0.733820 0.636965 0.798260 0.247767
H107  H     H_    0.687111 0.675503 0.813250 0.275168
H108  H     H_    0.670758 0.660014 0.703287 0.263571
N36   N     N_2   0.332462 0.414796 0.218853 -0.122532
H109  H     H_    0.309642 0.378808 0.212669 0.151379
C196  C     C_3   0.313084 0.443485 0.134632 -0.916776
H110  H     H_    0.272239 0.459730 0.106089 0.248889
H111  H     H_    0.313068 0.410970 0.088077 0.260942
H112  H     H_    0.337942 0.482541 0.142906 0.251015
N37   N     N_2   0.828272 0.077357 0.223650 -0.123809
H113  H     H_    0.820202 0.047861 0.258486 0.188759
C197  C     C_3   0.796557 0.132073 0.195459 -0.961015
H114  H     H_    0.782438 0.141984 0.239009 0.246697
H115  H     H_    0.760722 0.125602 0.129097 0.275209
H116  H     H_    0.818492 0.171486 0.194321 0.264031
N38   N     N_2   0.169519 0.922691 0.782701 -0.122779
H117  H     H_    0.192836 0.888716 0.783482 0.151457
C198  C     C_3   0.191636 0.947898 0.869775 -0.922193
H118  H     H_    0.230558 0.967769 0.893256 0.249165
H119  H     H_    0.196954 0.912281 0.917041 0.262564
H120  H     H_    0.165534 0.983742 0.867947 0.253590
N39   N     N_2   0.169984 0.085420 0.772710 -0.130926
H121  H     H_    0.181652 0.049460 0.751721 0.174672
C199  C     C_3   0.191265 0.143093 0.771270 -0.956815
H122  H     H_    0.233814 0.138072 0.798162 0.249763
H123  H     H_    0.186700 0.176077 0.812610 0.274703
H124  H     H_    0.170784 0.160823 0.702764 0.263250
N40   N     N_2   0.830587 0.923263 0.217179 -0.120405
H125  H     H_    0.807403 0.890520 0.218756 0.150082
C200  C     C_3   0.807976 0.946104 0.128510 -0.907767
H126  H     H_    0.769577 0.968011 0.105065 0.249966
H127  H     H_    0.801443 0.908760 0.082877 0.258035
H128  H     H_    0.834351 0.979783 0.127353 0.255509

loop_
_geom_bond_atom_site_label_1
_geom_bond_atom_site_label_2
_geom_bond_distance
_ccdc_geom_bond_type
C49   H25   1.081554 S    
N35   H105  1.028458 S    
C65   H33   1.080174 S    
C189  O10   1.398694 S    
C178  H58   1.079703 S    
C84   C87   1.400230 A    
C111  H55   1.083772 S    
C21   N21   1.338484 A    
C68   H36   1.079718 S    
C31   N31   1.344330 A    
C191  O13   1.223395 D    
C158  C178  1.398610 A    
C69   H37   1.081280 S    
C190  O11   1.223228 D    
C171  C179  1.382995 A    
C72   H40   1.079586 S    
C41   C60   1.470957 S    
N14   Ni8   1.844436 S    
N22   Ni3   1.865290 S    
C200  H127  1.110900 S    
C45   C64   1.468257 S    
C40   C118  1.467578 S    
C14   H14   1.067393 S    
C26   C36   1.396821 A    
C2    C34   1.383847 A    
C47   C62   1.472783 S    
C198  H120  1.110085 S    
C30   C40   1.396409 A    
C24   N24   1.338009 A    
N2    N28   1.387946 A    
C16   C48   1.385318 A    
C3    N3    1.332801 A    
N11   Ni6   1.841188 S    
C4    H4    1.074785 S    
C83   C91   1.410110 A    
C5    H5    1.081271 S    
C7    H7    1.081132 S    
C30   N38   1.425201 S    
C8    H8    1.077530 S    
C132  H75   1.083282 S    
C122  C154  1.425184 A    
C133  H78   1.082452 S    
C25   N25   1.344244 A    
C194  H103  1.110612 S    
C126  C158  1.425941 A    
C101  C105  1.392602 A    
C51   C59   1.404343 A    
N13   N21   1.379183 A    
O6    H91   1.013873 S    
C145  C153  1.423933 A    
C9    N9    1.332769 A    
N19   Ni1   1.853266 S    
C103  C107  1.393048 A    
C11   H11   1.070495 S    
C149  C157  1.422382 A    
C12   N12   1.332329 A    
C13   N13   1.331544 A    
C102  H46   1.083812 S    
C151  C167  1.428500 A    
C22   N22   1.339792 A    
C11   C43   1.378195 A    
C14   C46   1.385077 A    
N34   C194  1.445971 S    
C141  C149  1.407583 A    
C74   C98   1.402446 A    
N8    Ni3   1.853090 S    
C199  H122  1.110291 S    
C134  H77   1.083234 S    
C139  C147  1.398305 A    
C174  H86   1.079301 S    
C168  C175  1.415461 A    
C52   H28   1.081814 S    
N39   H121  1.027683 S    
C123  C187  1.486871 S    
C54   C94   1.392996 A    
C119  C143  1.389342 A    
N40   H125  1.028535 S    
C170  H82   1.075931 S    
N14   N22   1.379181 A    
C117  C133  1.401685 A    
C128  C160  1.426168 A    
C104  H48   1.083830 S    
N38   H117  1.028685 S    
N13   Ni7   1.844436 S    
C112  H56   1.083819 S    
C32   N32   1.339094 A    
C32   N40   1.426160 S    
C196  H110  1.110102 S    
C166  C173  1.415599 A    
C73   C97   1.402422 A    
C78   C86   1.408865 A    
C115  C139  1.389919 A    
C52   C92   1.394024 A    
C3    H3    1.081179 S    
C17   C41   1.386029 A    
O12   H94   1.013977 S    
C127  C191  1.486922 S    
N3    Ni2   1.853087 S    
C65   C73   1.390240 A    
N25   Ni6   1.844165 S    
C62   C70   1.406428 A    
C55   C95   1.392462 A    
C187  O5    1.223356 D    
C195  H106  1.110279 S    
C110  H54   1.083848 S    
C160  C180  1.398929 A    
C131  H76   1.082617 S    
C50   C90   1.393249 A    
C23   N23   1.338860 A    
C87   C95   1.410198 A    
C152  C168  1.424919 A    
C67   H35   1.080918 S    
N4    N26   1.387926 A    
C36   C114  1.483802 S    
N34   H101  1.028367 S    
C148  C164  1.423998 A    
N29   Ni8   1.844165 S    
C149  C165  1.428777 A    
C199  H123  1.110345 S    
C3    C35   1.376430 A    
C118  C142  1.387201 A    
C185  O2    1.398625 S    
C78   C102  1.402474 A    
C17   H17   1.080119 S    
C60   C68   1.407905 A    
C108  H52   1.083853 S    
C138  H65   1.068300 S    
C188  O8    1.398198 S    
C70   H38   1.080381 S    
C163  C172  1.416314 A    
C20   H20   1.079880 S    
C21   H21   1.080211 S    
N24   Ni4   1.853267 S    
C153  C181  1.393127 A    
C50   H26   1.081742 S    
C23   H23   1.075653 S    
C89   C106  1.401910 A    
C200  H128  1.110128 S    
C24   H24   1.070228 S    
C125  C189  1.487335 S    
C81   C86   1.401127 A    
C93   C110  1.400943 A    
C71   C79   1.392235 A    
C25   N33   1.415000 S    
C176  C184  1.388473 A    
N9    Ni5   1.844436 S    
C114  C130  1.398100 A    
C121  C153  1.420388 A    
N16   N24   1.379186 A    
C91   C108  1.400882 A    
C116  C140  1.387244 A    
C192  O16   1.398204 S    
C125  C157  1.420450 A    
C18   C42   1.386986 A    
C147  C155  1.423651 A    
C97   H41   1.083819 S    
C120  C144  1.389008 A    
N26   Ni5   1.844165 S    
C196  H112  1.110088 S    
C19   N19   1.338911 A    
C143  H72   1.068102 S    
C180  H60   1.079737 S    
C6    C38   1.379072 A    
C144  H71   1.073602 S    
C181  H61   1.080869 S    
C20   C44   1.388536 A    
C129  H74   1.082636 S    
C183  H63   1.080810 S    
N2    Ni2   1.865019 S    
C6    H6    1.077559 S    
C197  H116  1.112125 S    
C172  C180  1.388759 A    
C198  H118  1.110087 S    
C173  C181  1.382617 A    
C55   H31   1.081231 S    
C56   H32   1.081826 S    
C79   C103  1.400347 A    
C138  C146  1.400122 A    
C9    C41   1.378322 A    
C102  C106  1.394755 A    
C95   C112  1.401107 A    
C96   C111  1.399234 A    
C193  H100  1.110256 S    
N18   Ni1   1.865290 S    
C125  C133  1.402932 A    
C10   N10   1.334428 A    
N39   C199  1.446830 S    
C169  C177  1.387855 A    
C79   C87   1.407375 A    
C121  C185  1.486932 S    
C14   N14   1.336807 A    
N40   C200  1.447691 S    
C100  H44   1.083834 S    
C76   C100  1.402553 A    
C1    N1    1.334936 A    
C75   C99   1.399282 A    
N30   Ni7   1.844165 S    
N10   Ni6   1.844436 S    
C199  H124  1.110201 S    
C80   C88   1.406597 A    
N32   Ni8   1.841312 S    
C126  C190  1.484725 S    
C74   C82   1.406876 A    
C7    N7    1.339433 A    
C175  C183  1.383117 A    
C8    N8    1.341845 A    
C122  C130  1.406863 A    
C195  H108  1.110148 S    
C140  H67   1.075329 S    
C155  C183  1.393840 A    
C198  H119  1.111091 S    
C67   C75   1.390033 A    
C141  H70   1.067642 S    
C27   C33   1.403940 A    
C49   C57   1.404531 A    
C126  C134  1.405805 A    
N11   N19   1.379184 A    
C103  H47   1.077108 S    
C15   N15   1.339189 A    
N3    N25   1.387928 A    
N8    N30   1.387926 A    
C121  C129  1.400143 A    
N37   C197  1.455174 S    
C55   C63   1.404673 A    
N23   Ni3   1.853266 S    
C146  C162  1.429633 A    
C35   C113  1.473196 S    
C28   N28   1.337662 A    
N5    N31   1.387944 A    
C194  H102  1.110099 S    
C33   C115  1.475368 S    
C169  H81   1.076467 S    
C154  C182  1.402660 A    
C73   C81   1.408076 A    
C63   C71   1.405885 A    
C28   N36   1.423410 S    
C64   C72   1.408009 A    
N31   Ni7   1.841309 S    
C197  H114  1.109540 S    
C6    N6    1.343654 A    
C124  C132  1.405292 A    
C143  C151  1.397774 A    
C44   C57   1.472491 S    
C186  O4    1.398392 S    
C26   N34   1.421725 S    
C48   C61   1.469844 S    
C21   C45   1.385469 A    
N36   H109  1.027888 S    
N6    N32   1.387946 A    
N33   C193  1.446774 S    
C150  C166  1.423259 A    
N12   Ni5   1.841191 S    
C54   H30   1.081580 S    
C99   C111  1.391274 A    
O2    H89   1.013874 S    
N35   C195  1.447247 S    
C123  C155  1.420825 A    
C16   N16   1.337929 A    
C113  C129  1.399488 A    
C26   N26   1.331721 A    
C164  C167  1.417169 A    
C191  O14   1.398584 S    
C127  C135  1.399859 A    
C190  O12   1.398191 S    
C161  C166  1.415875 A    
C18   H18   1.070990 S    
C1    H1    1.081161 S    
C24   C48   1.385497 A    
C163  C168  1.417129 A    
C193  H98   1.110279 S    
C27   N35   1.414763 S    
C150  C158  1.420401 A    
C128  C192  1.484747 S    
C90   C105  1.400124 A    
C159  C179  1.393438 A    
C5    N5    1.337869 A    
C175  H87   1.075533 S    
O10   H93   1.014021 S    
C184  H64   1.079604 S    
C101  H45   1.075921 S    
C70   C78   1.392643 A    
C82   C85   1.399365 A    
C97   C109  1.393128 A    
C94   C109  1.401203 A    
O14   H95   1.013863 S    
C99   H43   1.075074 S    
C142  C150  1.391230 A    
C152  C160  1.420461 A    
C13   C45   1.376621 A    
C147  C163  1.428199 A    
C71   H39   1.081128 S    
C145  C161  1.426988 A    
C43   C58   1.469929 S    
C32   C38   1.395484 A    
C118  C134  1.397166 A    
C194  H104  1.111656 S    
N4    Ni1   1.853090 S    
C86   C94   1.411063 A    
C59   C67   1.404586 A    
C77   C101  1.399780 A    
C22   C46   1.387525 A    
C161  C170  1.416886 A    
C57   C65   1.407045 A    
C56   C64   1.401710 A    
C68   C76   1.389007 A    
C22   H22   1.070939 S    
C69   C77   1.392140 A    
C177  H57   1.080467 S    
C174  C182  1.391570 A    
C196  H111  1.111298 S    
C156  C184  1.398587 A    
C146  C154  1.420093 A    
O8    H92   1.013960 S    
C72   C80   1.387837 A    
C157  C177  1.401244 A    
C56   C96   1.391814 A    
C34   C116  1.468248 S    
C27   N27   1.343575 A    
C185  O1    1.223360 D    
C170  C178  1.388633 A    
N6    Ni4   1.865019 S    
N7    Ni4   1.853087 S    
C100  C112  1.393203 A    
C114  C138  1.396120 A    
C107  H51   1.083704 S    
C188  O7    1.223242 D    
C105  H49   1.083767 S    
O4    H90   1.013908 S    
C116  C132  1.397183 A    
C11   N11   1.332051 A    
C104  C108  1.392902 A    
C12   H12   1.076036 S    
C13   H13   1.069659 S    
C144  C152  1.393125 A    
C109  H53   1.083819 S    
C84   C92   1.411459 A    
C123  C131  1.400500 A    
C85   C93   1.409833 A    
C28   C34   1.403475 A    
C4    C36   1.396916 A    
C151  C159  1.423801 A    
O16   H96   1.013971 S    
C88   C96   1.411650 A    
C37   C119  1.473779 S    
C189  O9    1.223377 D    
C8    C40   1.376870 A    
C76   C84   1.406978 A    
C77   C85   1.407467 A    
C192  O15   1.223229 D    
C75   C83   1.406806 A    
C17   N17   1.339634 A    
C80   C104  1.402579 A    
C119  C135  1.398587 A    
C31   C37   1.400047 A    
C117  C141  1.397756 A    
C128  C136  1.405780 A    
C142  H69   1.073945 S    
C53   H29   1.081086 S    
N15   Ni8   1.841188 S    
C23   C47   1.383140 A    
C10   H10   1.069769 S    
C52   C60   1.403133 A    
C187  O6    1.398582 S    
C82   C90   1.411298 A    
N27   Ni5   1.841309 S    
C20   N20   1.340339 A    
C81   C89   1.411064 A    
C30   N30   1.338518 A    
C115  C131  1.399336 A    
N36   C196  1.446550 S    
N20   Ni2   1.853267 S    
C135  H80   1.083001 S    
C172  H84   1.075759 S    
N21   Ni4   1.865288 S    
C136  H79   1.083182 S    
C173  H85   1.075362 S    
N38   C198  1.447247 S    
C19   C43   1.386022 A    
C42   C59   1.467341 S    
C53   C93   1.391173 A    
C171  H83   1.074980 S    
C139  H68   1.069800 S    
C25   C35   1.405305 A    
C46   C63   1.471225 S    
N9    N17   1.379183 A    
C197  H115  1.102618 S    
C29   C39   1.408612 A    
N28   Ni6   1.841312 S    
N1    N27   1.387944 A    
C122  C186  1.485002 S    
C15   C47   1.385009 A    
C176  H88   1.075649 S    
N1    Ni1   1.865019 S    
C193  H99   1.110395 S    
C29   N37   1.426698 S    
C106  H50   1.083671 S    
N15   N23   1.379184 A    
C98   H42   1.083844 S    
C195  H107  1.110237 S    
C164  C171  1.414056 A    
C18   N18   1.337774 A    
C165  C174  1.410265 A    
N5    Ni3   1.865019 S    
C10   C42   1.384545 A    
C137  C145  1.396455 A    
C167  C176  1.416858 A    
C39   C117  1.491730 S    
N12   N20   1.379186 A    
C162  C165  1.417785 A    
C19   H19   1.080106 S    
C2    H2    1.080305 S    
N17   Ni2   1.865288 S    
C179  H59   1.080835 S    
N37   H113  1.031145 S    
C61   C69   1.405059 A    
C1    C33   1.379089 A    
C148  C156  1.420520 A    
C51   C91   1.391414 A    
C130  H73   1.082963 S    
C182  H62   1.080497 S    
C49   C89   1.395225 A    
C2    N2    1.337972 A    
C5    C37   1.375974 A    
C66   H34   1.079703 S    
C98   C110  1.392740 A    
C4    N4    1.351306 A    
C7    C39   1.388025 A    
C92   C107  1.400352 A    
C38   C120  1.470099 S    
C140  C148  1.394260 A    
C124  C156  1.425429 A    
C83   C88   1.398554 A    
C31   N39   1.414586 S    
C12   C44   1.381224 A    
C200  H126  1.110081 S    
C53   C61   1.404635 A    
C120  C136  1.396865 A    
C15   H15   1.055721 S    
C16   H16   1.068421 S    
C186  O3    1.223300 D    
C113  C137  1.388394 A    
C29   N29   1.353799 A    
C50   C58   1.403007 A    
C127  C159  1.420987 A    
N16   Ni7   1.841191 S    
N7    N29   1.387928 A    
C9    H9    1.070654 S    
N10   N18   1.379181 A    
C137  H66   1.068712 S    
C54   C62   1.404040 A    
N33   H97   1.028140 S    
C162  C169  1.413033 A    
C58   C66   1.407834 A    
C51   H27   1.081381 S    
C124  C188  1.484810 S    
C66   C74   1.388218 A    
