data_mof_unit_8559.cif
_audit_creation_date              2012-12-11T14:50:28-0500
_audit_creation_method            fapswitch 2.2
_symmetry_space_group_name_H-M    P1
_symmetry_Int_Tables_number       1
_space_group_crystal_system       triclinic
_cell_length_a                    11.073512
_cell_length_b                    11.021223
_cell_length_c                    18.73723
_cell_angle_alpha                 89.711463
_cell_angle_beta                  89.455324
_cell_angle_gamma                 59.252702
_cell_volume                      1965.22236754

loop_
_atom_site_label
_atom_site_type_symbol
_atom_type_description
_atom_site_fract_x
_atom_site_fract_y
_atom_site_fract_z
_atom_type_partial_charge
Br1   Br    Br    0.222193 0.925272 0.842968 -0.579642
Br2   Br    Br    0.825565 0.283002 0.151332 -0.503498
C1    C     C_R   0.298192 0.619107 0.614908 0.538749
C2    C     C_R   0.532534 0.217746 0.799103 -0.127530
C3    C     C_R   0.519435 0.234382 0.726246 -0.149796
C4    C     C_R   0.656717 0.621924 0.599847 0.531629
C5    C     C_R   0.617866 0.249365 0.686930 0.021417
C6    C     C_R   0.252731 0.529908 0.729068 -0.169319
C7    C     C_R   0.215410 0.547632 0.801164 -0.177438
C8    C     C_R   0.198210 0.665887 0.838119 0.043501
C9    C     C_R   0.231918 0.759208 0.802601 0.144643
C10   C     C_R   0.265979 0.739819 0.730815 -0.134401
C11   C     C_R   0.273823 0.627760 0.692700 -0.024490
C12   C     C_3   0.790553 0.539009 0.791875 -0.218116
C13   C     C_R   0.799490 0.605726 0.294861 -0.129511
C14   C     C_R   0.821416 0.622714 0.223899 -0.112358
C15   C     C_R   0.708463 0.713934 0.181132 0.018804
C16   C     C_R   0.595220 0.284405 0.610609 0.540008
C17   C     C_R   0.574909 0.798314 0.211135 -0.109433
C18   C     C_R   0.549835 0.786105 0.283488 -0.023201
C19   C     C_R   0.663777 0.679485 0.324494 0.024216
C20   C     C_R   0.575269 0.125178 0.291756 -0.156578
C21   C     C_R   0.572445 0.116959 0.218859 -0.171788
C22   C     C_R   0.649111 0.158260 0.175744 0.045048
C23   C     C_3   0.741250 0.698264 0.803375 0.015905
C24   C     C_R   0.726311 0.213384 0.206463 0.131207
C25   C     C_R   0.727946 0.222596 0.279993 -0.118829
C26   C     C_R   0.650598 0.180577 0.322616 -0.006415
C27   C     C_R   0.071136 0.799073 0.306176 -0.148116
C28   C     C_R   0.221347 0.649304 0.402101 0.555950
C29   C     C_R   0.045499 0.813363 0.234086 -0.127448
C30   C     C_R   0.107078 0.693229 0.189828 0.030083
C31   C     C_R   0.181755 0.558202 0.218284 -0.153407
C32   C     C_R   0.207179 0.543831 0.290585 -0.133675
C33   C     C_R   0.158314 0.665050 0.333663 0.027789
C34   C     C_3   0.691882 0.649577 0.671677 0.053248
C35   C     C_R   0.695463 0.110570 0.899450 0.534809
C36   C     C_R   0.761089 0.714465 0.882474 0.541038
C37   C     C_R   0.120167 0.706196 0.906146 0.548514
C38   C     C_R   0.673567 0.108333 0.103241 0.562233
C39   C     C_R   0.732955 0.718684 0.105100 0.563871
C40   C     C_R   0.642726 0.626603 0.392942 0.546496
C41   C     C_R   0.083191 0.714330 0.114865 0.539013
C42   C     C_R   0.618030 0.229938 0.395049 0.556596
C43   C     C_3   0.582640 0.786157 0.785508 -0.222040
C44   C     C_3   0.554276 0.742384 0.713570 -0.265728
C45   C     C_3   0.769046 0.729369 0.668925 -0.203420
C46   C     C_3   0.826693 0.732328 0.744758 -0.134167
C47   C     C_3   0.925607 0.378863 0.686112 -0.245609
C48   C     C_3   0.050289 0.397760 0.671957 -0.300329
C49   C     C_3   0.174325 0.261417 0.641577 -0.457257
C50   C     C_3   0.402832 0.879782 0.315379 -0.244097
C51   C     C_3   0.293565 0.001517 0.268753 -0.322664
C52   C     C_3   0.161609 0.101096 0.311665 -0.437480
C53   C     C_3   0.841965 0.864391 0.748227 -0.272913
C54   C     C_3   0.920661 0.868441 0.678912 -0.275655
C55   C     C_3   0.976311 0.968619 0.676739 -0.419524
C56   C     C_3   0.780300 0.507084 0.714256 -0.091312
C57   C     C_R   0.731981 0.238906 0.722492 -0.165522
C58   C     C_R   0.754842 0.208874 0.794817 -0.153725
C59   C     C_R   0.657921 0.190906 0.833053 0.029700
Cr1   Cr    Cr6+3 0.392930 0.397900 0.502230 0.987827
Cr2   Cr    Cr6+3 0.398240 0.708600 0.501260 0.981202
Cr3   Cr    Cr6+3 0.708800 0.393470 0.496460 0.987301
Cr4   Cr    Cr6+3 0.937620 0.938540 0.007640 1.092584
Cr5   Cr    Cr6+3 0.625150 0.937450 0.994520 1.040615
Cr6   Cr    Cr6+3 0.937990 0.625080 0.001190 1.038093
H1    H     H_    0.547298 0.900594 0.784941 0.149183
H2    H     H_    0.519521 0.768654 0.826242 0.199832
H3    H     H_    0.281397 0.817786 0.703828 0.143987
H4    H     H_    0.888277 0.528053 0.325513 0.135417
H5    H     H_    0.926000 0.559327 0.201501 0.147769
H6    H     H_    0.489895 0.869448 0.176862 0.137086
H7    H     H_    0.513733 0.093952 0.323836 0.139659
H8    H     H_    0.514724 0.072430 0.196069 0.133540
H9    H     H_    0.783046 0.270324 0.303231 0.163053
H10   H     H_    0.028909 0.891870 0.339694 0.119008
H11   H     H_    0.508873 0.675451 0.723459 0.126065
H12   H     H_    0.936609 0.644037 0.747753 0.141937
H13   H     H_    0.980291 0.918675 0.212625 0.158028
H14   H     H_    0.224976 0.465460 0.184523 0.131993
H15   H     H_    0.274305 0.438360 0.311462 0.150447
H16   H     H_    0.478988 0.838789 0.683428 0.139598
H17   H     H_    0.691958 0.838660 0.650860 0.121756
H18   H     H_    0.901398 0.471207 0.809321 0.151789
H19   H     H_    0.726007 0.509375 0.825689 0.146080
H20   H     H_    0.707858 0.467088 0.715132 0.122879
H21   H     H_    0.218782 0.177882 0.683204 0.158177
H22   H     H_    0.141375 0.222894 0.595270 0.144103
H23   H     H_    0.852346 0.685516 0.627605 0.102286
H24   H     H_    0.257191 0.281400 0.621957 0.167683
H25   H     H_    0.081489 0.420610 0.723544 0.144606
H26   H     H_    0.025621 0.481549 0.632586 0.180820
H27   H     H_    0.963014 0.294485 0.727435 0.132839
H28   H     H_    0.913706 0.328637 0.638048 0.189570
H29   H     H_    0.116511 0.042165 0.337319 0.158682
H30   H     H_    0.187037 0.155211 0.353643 0.144671
H31   H     H_    0.081714 0.182381 0.275728 0.179009
H32   H     H_    0.337058 0.065154 0.247485 0.155351
H33   H     H_    0.263188 0.957946 0.223523 0.187114
H34   H     H_    0.808584 0.244256 0.692199 0.108359
H35   H     H_    0.358843 0.811743 0.327933 0.205015
H36   H     H_    0.414038 0.927296 0.365253 0.161330
H37   H     H_    0.913067 0.054538 0.638937 0.152785
H38   H     H_    0.987496 0.002591 0.730497 0.188856
H39   H     H_    0.077544 0.921236 0.649251 0.176436
H40   H     H_    0.009032 0.760955 0.667478 0.178323
H41   H     H_    0.849925 0.898540 0.632276 0.159868
H42   H     H_    0.736372 0.959599 0.750599 0.170930
H43   H     H_    0.901514 0.859469 0.796543 0.157122
H44   H     H_    0.851816 0.189304 0.818815 0.152009
H45   H     H_    0.451162 0.208621 0.826765 0.151664
H46   H     H_    0.434112 0.231393 0.701006 0.120941
H47   H     H_    0.258847 0.443922 0.700191 0.132244
H48   H     H_    0.191363 0.473845 0.826501 0.129031
O1    O     O_R   0.507430 0.255570 0.581420 -0.535912
O2    O     O_R   0.837200 0.593290 0.915250 -0.510018
O3    O     O_R   0.065330 0.635370 0.931590 -0.533572
O4    O     O_R   0.280190 0.527390 0.578910 -0.519398
O5    O     O_R   0.068300 0.828790 0.091860 -0.498342
O6    O     O_R   0.798730 0.057480 0.079370 -0.466117
O7    O     O_R   0.584680 0.080480 0.076790 -0.540551
O8    O     O_R   0.626790 0.809640 0.067050 -0.492082
O9    O     O_R   0.816010 0.596460 0.076500 -0.456905
O10   O     O_R   0.045680 0.638310 0.081070 -0.531031
O11   O     O_3   0.833590 0.833690 0.001120 -0.322236
O12   O     O_R   0.524460 0.695920 0.424060 -0.517316
O13   O     O_R   0.260310 0.739740 0.584580 -0.536691
O14   O     O_R   0.532250 0.695150 0.573830 -0.524659
O15   O     O_R   0.744930 0.503430 0.576380 -0.538404
O16   O     O_R   0.699250 0.276390 0.571950 -0.518894
O17   O     O_R   0.499020 0.256400 0.419850 -0.521768
O18   O     O_R   0.272400 0.528160 0.429140 -0.503162
O19   O     O_R   0.251910 0.740570 0.423020 -0.532209
O20   O     O_R   0.736530 0.504260 0.414810 -0.520657
O21   O     O_R   0.691460 0.277160 0.422180 -0.504080
O22   O     O_3   0.499990 0.499990 0.499980 -0.271465
O23   O     O_R   0.089490 0.825610 0.930610 -0.445252
O24   O     O_R   0.818370 0.054540 0.929880 -0.480878
O25   O     O_R   0.605870 0.077310 0.915530 -0.536438
O26   O     O_R   0.646440 0.806700 0.917570 -0.476554

loop_
_geom_bond_atom_site_label_1
_geom_bond_atom_site_label_2
_ccdc_geom_bond_type
C42   O21   A    
C46   C53   S    
C55   H38   S    
C53   C54   S    
Cr3   O21   S    
C50   H36   S    
C6    C11   A    
C17   C18   A    
C14   H5    S    
C4    O15   A    
C56   H20   S    
C41   O10   A    
C29   H13   S    
Cr5   O26   S    
C51   C52   S    
C51   H32   S    
C38   O6    A    
C50   H35   S    
C24   C25   A    
C46   H12   S    
C28   C33   S    
C58   C59   A    
Cr2   O12   S    
C39   O9    A    
C22   C24   A    
C34   C56   S    
Cr6   O10   S    
C44   H16   S    
C13   C14   A    
C54   C55   S    
C34   C45   S    
C32   C33   A    
C54   H41   S    
C49   H24   S    
C36   O2    A    
C30   C41   S    
C29   C30   A    
C6    C7    A    
C28   O19   A    
C35   O25   A    
Br1   C9    S    
C21   C22   A    
Cr5   O7    S    
C52   H30   S    
C34   C44   S    
Cr4   O6    S    
C47   H27   S    
C7    C8    A    
C52   H29   S    
Cr2   O13   S    
C1    C11   S    
C6    H47   S    
C41   O5    A    
C28   O18   A    
C55   H39   S    
C2    H45   S    
Cr3   O20   S    
C57   C58   A    
Cr1   O22   S    
C20   C26   A    
C53   H42   S    
Cr2   O22   S    
C16   O16   A    
C4    O14   A    
C5    C57   A    
C48   C49   S    
Cr3   O22   S    
C51   H33   S    
C12   C56   S    
C43   H2    S    
C7    H48   S    
Cr2   O19   S    
Cr1   O17   S    
C17   H6    S    
C12   H19   S    
Cr6   O11   S    
C16   O1    A    
C44   H11   S    
C1    O13   A    
C14   C15   A    
C43   C44   S    
C2    C59   A    
C26   C42   S    
C47   C56   S    
Cr5   O11   S    
C8    C37   S    
C57   H34   S    
C54   H40   S    
Cr1   O1    S    
C23   C36   S    
C45   C46   S    
Cr3   O16   S    
C5    C16   S    
C43   H1    S    
C31   C32   A    
C27   H10   S    
Br2   C24   S    
C45   H17   S    
C47   H28   S    
Cr6   O2    S    
C23   C46   S    
Cr1   O4    S    
C1    O4    A    
C40   O12   A    
Cr4   O23   S    
C48   H25   S    
Cr3   O15   S    
C53   H43   S    
C36   O26   A    
C20   H7    S    
C25   H9    S    
C23   C43   S    
C38   O7    A    
C50   C51   S    
Cr1   O18   S    
C3    C5    A    
C55   H37   S    
C10   H3    S    
C22   C38   S    
C3    H46   S    
Cr5   O8    S    
C52   H31   S    
C12   H18   S    
C21   H8    S    
C2    C3    A    
C49   H21   S    
C35   C59   S    
C9    C10   A    
C48   H26   S    
C42   O17   A    
C37   O3    A    
C13   H4    S    
C27   C33   A    
Cr4   O11   S    
C39   O8    A    
C18   C50   S    
C58   H44   S    
C30   C31   A    
C15   C17   A    
Cr4   O5    S    
C4    C34   S    
Cr2   O14   S    
C12   C23   S    
Cr6   O3    S    
C15   C39   S    
C45   H23   S    
C37   O23   A    
C8    C9    A    
C19   C40   S    
Cr4   O24   S    
C13   C19   A    
Cr5   O25   S    
C18   C19   A    
C27   C29   A    
C47   C48   S    
C35   O24   A    
C25   C26   A    
C20   C21   A    
C40   O20   A    
C32   H15   S    
C10   C11   A    
C31   H14   S    
C49   H22   S    
Cr6   O9    S    
