data_mof_unit_35683.cif
_audit_creation_date              2013-03-05T16:12:14-0500
_audit_creation_method            fapswitch 2.2
_symmetry_space_group_name_H-M    P1
_symmetry_Int_Tables_number       1
_space_group_crystal_system       triclinic
_cell_length_a                    10.773109
_cell_length_b                    9.404128
_cell_length_c                    27.823787
_cell_angle_alpha                 90.29487
_cell_angle_beta                  88.991883
_cell_angle_gamma                 89.92666
_cell_volume                      2818.39875131

loop_
_atom_site_label
_atom_site_type_symbol
_atom_site_description
_atom_site_fract_x
_atom_site_fract_y
_atom_site_fract_z
_atom_type_partial_charge
O1    O     O_R   0.317570 0.620260 0.500030 -0.582592
O2    O     O_R   0.317570 0.379740 0.500030 -0.594323
C1    C     C_R   0.259993 0.500221 0.504260 0.890664
O3    O     O_R   0.499900 0.620250 0.430280 -0.606681
O4    O     O_R   0.499900 0.379750 0.430280 -0.534034
C2    C     C_R   0.501437 0.499939 0.407320 0.869237
Cu1   Cu    Cu3+1 0.499860 0.642410 0.500020 0.943555
Cu2   Cu    Cu3+1 0.499860 0.357590 0.500020 0.973079
O5    O     O_R   0.682190 0.620260 0.500010 -0.609008
O6    O     O_R   0.682190 0.379740 0.500010 -0.588781
O7    O     O_R   0.499860 0.620280 0.569750 -0.588110
O8    O     O_R   0.499860 0.379720 0.569750 -0.582666
C3    C     C_R   0.740042 0.500158 0.500172 0.827004
C4    C     C_R   0.501097 0.500493 0.592552 0.915913
C5    C     C_R   0.377487 0.557866 0.178433 0.550218
O9    O     O_2   0.270906 0.554168 0.204478 -0.540584
N1    N     N_R   0.487267 0.545584 0.201790 -0.453314
C6    C     C_R   0.598283 0.543053 0.177369 0.551978
C7    C     C_R   0.542632 0.411032 0.273836 -0.157917
C8    C     C_R   0.552586 0.398284 0.323701 0.428416
C9    C     C_R   0.439418 0.621427 0.332944 -0.279498
C10   C     C_R   0.435255 0.635350 0.283191 -0.073746
C11   C     C_R   0.486749 0.530071 0.253323 0.265858
C12   C     C_R   0.489425 0.553677 0.101553 -0.115570
C13   C     C_R   0.375699 0.569776 0.127732 -0.027331
C14   C     C_R   0.264989 0.596544 0.102249 0.175480
C15   C     C_R   0.602542 0.538526 0.126549 -0.029399
C16   C     C_R   0.497829 0.503705 0.354124 -0.182224
H1    H     H_    0.397240 0.704203 0.355012 0.173917
H2    H     H_    0.392641 0.728678 0.267868 0.167739
C17   C     C_R   0.498622 0.501971 0.645485 -0.086401
C18   C     C_R   0.375794 0.545454 0.974638 0.051785
C19   C     C_R   0.604210 0.543953 0.973112 0.052123
C20   C     C_R   0.490016 0.540541 0.948627 0.083749
C21   C     C_R   0.264371 0.530935 0.948809 -0.201622
C22   C     C_R   0.265466 0.519508 0.898962 -0.117735
C23   C     C_R   0.377497 0.521300 0.872927 -0.033049
C24   C     C_R   0.490110 0.531836 0.897634 -0.045859
C25   C     C_R   0.602865 0.533775 0.871266 -0.027782
C26   C     C_R   0.600983 0.524565 0.820944 0.609518
N2    N     N_R   0.490649 0.511921 0.797796 -0.457715
C27   C     C_R   0.379871 0.511555 0.822538 0.618087
C28   C     C_R   0.483680 0.632681 0.720643 -0.141386
C29   C     C_R   0.487457 0.631213 0.670647 -0.137055
C30   C     C_R   0.505469 0.374177 0.671245 -0.230359
C31   C     C_R   0.501813 0.374798 0.721566 0.478175
C32   C     C_R   0.491182 0.505593 0.746322 0.221350
O10   O     O_2   0.272599 0.501794 0.798416 -0.474120
C33   C     C_R   0.376557 0.562009 0.025473 0.011355
C34   C     C_R   0.489890 0.551993 0.050331 0.065945
C35   C     C_R   0.603511 0.539215 0.024196 0.012009
C36   C     C_R   0.267275 0.591448 0.052078 -0.192894
H3    H     H_    0.481260 0.731325 0.651774 0.173192
H4    H     H_    0.475367 0.733018 0.739675 0.163095
H5    H     H_    0.177666 0.508657 0.880905 0.192319
H6    H     H_    0.174481 0.523322 0.966237 0.137210
H7    H     H_    0.181875 0.615436 0.034200 0.138943
O11   O     O_2   0.703653 0.546202 0.202764 -0.525505
C37   C     C_R   0.714814 0.516416 0.099917 0.172874
H8    H     H_    0.582053 0.330090 0.250316 0.198641
C38   C     C_R   0.715552 0.552194 0.945438 -0.202258
C39   C     C_R   0.714646 0.546528 0.895548 -0.115250
O12   O     O_2   0.708411 0.528121 0.795272 -0.485510
C40   C     C_R   0.713173 0.517330 0.049797 -0.190604
H9    H     H_    0.805313 0.566875 0.961208 0.137304
H10   H     H_    0.513836 0.274062 0.652122 0.197143
H11   H     H_    0.802459 0.552086 0.876060 0.194025
H12   H     H_    0.799548 0.494589 0.031244 0.139006
C41   C     C_3   0.067714 0.653722 0.518692 0.303999
C42   C     C_3   0.063481 0.382215 0.540075 0.305127
H13   H     H_    0.102562 0.725988 0.489881 0.095924
H14   H     H_    0.084263 0.278572 0.522058 0.117435
C43   C     C_3   0.925067 0.652637 0.514599 -0.412094
C44   C     C_3   0.920837 0.397772 0.541845 -0.408608
H15   H     H_    0.877936 0.690859 0.548017 0.218022
H16   H     H_    0.887479 0.438628 0.577381 0.217837
H17   H     H_    0.898037 0.727903 0.485797 0.148272
H18   H     H_    0.878934 0.290600 0.537056 0.168961
H19   H     H_    0.110477 0.547728 0.429041 0.190925
H20   H     H_    0.118702 0.362368 0.442068 0.197826
H21   H     H_    0.899518 0.522971 0.424040 0.200667
H22   H     H_    0.907890 0.343023 0.445310 0.219417
C45   C     C_3   0.077877 0.465005 0.454821 -0.569619
C46   C     C_3   0.121649 0.501301 0.506736 -0.109151
C47   C     C_3   0.877575 0.501072 0.502287 -0.020696
C48   C     C_3   0.934913 0.454663 0.453353 -0.342141
C49   C     C_3   0.619274 0.082969 0.482256 -0.168806
C50   C     C_3   0.618770 0.915679 0.481630 -0.193622
H23   H     H_    0.697370 0.119364 0.504811 0.143078
H24   H     H_    0.697730 0.878205 0.503401 0.151841
H25   H     H_    0.638726 0.122898 0.445642 0.234232
H26   H     H_    0.635839 0.876056 0.444346 0.168965
H27   H     H_    0.556256 0.123154 0.574130 0.156601
H28   H     H_    0.559057 0.879959 0.573664 0.151325
C51   C     C_3   0.481689 0.084488 0.550226 -0.179217
C52   C     C_3   0.482975 0.916952 0.550248 -0.177812
C53   C     C_3   0.399310 0.083406 0.471316 -0.181484
C54   C     C_3   0.399675 0.916004 0.471121 -0.181851
N3    N     N_3   0.500250 0.143650 0.501060 -0.144740
N4    N     N_3   0.500250 0.856350 0.501060 -0.135676
H29   H     H_    0.307503 0.120758 0.485211 0.158964
H30   H     H_    0.307904 0.878202 0.484492 0.182718
H31   H     H_    0.407793 0.122947 0.433926 0.193391
H32   H     H_    0.409828 0.876734 0.433506 0.152340
H33   H     H_    0.392203 0.123312 0.565978 0.193843
H34   H     H_    0.395189 0.876949 0.566563 0.200110
C55   C     C_3   0.837963 0.485410 0.123014 -0.753881
H35   H     H_    0.829253 0.391723 0.146956 0.264249
H36   H     H_    0.912262 0.459725 0.096163 0.195482
H37   H     H_    0.869423 0.580044 0.143396 0.265540
S1    S     S_3+6 0.511514 0.211880 0.752685 0.034630
O13   O     O_2   0.628214 0.210486 0.781496 -0.258478
O14   O     O_2   0.401303 0.196984 0.786123 -0.252224
O15   O     O_3   0.514209 0.074428 0.713728 -0.553474
H38   H     H_    0.538757 0.991156 0.733057 0.374487
S2    S     S_3+6 0.116820 0.739710 0.573735 0.025458
O16   O     O_2   0.017154 0.734756 0.612188 -0.220097
O17   O     O_2   0.233013 0.673669 0.592664 -0.262124
O18   O     O_3   0.145428 0.911251 0.560983 -0.573072
H39   H     H_    0.182239 0.950918 0.590520 0.385499
S3    S     S_3+6 0.120731 0.356320 0.599955 0.037113
O19   O     O_2   0.259563 0.357726 0.600166 -0.311881
O20   O     O_2   0.071128 0.465800 0.634712 -0.170311
O21   O     O_3   0.071688 0.195811 0.618535 -0.523068
H40   H     H_    0.112330 0.180886 0.649774 0.393773
C56   C     C_3   0.143201 0.635918 0.126707 -0.758642
H41   H     H_    0.072086 0.669700 0.100676 0.197756
H42   H     H_    0.105010 0.542866 0.146315 0.268774
H43   H     H_    0.156848 0.726872 0.151656 0.257096
S4    S     S_3+6 0.642599 0.255328 0.344863 -0.030064
O22   O     O_2   0.721414 0.304153 0.385743 -0.355109
O23   O     O_2   0.557157 0.138480 0.361201 -0.351127
O24   O     O_3   0.735890 0.192368 0.300520 -0.519932
H44   H     H_    0.782725 0.113602 0.315290 0.377300

loop_
_geom_bond_atom_site_label_1
_geom_bond_atom_site_label_2
_geom_bond_distance
_ccdc_geom_bond_type
C49   C50   1.573242 S    
C41   S2    1.815503 S    
C56   H41   1.110728 S    
C49   H25   1.104276 S    
C43   H15   1.109537 S    
N2    C27   1.367225 A    
S4    O23   1.501467 D    
C51   C52   1.575581 S    
C12   C15   1.421066 A    
C4    C17   1.472554 S    
C53   C54   1.574242 S    
Cu1   Cu2   2.678483 S    
C47   C48   1.545773 S    
Cu1   O7    1.952347 S    
C37   C40   1.395013 A    
N1    C11   1.441904 S    
C26   O12   1.349805 S    
C44   H16   1.112481 S    
C39   H11   1.083532 S    
C40   H12   1.076833 S    
C22   C23   1.396833 A    
Cu2   N3    2.012276 S    
H20   C45   1.113953 S    
O4    C2    1.301154 A    
O7    C4    1.295877 A    
C51   N3    1.489764 S    
C5    C13   1.416172 A    
C5    O9    1.347530 S    
S2    O16   1.503332 D    
C5    N1    1.364510 A    
C14   C56   1.512083 S    
C23   C27   1.404310 A    
C41   H13   1.114036 S    
O5    C3    1.289371 A    
S3    O21   1.680865 S    
C51   H33   1.112370 S    
C29   H3    1.082923 S    
C6    O11   1.347905 S    
C2    C16   1.481912 S    
C7    C8    1.399212 A    
C42   C44   1.543380 S    
C55   H35   1.110347 S    
C41   C43   1.543010 S    
C42   C46   1.580941 S    
H21   C48   1.113075 S    
H27   C51   1.112185 S    
O1    Cu1   1.975108 S    
C31   S1    1.767591 S    
C55   H36   1.110757 S    
O3    Cu1   1.950515 S    
C53   N3    1.488903 S    
N1    C6    1.365221 A    
C49   N3    1.488290 S    
C12   C34   1.425120 A    
C42   H14   1.114394 S    
Cu1   N4    2.011989 S    
C6    C15   1.414359 A    
C18   C21   1.416243 A    
C50   H26   1.112635 S    
C12   C13   1.421815 A    
O3    C2    1.296392 A    
C17   C29   1.403480 A    
C25   C26   1.402898 A    
C8    C16   1.421142 A    
C56   H43   1.110376 S    
C34   C35   1.417369 A    
C13   C14   1.421071 A    
H22   C48   1.112521 S    
C9    H1    1.083420 S    
C37   C55   1.512970 S    
O1    C1    1.293649 A    
C21   C22   1.390385 A    
C18   C20   1.417140 A    
C7    C11   1.399404 A    
C28   C29   1.390957 A    
C23   C24   1.408255 A    
C14   C36   1.396281 A    
C53   H31   1.108881 S    
C28   H4    1.082468 S    
C45   C46   1.563555 S    
Cu2   O8    1.950217 S    
C33   C36   1.406081 A    
C19   C20   1.417040 A    
N2    C32   1.433047 S    
S1    O14   1.502596 D    
C27   O10   1.349583 S    
H28   C52   1.112522 S    
C43   C47   1.553616 S    
S3    O19   1.495836 D    
C50   N4    1.488109 S    
C19   C38   1.416349 A    
C26   N2    1.366867 A    
C9    C16   1.409569 A    
C50   H24   1.110982 S    
C54   N4    1.489174 S    
C49   H23   1.111715 S    
C44   H18   1.113197 S    
O24   H44   0.990759 S    
C55   H37   1.109435 S    
S4    O24   1.682315 S    
C30   H10   1.081928 S    
Cu1   O5    1.975005 S    
C25   C39   1.396119 A    
C52   H34   1.108850 S    
C31   C32   1.410181 A    
C56   H42   1.109338 S    
C10   H2    1.082836 S    
S1    O13   1.502974 D    
C21   H6    1.077996 S    
C20   C24   1.420732 A    
O2    Cu2   1.974577 S    
C35   C40   1.405689 A    
C8    S4    1.766149 S    
O6    C3    1.293328 A    
O4    Cu2   1.952648 S    
C38   H9    1.077645 S    
O18   H39   0.990211 S    
O15   H38   0.990560 S    
C7    H8    1.082715 S    
C19   C35   1.422160 A    
S2    O18   1.681243 S    
S4    O22   1.501720 D    
O8    C4    1.298290 A    
C22   H5    1.083499 S    
C54   H30   1.109752 S    
H19   C45   1.113832 S    
C42   S3    1.804311 S    
C24   C25   1.408183 A    
C54   H32   1.111560 S    
C52   N4    1.488364 S    
S2    O17   1.501527 D    
O2    C1    1.294836 A    
S1    O15   1.682548 S    
C44   C47   1.549273 S    
C38   C39   1.389095 A    
C18   C33   1.422350 A    
S3    O20   1.500309 D    
C36   H7    1.077735 S    
C30   C31   1.399989 A    
C45   C48   1.544605 S    
Cu2   O6    1.975535 S    
C33   C34   1.417042 A    
C17   C30   1.404982 A    
C3    C47   1.483894 S    
C1    C46   1.490793 S    
C41   C46   1.577665 S    
C43   H17   1.114228 S    
C10   C11   1.397319 A    
C15   C37   1.421789 A    
C9    C10   1.392654 A    
C28   C32   1.398560 A    
C53   H29   1.111455 S    
O21   H40   0.990640 S    
