data_mof_unit_23548.cif
_audit_creation_date              2012-12-10T21:07:04-0500
_audit_creation_method            fapswitch 2.2
_symmetry_space_group_name_H-M    P1
_symmetry_Int_Tables_number       1
_space_group_crystal_system       triclinic
_cell_length_a                    10.786706
_cell_length_b                    15.852551
_cell_length_c                    15.055117
_cell_angle_alpha                 90.035071
_cell_angle_beta                  90.79314
_cell_angle_gamma                 90.091772
_cell_volume                      2574.12646109

loop_
_atom_site_label
_atom_site_type_symbol
_atom_type_description
_atom_site_fract_x
_atom_site_fract_y
_atom_site_fract_z
_atom_type_partial_charge
C1    C     C_R   0.500244 0.338905 0.499973 0.895527
C2    C     C_R   0.499662 0.086958 0.498382 -0.082514
C3    C     C_R   0.484090 0.954920 0.420733 -0.311176
C4    C     C_R   0.514926 0.045081 0.579304 -0.311090
C5    C     C_1   0.499262 0.824130 0.500637 0.091809
C6    C     C_1   0.500150 0.175872 0.499370 0.091815
C7    C     C_1   0.500323 0.250642 0.499892 -0.119626
C8    C     C_1   0.499391 0.749357 0.500107 -0.119623
C9    C     C_R   0.501836 0.423880 0.953063 -0.163372
C10   C     C_R   0.498059 0.576106 0.046937 -0.163919
C11   C     C_R   0.499008 0.499997 0.905041 0.069117
C12   C     C_R   0.499748 0.661095 0.500027 0.895532
C13   C     C_R   0.500894 0.499990 0.094958 0.068890
C14   C     C_R   0.496760 0.576106 0.953145 0.004537
C15   C     C_R   0.503123 0.423880 0.046854 0.004445
C16   C     C_R   0.259419 0.502138 0.499208 0.878513
C17   C     C_R   0.740582 0.497870 0.500793 0.878535
C18   C     C_1   0.499468 0.500011 0.807200 0.090660
C19   C     C_1   0.500489 0.499982 0.192799 0.090579
C20   C     C_R   0.220966 0.654898 0.246836 -0.200545
C21   C     C_R   0.779162 0.345018 0.753123 -0.200554
C22   C     C_R   0.171075 0.629928 0.327909 -0.102202
C23   C     C_R   0.872828 0.496669 0.501995 -0.084877
C24   C     C_R   0.829066 0.370021 0.672067 -0.102385
C25   C     C_R   0.114522 0.550565 0.335770 0.060931
C26   C     C_R   0.885479 0.449431 0.664215 0.060939
C27   C     C_R   0.108471 0.496610 0.261912 -0.220645
C28   C     C_R   0.891375 0.503400 0.738065 -0.220575
C29   C     C_R   0.158940 0.521393 0.180800 0.499901
C30   C     C_R   0.840882 0.478586 0.819160 0.499898
C31   C     C_R   0.214467 0.601027 0.173321 -0.200459
C32   C     C_R   0.785495 0.398905 0.826630 -0.200487
C33   C     C_R   0.931722 0.519894 0.423634 -0.223167
C34   C     C_R   0.127173 0.503360 0.498007 -0.084879
C35   C     C_R   0.068278 0.480144 0.576370 -0.223137
C36   C     C_R   0.941255 0.475969 0.579384 0.025886
C37   C     C_R   0.058747 0.524061 0.420616 0.025915
C38   C     C_R   0.514970 0.957485 0.581784 0.491888
C39   C     C_R   0.484086 0.042517 0.418241 0.491796
C40   C     C_R   0.499412 0.913048 0.501648 -0.082507
H1    H     H_    0.253089 0.621409 0.110986 0.195025
H2    H     H_    0.934547 0.564880 0.732181 0.185946
H3    H     H_    0.206006 0.453921 0.951923 0.387444
H4    H     H_    0.793213 0.546114 0.047940 0.387381
H5    H     H_    0.878783 0.536884 0.364499 0.179341
H6    H     H_    0.121213 0.463153 0.635508 0.179336
H7    H     H_    0.526765 0.080980 0.640128 0.217384
H8    H     H_    0.472346 0.919022 0.359906 0.217359
H9    H     H_    0.560467 0.940530 0.822495 0.399472
H10   H     H_    0.443704 0.059320 0.177131 0.399430
H11   H     H_    0.505340 0.364234 0.081868 0.163869
H12   H     H_    0.746851 0.378500 0.888949 0.194964
H13   H     H_    0.494549 0.635753 0.918132 0.164003
H14   H     H_    0.176224 0.672225 0.384376 0.136856
H15   H     H_    0.824039 0.327714 0.615603 0.136899
H16   H     H_    0.503457 0.364240 0.917974 0.137712
H17   H     H_    0.496457 0.635747 0.082025 0.137805
H18   H     H_    0.264560 0.716142 0.240918 0.174261
H19   H     H_    0.735678 0.283735 0.759033 0.174182
H20   H     H_    0.065187 0.435167 0.267802 0.185955
N1    N     N_1   0.499960 0.500020 0.270550 -0.077160
N2    N     N_1   0.500040 0.499980 0.729450 -0.077165
O1    O     O_R   0.500000 0.378020 0.573650 -0.627179
O2    O     O_2   0.021766 0.424660 0.073219 -0.230705
O3    O     O_3   0.209499 0.498107 0.998441 -0.544782
O4    O     O_2   0.977754 0.575478 0.926780 -0.230682
O5    O     O_2   0.769350 0.624808 0.887696 -0.303805
O6    O     O_3   0.790111 0.501861 0.001484 -0.544732
O7    O     O_2   0.423386 0.850258 0.701059 -0.278418
O8    O     O_2   0.648431 0.850746 0.681408 -0.269446
O9    O     O_3   0.550162 0.975207 0.768189 -0.547874
O10   O     O_2   0.351691 0.149829 0.318478 -0.267147
O11   O     O_2   0.576744 0.149158 0.298910 -0.280601
O12   O     O_R   0.500000 0.621980 0.426350 -0.627219
O13   O     O_3   0.448616 0.024780 0.231849 -0.547772
O14   O     O_R   0.500060 0.378020 0.426320 -0.573665
O15   O     O_R   0.499940 0.621980 0.573680 -0.573644
O16   O     O_R   0.316730 0.500010 0.573660 -0.622545
O17   O     O_R   0.683270 0.499990 0.426340 -0.622542
O18   O     O_R   0.316790 0.500010 0.426330 -0.607251
O19   O     O_R   0.683210 0.499990 0.573670 -0.607253
O20   O     O_2   0.230102 0.375113 0.112184 -0.303317
S1    S     S_3+6 0.153638 0.451579 0.089933 0.041011
S2    S     S_3+6 0.845954 0.548425 0.910007 0.040849
S3    S     S_3+6 0.534567 0.905124 0.684833 0.047929
S4    S     S_3+6 0.464954 0.094865 0.315150 0.048025
Zn1   Zn    Zn3+2 0.499960 0.500000 0.598370 1.016566
Zn2   Zn    Zn3+2 0.500040 0.500000 0.401630 1.016526

loop_
_geom_bond_atom_site_label_1
_geom_bond_atom_site_label_2
_ccdc_geom_bond_type
O16   Zn1   S    
C30   C32   A    
C11   C18   S    
C12   O12   A    
C27   C29   A    
C34   C37   A    
C33   H5    S    
C35   C36   A    
C22   H14   S    
C24   H15   S    
C17   C23   S    
C24   C26   A    
C29   S1    S    
C27   H20   S    
C11   C14   A    
O3    S1    S    
C3    H8    S    
C17   O17   A    
C34   C35   A    
C32   H12   S    
C16   C34   S    
O9    S3    S    
C2    C39   A    
C23   C33   A    
C22   C25   A    
C15   H11   S    
O14   Zn2   S    
C17   O19   A    
H3    O3    S    
C25   C37   S    
C3    C39   A    
O5    S2    D    
C2    C6    S    
C1    O1    A    
O17   Zn2   S    
C21   C32   A    
C13   C19   S    
C38   S3    S    
O6    S2    S    
C10   H17   S    
C10   C14   A    
C18   N2    T    
C33   C37   A    
C16   O18   A    
C2    C4    A    
O2    S1    D    
N1    Zn2   S    
O13   S4    S    
C8    C12   S    
C12   O15   A    
C9    H16   S    
C9    C11   A    
O19   Zn1   S    
C26   C36   S    
C4    C38   A    
C3    C40   A    
C23   C36   A    
C13   C15   A    
H4    O6    S    
C20   H18   S    
O7    S3    D    
C31   H1    S    
O1    Zn1   S    
C1    C7    S    
C1    O14   A    
C20   C22   A    
C10   C13   A    
C5    C8    T    
O10   S4    D    
C21   H19   S    
C6    C7    T    
C25   C27   A    
N2    Zn1   S    
C26   C28   A    
C28   C30   A    
C9    C15   A    
O18   Zn2   S    
H10   O13   S    
C38   C40   A    
O8    S3    D    
C19   N1    T    
C28   H2    S    
C16   O16   A    
C30   S2    S    
O11   S4    D    
O4    S2    D    
C14   H13   S    
O15   Zn1   S    
C29   C31   A    
O20   S1    D    
H9    O9    S    
C21   C24   A    
C39   S4    S    
O12   Zn2   S    
C5    C40   S    
C35   H6    S    
C20   C31   A    
C4    H7    S    
