data_mof_unit_12879.cif
_audit_creation_date              2012-12-11T15:10:39-0500
_audit_creation_method            fapswitch 2.2
_symmetry_space_group_name_H-M    P1
_symmetry_Int_Tables_number       1
_space_group_crystal_system       triclinic
_cell_length_a                    21.177225
_cell_length_b                    7.222819
_cell_length_c                    18.353998
_cell_angle_alpha                 89.566002
_cell_angle_beta                  92.95584
_cell_angle_gamma                 89.592457
_cell_volume                      2803.51938387

loop_
_atom_site_label
_atom_site_type_symbol
_atom_type_description
_atom_site_fract_x
_atom_site_fract_y
_atom_site_fract_z
_atom_type_partial_charge
O1    O     O_R   0.448880 0.506250 0.415280 -0.540485
O2    O     O_R   0.551120 0.006250 0.584720 -0.529021
O3    O     O_R   0.434830 0.174000 0.557310 -0.522422
O4    O     O_R   0.565170 0.674000 0.442690 -0.527280
C1    C     C_R   0.417252 0.344610 0.580022 0.714654
C2    C     C_R   0.582594 0.844520 0.419716 0.681047
O5    O     O_R   0.441680 0.176440 0.414130 -0.520508
O6    O     O_R   0.558320 0.676440 0.585870 -0.538625
O7    O     O_R   0.558020 0.007570 0.440520 -0.513559
O8    O     O_R   0.441980 0.507570 0.559480 -0.520504
C3    C     C_R   0.427022 0.345912 0.389169 0.843031
C4    C     C_R   0.573468 0.843905 0.610230 0.726117
O9    O     O_3   0.538160 0.339670 0.508820 -0.371501
O10   O     O_3   0.461840 0.839670 0.491180 -0.371208
V1    V     V_3+5 0.492920 0.064260 0.498360 1.397954
V2    V     V_3+5 0.507080 0.564260 0.501640 1.372547
C5    C     C_R   0.878252 0.941440 0.690567 -0.210721
C6    C     C_R   0.116898 0.365285 0.310416 -0.209710
H1    H     H_    0.902300 0.946978 0.639953 0.170087
H2    H     H_    0.092377 0.334860 0.359428 0.170681
C7    C     C_R   0.885463 0.948223 0.822238 -0.172230
C8    C     C_R   0.110428 0.433713 0.181169 -0.158662
C9    C     C_R   0.578866 0.885025 0.742858 0.250944
C10   C     C_R   0.417602 0.361444 0.254377 0.239352
C11   C     C_R   0.611404 0.944213 0.806541 0.292355
C12   C     C_R   0.382507 0.367652 0.187521 0.258663
C13   C     C_R   0.676720 0.965184 0.807623 -0.216615
C14   C     C_R   0.316638 0.377942 0.185911 -0.228966
C15   C     C_R   0.713226 0.904664 0.750496 0.029864
C16   C     C_R   0.283035 0.387290 0.250166 0.003400
C17   C     C_R   0.680532 0.848512 0.684018 -0.106378
C18   C     C_R   0.318056 0.358807 0.318563 -0.088342
C19   C     C_R   0.781249 0.912016 0.756168 -0.024123
C20   C     C_R   0.215120 0.406900 0.247529 -0.057364
C21   C     C_R   0.813657 0.900883 0.690625 -0.119436
C22   C     C_R   0.183288 0.375177 0.312553 -0.087678
C23   C     C_R   0.782240 0.838981 0.626087 0.408355
C24   C     C_R   0.217563 0.347458 0.379363 0.370165
C25   C     C_R   0.717692 0.797743 0.624695 0.180181
C26   C     C_R   0.283694 0.328148 0.381974 0.161600
C27   C     C_R   0.818442 0.926369 0.823984 0.321421
C28   C     C_R   0.176796 0.456659 0.183030 0.298822
C29   C     C_R   0.913819 0.968881 0.755265 0.216721
C30   C     C_R   0.080711 0.388025 0.245324 0.208342
C31   C     C_R   0.612333 0.849643 0.679753 -0.185853
C32   C     C_R   0.386225 0.355743 0.320406 -0.164475
H3    H     H_    0.697606 0.037690 0.852783 0.160509
H4    H     H_    0.292860 0.369429 0.132846 0.191169
C33   C     C_1   0.865641 0.938938 0.133566 -0.196816
C34   C     C_1   0.135356 0.438917 0.867753 -0.196382
C35   C     C_1   0.822818 0.924717 0.177351 -0.011690
C36   C     C_1   0.178161 0.424885 0.823921 -0.003654
C37   C     C_1   0.772016 0.905427 0.229115 -0.003239
C38   C     C_1   0.228722 0.405813 0.771811 -0.004273
C39   C     C_1   0.729141 0.888714 0.272713 0.001701
C40   C     C_1   0.271373 0.389229 0.727912 -0.007866
C41   C     C_1   0.678207 0.869627 0.324329 0.012968
C42   C     C_1   0.322057 0.370183 0.675974 -0.002945
C43   C     C_1   0.635070 0.855725 0.367715 -0.195930
C44   C     C_1   0.365009 0.356177 0.632353 -0.236565
O11   O     O_R   0.058070 0.289240 0.940580 -0.519012
O12   O     O_R   0.941930 0.789240 0.059420 -0.522151
O13   O     O_R   0.058330 0.616740 0.085880 -0.542959
O14   O     O_R   0.941670 0.116740 0.914120 -0.550390
C45   C     C_R   0.071784 0.447562 0.111643 0.803464
C46   C     C_R   0.927481 0.949821 0.889077 0.771419
O15   O     O_R   0.065180 0.619040 0.942700 -0.522121
O16   O     O_R   0.934820 0.119040 0.057300 -0.524228
O17   O     O_R   0.948870 0.787780 0.915270 -0.524859
O18   O     O_R   0.051130 0.287780 0.084730 -0.529100
C47   C     C_R   0.083175 0.450305 0.920156 0.714256
C48   C     C_R   0.917528 0.950384 0.080803 0.696005
O19   O     O_3   0.961870 0.453310 0.991210 -0.370129
O20   O     O_3   0.038130 0.953310 0.008790 -0.369892
V3    V     V_3+5 0.007070 0.728770 0.001630 1.433600
V4    V     V_3+5 0.992930 0.228770 0.998370 1.426886
N1    N     N_2   0.979854 0.002633 0.752909 -0.521993
H5    H     H_    0.001576 0.924802 0.714333 0.252109
C49   C     C_3   0.995653 0.196618 0.747546 -0.530430
H6    H     H_    0.976622 0.255406 0.694654 0.181792
H7    H     H_    0.047854 0.211948 0.750782 0.195763
H8    H     H_    0.976062 0.275677 0.792975 0.209996
N2    N     N_2   0.013883 0.366561 0.244872 -0.519481
H9    H     H_    0.999636 0.266817 0.280940 0.256317
C50   C     C_3   0.979113 0.538254 0.251548 -0.542815
H10   H     H_    0.990635 0.601667 0.305569 0.187926
H11   H     H_    0.927581 0.510327 0.246601 0.201433
H12   H     H_    0.990529 0.637350 0.207696 0.201816
O21   O     O_3   0.814466 0.821748 0.562467 -0.545087
C51   C     C_3   0.844970 0.646905 0.561018 0.120764
H13   H     H_    0.811539 0.542274 0.538167 0.158266
H14   H     H_    0.863880 0.598733 0.615863 0.098429
C52   C     C_3   0.900046 0.658122 0.511142 -0.730695
H15   H     H_    0.935129 0.760377 0.532472 0.211431
H16   H     H_    0.923542 0.520576 0.508363 0.178055
H17   H     H_    0.882745 0.700758 0.455312 0.233881
O22   O     O_3   0.185959 0.319990 0.442734 -0.555751
C53   C     C_3   0.177356 0.493511 0.476005 0.073382
H18   H     H_    0.144964 0.583508 0.441335 0.123371
H19   H     H_    0.223206 0.566245 0.486103 0.106090
C54   C     C_3   0.148083 0.463881 0.549091 -0.695817
H20   H     H_    0.179703 0.375502 0.585067 0.227548
H21   H     H_    0.141250 0.599288 0.575956 0.177250
H22   H     H_    0.101487 0.395394 0.540888 0.217364
O23   O     O_3   0.791578 0.877765 0.889086 -0.554460
C55   C     C_3   0.793278 0.026729 0.939072 0.074883
H23   H     H_    0.782089 0.162802 0.912173 0.104903
H24   H     H_    0.839815 0.036097 0.967817 0.123567
C56   C     C_3   0.746408 0.990882 0.997838 -0.716051
H25   H     H_    0.757850 0.857159 0.025909 0.230814
H26   H     H_    0.749240 0.103728 0.038613 0.185072
H27   H     H_    0.697292 0.984894 0.974203 0.212657
O24   O     O_3   0.202166 0.534878 0.122223 -0.572132
C57   C     C_3   0.211679 0.725476 0.135270 0.093594
H28   H     H_    0.250421 0.745903 0.177730 0.128824
H29   H     H_    0.167748 0.794357 0.152928 0.124555
C58   C     C_3   0.230216 0.819342 0.065174 -0.692496
H30   H     H_    0.191713 0.804380 0.022221 0.227929
H31   H     H_    0.238517 0.968968 0.075030 0.174630
H32   H     H_    0.274164 0.755425 0.046059 0.211583
N3    N     N_2   0.511740 0.866063 0.742057 -0.521351
H33   H     H_    0.492182 0.764898 0.708765 0.241467
C59   C     C_3   0.474777 0.035320 0.744354 -0.448636
H34   H     H_    0.445941 0.032121 0.793125 0.207890
H35   H     H_    0.442395 0.045887 0.695034 0.174781
H36   H     H_    0.505087 0.160527 0.746800 0.184600
N4    N     N_2   0.484840 0.344369 0.255243 -0.530674
H37   H     H_    0.502466 0.263569 0.214763 0.280149
C60   C     C_3   0.520422 0.512059 0.269404 -0.512543
H38   H     H_    0.544395 0.555459 0.219705 0.181776
H39   H     H_    0.557106 0.484212 0.313520 0.209087
H40   H     H_    0.489747 0.628146 0.286249 0.188234
N5    N     N_2   0.577838 0.992458 0.869035 -0.503475
H41   H     H_    0.598676 0.095855 0.900182 0.241288
C61   C     C_3   0.560136 0.835836 0.912934 -0.516998
H42   H     H_    0.603086 0.762743 0.936027 0.187472
H43   H     H_    0.530709 0.737663 0.879867 0.222943
H44   H     H_    0.532040 0.884895 0.958539 0.188344
N6    N     N_2   0.413754 0.361805 0.120786 -0.522017
H45   H     H_    0.391595 0.278133 0.082143 0.251821
C62   C     C_3   0.427623 0.542327 0.091236 -0.536804
H46   H     H_    0.383041 0.617418 0.075106 0.188677
H47   H     H_    0.455842 0.526017 0.042323 0.195336
H48   H     H_    0.455411 0.625453 0.131955 0.210302
N7    N     N_2   0.693918 0.688114 0.565834 -0.508807
H49   H     H_    0.661698 0.750236 0.529831 0.249239
C63   C     C_3   0.684920 0.493988 0.582737 -0.454367
H50   H     H_    0.669462 0.419332 0.532351 0.197111
H51   H     H_    0.649041 0.476279 0.624121 0.199346
H52   H     H_    0.729819 0.430589 0.605031 0.159288
N8    N     N_2   0.313838 0.254234 0.446973 -0.526135
H53   H     H_    0.300702 0.319434 0.493612 0.257925
C64   C     C_3   0.309114 0.054600 0.452984 -0.445414
H54   H     H_    0.335313 0.005277 0.503376 0.194216
H55   H     H_    0.329766 0.987027 0.405395 0.187326
H56   H     H_    0.258943 0.012379 0.455893 0.191398

loop_
_geom_bond_atom_site_label_1
_geom_bond_atom_site_label_2
_ccdc_geom_bond_type
C61   H44   S    
C16   C18   A    
O13   C45   A    
C52   H15   S    
C9    C31   A    
C7    C46   S    
C13   C15   A    
C63   H50   S    
O1    C3    A    
C30   N2    S    
O2    C4    A    
C2    O7    A    
C5    C29   A    
O22   C53   S    
C61   H42   S    
C9    N3    S    
N1    H5    S    
O5    C3    A    
C54   H20   S    
C27   O23   S    
C63   H51   S    
C10   C12   A    
C60   H38   S    
C58   H31   S    
C55   H24   S    
C59   H35   S    
C46   O17   A    
C55   H23   S    
C42   C44   T    
C45   O18   A    
C15   C19   A    
O6    V2    S    
C56   H26   S    
C5    H1    S    
C7    C29   A    
C62   H46   S    
C8    C30   A    
C40   C42   S    
C33   C35   T    
C33   C48   S    
C20   C28   A    
C10   N4    S    
C34   C36   T    
N8    H53   S    
C64   H55   S    
C11   N5    S    
C6    H2    S    
O16   C48   A    
C60   H40   S    
O11   C47   A    
N1    C49   S    
C52   H16   S    
C24   O22   S    
N7    C63   S    
C36   C38   S    
N7    H49   S    
C37   C39   T    
O11   V4    S    
C23   C25   A    
C38   C40   T    
O20   V3    S    
C16   C20   A    
C50   H11   S    
C59   H34   S    
C63   H52   S    
O4    C2    A    
C12   N6    S    
C58   H32   S    
C49   H7    S    
C59   H36   S    
O5    V1    S    
C50   H10   S    
C26   N8    S    
C35   C37   S    
C62   H47   S    
O14   C46   A    
O4    V2    S    
C34   C47   S    
N4    C60   S    
C8    C45   S    
C6    C30   A    
C28   O24   S    
C51   H14   S    
N2    H9    S    
O6    C4    A    
C25   N7    S    
O14   V4    S    
O12   C48   A    
O1    V2    S    
C64   H56   S    
O2    V1    S    
N3    H33   S    
C7    C27   A    
N2    C50   S    
C52   H17   S    
C53   H19   S    
C39   C41   S    
O18   V4    S    
N5    H41   S    
O19   V4    S    
O12   V3    S    
C56   H27   S    
C29   N1    S    
N4    H37   S    
C18   C26   A    
O3    V1    S    
C51   C52   S    
O24   C57   S    
C50   H12   S    
C13   H3    S    
C61   H43   S    
C14   H4    S    
C1    C44   S    
C21   C23   A    
C18   C32   A    
C2    C43   S    
C4    C31   S    
O3    C1    A    
C49   H8    S    
C57   H29   S    
N6    H45   S    
C57   H28   S    
C62   H48   S    
O16   V4    S    
C53   C54   S    
O23   C55   S    
O15   C47   A    
C12   C14   A    
C23   O21   S    
C19   C27   A    
C14   C16   A    
O7    V1    S    
C10   C32   A    
C1    O8    A    
C15   C17   A    
O8    V2    S    
C58   H30   S    
C24   C26   A    
N6    C62   S    
C51   H13   S    
C8    C28   A    
O13   V3    S    
C22   C24   A    
C19   C21   A    
C17   C25   A    
O17   V3    S    
C20   C22   A    
N8    C64   S    
N3    C59   S    
C57   C58   S    
C41   C43   T    
C49   H6    S    
C9    C11   A    
O15   V3    S    
C54   H21   S    
C53   H18   S    
C17   C31   A    
O9    V2    S    
N5    C61   S    
O10   V1    S    
C3    C32   S    
C54   H22   S    
C5    C21   A    
C60   H39   S    
O21   C51   S    
C56   H25   S    
C6    C22   A    
C55   C56   S    
C64   H54   S    
C11   C13   A    
