data_mof_unit_42215.cif
_audit_creation_date              2012-12-10T18:50:50-0500
_audit_creation_method            fapswitch 2.2
_symmetry_space_group_name_H-M    P1
_symmetry_Int_Tables_number       1
_space_group_crystal_system       triclinic
_cell_length_a                    10.614334
_cell_length_b                    9.85351
_cell_length_c                    15.744634
_cell_angle_alpha                 89.666578
_cell_angle_beta                  90.280303
_cell_angle_gamma                 90.080525
_cell_volume                      1646.65765729

loop_
_atom_site_label
_atom_site_type_symbol
_atom_type_description
_atom_site_fract_x
_atom_site_fract_y
_atom_site_fract_z
_atom_type_partial_charge
C1    C     C_R   0.260482 0.499930 0.500025 0.889030
C2    C     C_3   0.609073 0.572392 0.950754 -0.345235
C3    C     C_3   0.618842 0.557389 0.047963 -0.301880
C4    C     C_1   0.494106 0.494983 0.825546 0.134110
C5    C     C_1   0.496011 0.499823 0.174416 0.081564
C6    C     C_1   0.497017 0.500977 0.249626 -0.034765
C7    C     C_R   0.066020 0.486669 0.423089 -0.258718
C8    C     C_R   0.067064 0.513456 0.576855 -0.218293
C9    C     C_R   0.936257 0.487793 0.421928 0.372035
C10   C     C_R   0.937327 0.512977 0.577823 0.404066
C11   C     C_R   0.872669 0.500385 0.499857 -0.307942
C12   C     C_R   0.128801 0.499849 0.500008 -0.133800
C13   C     C_R   0.575536 0.071529 0.554741 -0.026087
C14   C     C_R   0.575541 0.927720 0.554732 -0.027983
C15   C     C_R   0.498422 0.500364 0.338345 0.943008
C16   C     C_R   0.424425 0.928487 0.445218 -0.031295
C17   C     C_R   0.424424 0.072294 0.445218 -0.024105
C18   C     C_R   0.739810 0.500104 0.499874 1.047238
C19   C     C_R   0.498710 0.499519 0.661662 0.952676
C20   C     C_3   0.380597 0.581158 0.049148 0.023151
C21   C     C_3   0.482430 0.346776 0.051199 0.042434
C22   C     C_3   0.495997 0.343291 0.951853 0.141581
C23   C     C_3   0.368416 0.560498 0.951082 0.233769
C24   C     C_1   0.496346 0.497698 0.750333 0.019049
C25   C     C_3   0.494749 0.496375 0.082917 -0.013869
C26   C     C_3   0.492625 0.493311 0.917029 -0.074617
H1    H     H_    0.291381 0.485092 0.941735 0.083182
H2    H     H_    0.411305 0.290016 0.926517 0.075221
H3    H     H_    0.363972 0.874392 0.401414 0.147063
H4    H     H_    0.363962 0.127014 0.401416 0.146174
H5    H     H_    0.292647 0.542191 0.079002 0.122044
H6    H     H_    0.385396 0.311569 0.066603 0.106436
H7    H     H_    0.639692 0.657872 0.076651 0.237161
H8    H     H_    0.699539 0.490345 0.064710 0.255391
H9    H     H_    0.601083 0.681639 0.934014 0.254921
H10   H     H_    0.697417 0.536343 0.920833 0.231737
H11   H     H_    0.118806 0.476765 0.364708 0.169653
H12   H     H_    0.120563 0.523041 0.635342 0.207282
H13   H     H_    0.635978 0.125644 0.598555 0.179540
H14   H     H_    0.636001 0.873035 0.598532 0.182907
N1    N     N_R   0.499970 0.857200 0.499980 -0.098665
N2    N     N_R   0.499970 0.142800 0.499980 -0.097701
O1    O     O_R   0.316750 0.614620 0.499990 -0.626072
O2    O     O_R   0.316750 0.385380 0.499990 -0.623164
O3    O     O_R   0.499990 0.614720 0.377140 -0.605524
O4    O     O_R   0.499990 0.385280 0.377140 -0.599841
O5    O     O_R   0.683220 0.614710 0.500000 -0.586996
O6    O     O_R   0.683220 0.385290 0.500000 -0.587569
O7    O     O_R   0.499980 0.614620 0.622860 -0.601541
O8    O     O_R   0.499980 0.385380 0.622860 -0.608488
Zn1   Zn    Zn3+2 0.499980 0.653120 0.500000 1.026720
Zn2   Zn    Zn3+2 0.499980 0.346880 0.500000 1.031508
Br1   Br    Br    0.590186 0.219970 0.115988 -0.259260
Br2   Br    Br    0.393641 0.771258 0.086699 -0.340020
S1    S     S_3+6 0.627711 0.242834 0.913531 0.112288
O9    O     O_2   0.636160 0.249608 0.818414 -0.262730
O10   O     O_2   0.750072 0.291475 0.950969 -0.204121
O11   O     O_3   0.606364 0.079385 0.941342 -0.421417
H15   H     H_    0.521413 0.055996 0.919617 0.381179
S2    S     S_3+6 0.311127 0.706919 0.892057 0.076324
O12   O     O_2   0.201563 0.768674 0.937955 -0.200609
O13   O     O_2   0.413227 0.811330 0.881481 -0.280860
O14   O     O_3   0.260598 0.657122 0.795702 -0.563328
H16   H     H_    0.234184 0.741685 0.766353 0.395399
S3    S     S_3+6 0.856971 0.476050 0.322877 0.044004
O15   O     O_2   0.773985 0.352424 0.322840 -0.234075
O16   O     O_2   0.776679 0.599947 0.309638 -0.322752
O17   O     O_3   0.959972 0.463792 0.242394 -0.508296
H17   H     H_    0.992207 0.557198 0.233515 0.363247
S4    S     S_3+6 0.859336 0.524220 0.676744 0.030828
O18   O     O_2   0.776740 0.647929 0.677043 -0.324261
O19   O     O_2   0.779596 0.399644 0.688903 -0.287585
O20   O     O_3   0.964041 0.534771 0.757008 -0.502438
H18   H     H_    0.912322 0.536945 0.809198 0.401977

loop_
_geom_bond_atom_site_label_1
_geom_bond_atom_site_label_2
_ccdc_geom_bond_type
C2    H9    S    
O8    Zn2   S    
S1    O9    D    
C11   C18   S    
S4    O18   D    
C23   H1    S    
O20   H18   S    
C19   O7    A    
C1    O2    A    
C4    C26   S    
C15   O4    A    
C20   C23   S    
C3    C25   S    
C8    C12   A    
S3    O17   S    
C18   O5    A    
O2    Zn2   S    
S4    O20   S    
C2    C3    S    
C7    H11   S    
C2    C26   S    
C22   H2    S    
C13   C14   A    
C21   Br1   S    
C17   H4    S    
C9    C11   A    
C19   O8    A    
O1    Zn1   S    
C21   C25   S    
C22   S1    S    
C1    C12   S    
C8    H12   S    
S1    O11   S    
S2    O14   S    
C5    C25   S    
C5    C6    T    
C10   S4    S    
S2    O13   D    
C13   N2    A    
N1    Zn1   S    
C19   C24   S    
O3    Zn1   S    
S1    O10   D    
C22   C26   S    
C23   S2    S    
C4    C24   T    
C21   H6    S    
C9    S3    S    
C7    C12   A    
C6    C15   S    
C13   H13   S    
C20   C25   S    
C15   O3    A    
C14   H14   S    
O14   H16   S    
O4    Zn2   S    
O6    Zn2   S    
C14   N1    A    
C16   H3    S    
C20   Br2   S    
S3    O15   D    
C10   C11   A    
C23   C26   S    
C2    H10   S    
C7    C9    A    
C3    H7    S    
C17   N2    A    
O17   H17   S    
S4    O19   D    
C3    H8    S    
O7    Zn1   S    
O11   H15   S    
C21   C22   S    
C16   N1    A    
C1    O1    A    
C8    C10   A    
O5    Zn1   S    
C16   C17   A    
N2    Zn2   S    
S2    O12   D    
S3    O16   D    
C20   H5    S    
C18   O6    A    
