data_mof_unit_24056.cif
_audit_creation_date              2012-12-11T14:21:11-0500
_audit_creation_method            fapswitch 2.2
_symmetry_space_group_name_H-M    P1
_symmetry_Int_Tables_number       1
_space_group_crystal_system       triclinic
_cell_length_a                    21.95701
_cell_length_b                    7.208363
_cell_length_c                    14.935663
_cell_angle_alpha                 90.46781
_cell_angle_beta                  106.944333
_cell_angle_gamma                 90.155453
_cell_volume                      2261.19916926

loop_
_atom_site_label
_atom_site_type_symbol
_atom_type_description
_atom_site_fract_x
_atom_site_fract_y
_atom_site_fract_z
_atom_type_partial_charge
O1    O     O_R   0.584770 0.505770 0.002090 -0.541391
O2    O     O_R   0.415230 0.005770 0.997910 -0.540818
O3    O     O_R   0.467060 0.173340 0.861950 -0.538277
O4    O     O_R   0.532940 0.673340 0.138050 -0.538278
C1    C     C_R   0.455130 0.343289 0.825949 0.678855
C2    C     C_R   0.544778 0.845221 0.173914 0.678739
O5    O     O_R   0.587510 0.175890 0.993210 -0.540922
O6    O     O_R   0.412490 0.675890 0.006790 -0.541256
O7    O     O_R   0.536540 0.008150 0.130100 -0.535986
O8    O     O_R   0.463460 0.508150 0.869900 -0.536770
C3    C     C_R   0.612967 0.345083 0.997425 0.731623
C4    C     C_R   0.387039 0.844764 0.002550 0.731161
O9    O     O_3   0.483140 0.340040 0.044760 -0.378304
O10   O     O_3   0.516860 0.840040 0.955240 -0.378630
V1    V     V_3+5 0.503130 0.064190 0.991700 1.422742
V2    V     V_3+5 0.496870 0.564190 0.008300 1.421086
C5    C     C_2   0.213799 0.727872 0.003105 -0.114744
C6    C     C_2   0.785779 0.227412 0.996159 -0.124028
C7    C     C_2   0.180354 0.887014 0.996326 -0.294074
C8    C     C_2   0.819677 0.386478 0.003674 -0.290435
H1    H     H_    0.190488 0.597159 0.008539 0.140090
H2    H     H_    0.808682 0.096515 0.990070 0.139730
H3    H     H_    0.202113 0.019181 0.989755 0.129727
H4    H     H_    0.798274 0.518790 0.010823 0.132033
C9    C     C_2   0.281672 0.714532 0.002881 -0.132164
C10   C     C_2   0.717887 0.214741 0.996394 -0.132184
C11   C     C_2   0.319966 0.861183 0.003568 -0.300216
C12   C     C_2   0.680067 0.361678 0.996456 -0.299438
H5    H     H_    0.300601 0.575517 0.002810 0.137164
H6    H     H_    0.698512 0.075811 0.995812 0.137821
H7    H     H_    0.302254 0.001000 0.004511 0.131736
H8    H     H_    0.698140 0.501475 0.996086 0.131757
C13   C     C_R   0.927065 0.881058 0.724394 -0.035195
C14   C     C_R   0.072855 0.392755 0.276056 -0.038265
C15   C     C_R   0.573274 0.857469 0.275089 -0.027041
C16   C     C_R   0.426808 0.345986 0.724465 -0.030431
C17   C     C_R   0.937167 0.819690 0.570543 -0.080225
C18   C     C_R   0.064837 0.461068 0.430536 -0.081435
C19   C     C_R   0.964998 0.842204 0.666386 -0.164319
C20   C     C_R   0.036464 0.444310 0.334567 -0.163093
C21   C     C_R   0.861160 0.897176 0.686836 -0.170061
C22   C     C_R   0.137939 0.358545 0.313497 -0.170230
C23   C     C_R   0.831270 0.872617 0.589732 0.008912
C24   C     C_R   0.168650 0.379997 0.410664 0.009025
C25   C     C_R   0.870798 0.833378 0.531672 -0.003148
C26   C     C_R   0.130539 0.431541 0.469091 -0.003497
C27   C     C_R   0.763738 0.883552 0.548837 0.058255
C28   C     C_R   0.235791 0.355955 0.451185 0.058433
C29   C     C_R   0.736884 0.854724 0.450240 -0.031428
C30   C     C_R   0.263627 0.383704 0.549726 -0.031443
C31   C     C_R   0.778416 0.816412 0.395834 -0.261372
C32   C     C_R   0.223397 0.433635 0.604496 -0.261945
C33   C     C_R   0.843817 0.806349 0.435621 0.597454
C34   C     C_R   0.158384 0.456468 0.565118 0.597827
C35   C     C_R   0.722149 0.921911 0.603251 -0.156929
C36   C     C_R   0.276084 0.306167 0.396399 -0.157122
C37   C     C_R   0.656810 0.931778 0.563225 -0.204957
C38   C     C_R   0.341036 0.283525 0.436023 -0.204754
C39   C     C_R   0.629938 0.904803 0.467469 0.142130
C40   C     C_R   0.368760 0.308179 0.531763 0.142501
C41   C     C_R   0.669337 0.865640 0.409330 0.117328
C42   C     C_R   0.330776 0.359513 0.590271 0.116902
C43   C     C_R   0.563632 0.918720 0.429258 -0.166197
C44   C     C_R   0.434380 0.278275 0.569662 -0.167111
C45   C     C_R   0.535527 0.896338 0.333451 -0.173391
C46   C     C_R   0.463014 0.294597 0.665601 -0.170747
C47   C     C_R   0.639248 0.841214 0.312273 -0.205994
C48   C     C_R   0.361671 0.380471 0.687399 -0.207423
H9    H     H_    0.665357 0.813018 0.262876 0.099156
H10   H     H_    0.336511 0.416407 0.737064 0.102024
H11   H     H_    0.484441 0.910704 0.304688 0.105368
H12   H     H_    0.513292 0.265108 0.694159 0.106775
H13   H     H_    0.626948 0.961998 0.607908 0.120088
H14   H     H_    0.369857 0.244292 0.391088 0.120352
H15   H     H_    0.967735 0.789331 0.527024 0.180571
H16   H     H_    0.035383 0.501372 0.474294 0.181639
H17   H     H_    0.016064 0.827952 0.695457 0.144868
H18   H     H_    0.986195 0.473648 0.305701 0.149896
H19   H     H_    0.834930 0.925401 0.736046 0.089330
H20   H     H_    0.163218 0.322409 0.264022 0.091463
H21   H     H_    0.762045 0.792630 0.321463 0.156202
H22   H     H_    0.240567 0.457394 0.678825 0.156764
H23   H     H_    0.738283 0.945859 0.677625 0.117410
H24   H     H_    0.259156 0.282433 0.322054 0.116602
H25   H     H_    0.533537 0.949199 0.473527 0.113611
H26   H     H_    0.463355 0.238041 0.525146 0.113610
O11   O     O_R   0.036450 0.233070 0.130130 -0.537693
O12   O     O_R   0.963550 0.733070 0.869870 -0.537243
O13   O     O_R   0.912470 0.560570 0.006790 -0.543537
O14   O     O_R   0.087530 0.060570 0.993210 -0.544967
C49   C     C_R   0.886984 0.391762 0.002555 0.731932
C50   C     C_R   0.113018 0.892076 0.997434 0.730727
O15   O     O_R   0.032920 0.562940 0.138050 -0.537766
O16   O     O_R   0.967080 0.062940 0.861950 -0.537546
O17   O     O_R   0.084790 0.730500 0.002090 -0.537755
O18   O     O_R   0.915210 0.230500 0.997910 -0.538970
C51   C     C_R   0.044785 0.395434 0.174515 0.685212
C52   C     C_R   0.955318 0.893449 0.825618 0.685341
O19   O     O_3   0.016820 0.396170 0.955260 -0.376443
O20   O     O_3   0.983180 0.896170 0.044740 -0.376556
V3    V     V_3+5 0.996880 0.672090 0.008300 1.450750
V4    V     V_3+5 0.003120 0.172090 0.991700 1.445054
F1    F     F_    0.880965 0.768456 0.379231 -0.697845
F2    F     F_    0.122540 0.505673 0.621825 -0.695791

loop_
_geom_bond_atom_site_label_1
_geom_bond_atom_site_label_2
_ccdc_geom_bond_type
C43   C45   A    
C22   H20   S    
C17   C25   A    
O18   V4    S    
C14   C22   A    
O2    C4    A    
C2    O7    A    
O12   V3    S    
C27   C29   A    
C18   H16   S    
O5    C3    A    
C13   C19   A    
C14   C20   A    
C19   H17   S    
C34   F2    S    
C16   C46   A    
C37   C39   A    
C15   C45   A    
C38   C40   A    
C1    C16   S    
C14   C51   S    
C2    C15   S    
C40   C42   A    
C13   C52   S    
C37   H13   S    
O14   V4    S    
C7    C50   S    
C49   O18   A    
C46   H12   S    
C8    H4    S    
C24   C26   A    
C29   C31   A    
C6    C10   S    
C30   C32   A    
O13   C49   A    
C31   H21   S    
C28   C30   A    
C17   H15   S    
C25   C33   A    
O6    V2    S    
C43   H25   S    
C21   C23   A    
C22   C24   A    
C44   H26   S    
C32   C34   A    
C36   H24   S    
C9    H5    S    
C8    C49   S    
C39   C41   A    
C29   C41   A    
C4    C11   S    
C11   H7    S    
C12   H8    S    
O4    C2    A    
O15   V3    S    
C45   H11   S    
C50   O17   A    
C5    H1    S    
C47   H9    S    
C44   C46   A    
O4    V2    S    
C7    H3    S    
O11   V4    S    
C41   C47   A    
O14   C50   A    
C15   C47   A    
O6    C4    A    
C26   C34   A    
O1    V2    S    
C32   H22   S    
O2    V1    S    
C23   C25   A    
C10   H6    S    
C35   C37   A    
C30   C42   A    
C20   H18   S    
C35   H23   S    
O15   C51   A    
O3    V1    S    
C38   H14   S    
C27   C35   A    
C28   C36   A    
O13   V3    S    
C6    H2    S    
C10   C12   D    
O3    C1    A    
C21   H19   S    
C16   C48   A    
C9    C11   D    
C39   C43   A    
C42   C48   A    
C40   C44   A    
C13   C21   A    
O7    V1    S    
C5    C9    S    
C1    O8    A    
C17   C19   A    
O8    V2    S    
C18   C20   A    
C3    C12   S    
C33   F1    S    
O5    V1    S    
O20   V3    S    
C5    C7    D    
C36   C38   A    
C6    C8    D    
C18   C26   A    
O17   V3    S    
O19   V4    S    
O16   V4    S    
C48   H10   S    
O9    V2    S    
O16   C52   A    
O10   V1    S    
O1    C3    A    
C31   C33   A    
C23   C27   A    
O12   C52   A    
C24   C28   A    
O11   C51   A    
