data_mof_unit_45724.cif
_audit_creation_date              2012-12-10T16:58:59-0500
_audit_creation_method            fapswitch 2.2
_symmetry_space_group_name_H-M    P1
_symmetry_Int_Tables_number       1
_space_group_crystal_system       triclinic
_cell_length_a                    9.68635
_cell_length_b                    10.908089
_cell_length_c                    17.336939
_cell_angle_alpha                 89.818331
_cell_angle_beta                  86.507045
_cell_angle_gamma                 89.129396
_cell_volume                      1828.19482069

loop_
_atom_site_label
_atom_site_type_symbol
_atom_type_description
_atom_site_fract_x
_atom_site_fract_y
_atom_site_fract_z
_atom_type_partial_charge
C1    C     C_R   0.498710 0.734661 0.502271 0.803801
C2    C     C_R   0.372140 0.573696 0.775397 0.269539
C3    C     C_R   0.406959 0.513711 0.147501 -0.080887
C4    C     C_R   0.406098 0.525707 0.227006 -0.225175
C5    C     C_R   0.641274 0.444423 0.224838 -0.207274
C6    C     C_R   0.641440 0.431224 0.144917 -0.178767
C7    C     C_R   0.525021 0.467665 0.106246 0.219220
C8    C     C_2   0.493696 0.553665 0.978259 0.455719
C9    C     C_2   0.526009 0.457369 0.022448 -0.301252
C10   C     C_R   0.523270 0.491563 0.266167 -0.025270
C11   C     C_2   0.601851 0.065536 0.516919 -0.265401
C12   C     C_R   0.482800 0.500229 0.649858 0.880183
C13   C     C_2   0.505067 0.134514 0.484304 0.302836
C14   C     C_2   0.608626 0.932274 0.509732 -0.143001
C15   C     C_2   0.493423 0.866452 0.509783 -0.281512
C16   C     C_2   0.071453 0.587143 0.530216 0.428464
C17   C     C_2   0.916621 0.566684 0.546422 0.391350
C18   C     C_R   0.501245 0.265543 0.497687 0.733207
C19   C     C_R   0.517267 0.498617 0.350231 0.765713
C20   C     C_R   0.477385 0.505554 0.734338 -0.236518
C21   C     C_R   0.585429 0.450679 0.773868 0.399213
C22   C     C_R   0.589954 0.468771 0.853338 -0.366510
C23   C     C_R   0.485714 0.535985 0.894346 -0.141704
C24   C     C_R   0.373100 0.583922 0.855917 0.351610
Cu1   Cu    Cu3+1 0.361370 0.499980 0.499980 0.988955
Cu2   Cu    Cu3+1 0.638630 0.500020 0.500020 0.996854
H1    H     H_    0.732492 0.394395 0.113178 0.133962
H2    H     H_    0.681009 0.108342 0.549083 0.148193
H3    H     H_    0.709912 0.888025 0.508180 0.165595
H4    H     H_    0.391835 0.909382 0.518164 0.195184
H5    H     H_    0.108390 0.418661 0.489784 0.143269
H6    H     H_    0.899831 0.466601 0.452295 0.125820
H7    H     H_    0.313587 0.561575 0.257821 0.151662
H8    H     H_    0.731766 0.415770 0.254349 0.147255
H9    H     H_    0.552905 0.368644 0.996977 0.117501
H10   H     H_    0.315333 0.539736 0.118093 0.149565
H11   H     H_    0.675830 0.430853 0.883214 0.151028
N1    N     N_2   0.152990 0.501340 0.500850 -0.318534
N2    N     N_2   0.846850 0.501370 0.500880 -0.292593
O1    O     O_R   0.382960 0.678040 0.499990 -0.538016
O2    O     O_R   0.617100 0.678080 0.500010 -0.551286
O3    O     O_R   0.369350 0.500000 0.613580 -0.539756
O4    O     O_R   0.603500 0.500040 0.613610 -0.473252
O5    O     O_R   0.382900 0.321920 0.499990 -0.565116
O6    O     O_R   0.617040 0.321960 0.500010 -0.597575
O7    O     O_R   0.396500 0.499960 0.386390 -0.590638
O8    O     O_R   0.630650 0.500000 0.386420 -0.591696
O9    O     O_3   0.685742 0.380427 0.733748 -0.699126
H12   H     H_    0.753401 0.349165 0.770035 0.318706
O10   O     O_3   0.411054 0.084235 0.436486 -0.612905
C25   C     C_3   0.447803 0.118592 0.359340 0.069503
H13   H     H_    0.553680 0.083381 0.341635 0.143016
H14   H     H_    0.444496 0.220174 0.352326 0.131631
C26   C     C_3   0.345259 0.063948 0.306032 -0.325226
H15   H     H_    0.346078 0.962453 0.312133 0.225357
H16   H     H_    0.239604 0.099371 0.322893 0.223877
C27   C     C_3   0.381312 0.097841 0.221780 -0.917438
H17   H     H_    0.379103 0.199063 0.214243 0.259639
H18   H     H_    0.304617 0.057378 0.184579 0.258956
H19   H     H_    0.485794 0.061645 0.203071 0.260602
O11   O     O_3   0.129807 0.695759 0.552713 -0.574890
C28   C     C_3   0.064888 0.798662 0.519090 -0.001709
H20   H     H_    0.102567 0.881977 0.547266 0.174583
H21   H     H_    0.950833 0.800113 0.530668 0.146753
C29   C     C_3   0.102415 0.808919 0.431888 -0.323775
H22   H     H_    0.216140 0.817285 0.421603 0.237996
H23   H     H_    0.069270 0.725630 0.401722 0.196779
C30   C     C_3   0.031879 0.920582 0.397408 -0.932198
H24   H     H_    0.917671 0.913352 0.405673 0.256448
H25   H     H_    0.060379 0.925665 0.334488 0.252983
H26   H     H_    0.065262 0.005871 0.425252 0.267095
O12   O     O_3   0.846221 0.623432 0.608365 -0.678548
H27   H     H_    0.915051 0.659726 0.641219 0.314103
O13   O     O_3   0.267699 0.648244 0.896012 -0.600575
C31   C     C_3   0.162125 0.565527 0.918813 0.091818
H28   H     H_    0.202152 0.492942 0.957407 0.126643
H29   H     H_    0.120004 0.521852 0.867306 0.162167
C32   C     C_3   0.044897 0.635760 0.963029 -0.311753
H30   H     H_    0.085690 0.680809 0.014202 0.228482
H31   H     H_    0.003498 0.708007 0.924989 0.222384
C33   C     C_3   0.927793 0.550722 0.990015 -0.938823
H32   H     H_    0.885518 0.504734 0.939728 0.253556
H33   H     H_    0.843322 0.604726 0.020678 0.276551
H34   H     H_    0.965880 0.480146 0.030221 0.247827
O14   O     O_3   0.267812 0.631816 0.737514 -0.575675
C34   C     C_3   0.305844 0.754375 0.720770 0.148341
H35   H     H_    0.351037 0.758806 0.660387 0.153793
H36   H     H_    0.383267 0.791440 0.759599 0.114178
C35   C     C_3   0.176902 0.836873 0.728688 -0.304171
H37   H     H_    0.097092 0.802188 0.691349 0.233301
H38   H     H_    0.133703 0.834703 0.789564 0.228149
C36   C     C_3   0.210247 0.969012 0.706096 -0.942122
H39   H     H_    0.285796 0.007135 0.744974 0.262519
H40   H     H_    0.114182 0.025995 0.711164 0.259985
H41   H     H_    0.254112 0.973494 0.645476 0.256962
O15   O     O_3   0.468519 0.667446 0.011823 -0.714934
H42   H     H_    0.465008 0.729496 0.970079 0.345217

loop_
_geom_bond_atom_site_label_1
_geom_bond_atom_site_label_2
_ccdc_geom_bond_type
C8    C9    D    
C8    O15   S    
C33   H32   S    
C19   O7    A    
O14   C34   S    
C13   C18   S    
C3    H10   S    
C12   O4    A    
C3    C7    A    
Cu1   O1    S    
C5    C6    A    
C11   C14   S    
C32   H31   S    
Cu2   N2    S    
C27   H18   S    
C8    C23   S    
C2    O14   S    
C17   N2    D    
H6    N2    S    
C12   O3    A    
Cu2   O6    S    
C26   H15   S    
C16   C17   S    
C29   H23   S    
C28   H21   S    
C23   C24   A    
C1    C15   S    
C35   H38   S    
C1    O1    A    
C21   O9    S    
C21   C22   A    
O15   H42   S    
Cu1   O5    S    
C33   H33   S    
Cu2   O4    S    
C26   H16   S    
O13   C31   S    
C2    C20   A    
C25   H13   S    
C32   H30   S    
C30   H24   S    
C27   H19   S    
Cu1   Cu2   S    
C22   H11   S    
C36   H41   S    
C25   H14   S    
C31   H28   S    
C28   H20   S    
C18   O5    A    
Cu1   N1    S    
C6    H1    S    
C14   C15   D    
C10   C19   S    
C29   C30   S    
C5    H8    S    
C12   C20   S    
C36   H40   S    
O10   C25   S    
C35   C36   S    
C31   H29   S    
Cu2   O8    S    
C1    O2    A    
O9    H12   S    
C2    C24   A    
C16   O11   S    
C14   H3    S    
C4    C10   A    
C3    C4    A    
C18   O6    A    
C33   H34   S    
C15   H4    S    
C7    C9    S    
C4    H7    S    
C28   C29   S    
C34   H35   S    
O12   H27   S    
C34   C35   S    
Cu1   O3    S    
C6    C7    A    
H5    N1    S    
C25   C26   S    
C5    C10   A    
C11   C13   D    
C32   C33   S    
C24   O13   S    
C27   H17   S    
C11   H2    S    
C30   H26   S    
C36   H39   S    
C34   H36   S    
O11   C28   S    
C31   C32   S    
C13   O10   S    
C20   C21   A    
C17   O12   S    
C30   H25   S    
C29   H22   S    
C19   O8    A    
C9    H9    S    
C22   C23   A    
C35   H37   S    
Cu1   O7    S    
Cu2   O2    S    
C16   N1    D    
C26   C27   S    
