data_mof_unit_32812.cif
_audit_creation_date              2012-12-10T19:48:42-0500
_audit_creation_method            fapswitch 2.2
_symmetry_space_group_name_H-M    P1
_symmetry_Int_Tables_number       1
_space_group_crystal_system       triclinic
_cell_length_a                    13.064354
_cell_length_b                    14.208297
_cell_length_c                    14.96876
_cell_angle_alpha                 90.911172
_cell_angle_beta                  90.062043
_cell_angle_gamma                 69.943324
_cell_volume                      2609.66874872

loop_
_atom_site_label
_atom_site_type_symbol
_atom_type_description
_atom_site_fract_x
_atom_site_fract_y
_atom_site_fract_z
_atom_type_partial_charge
C1    C     C_R   0.497739 0.501577 0.672398 0.899655
C2    C     C_R   0.823934 0.405828 0.499348 -0.114851
C3    C     C_R   0.516048 0.417461 0.906156 -0.189174
C4    C     C_R   0.704787 0.443949 0.498571 0.929724
C5    C     C_R   0.531728 0.418295 0.815392 -0.267302
C6    C     C_R   0.484688 0.506656 0.768386 -0.096473
C7    C     C_R   0.418334 0.595483 0.812248 0.137439
C8    C     C_R   0.394764 0.592158 0.903483 0.161484
C9    C     C_R   0.448591 0.503609 0.950381 0.073401
C10   C     C_R   0.483379 0.579469 0.088505 -0.246905
C11   C     C_R   0.496247 0.581474 0.180125 0.195991
C12   C     C_R   0.985653 0.452242 0.492466 0.069820
C13   C     C_R   0.483475 0.503348 0.230896 -0.109648
C14   C     C_R   0.452599 0.428070 0.189119 -0.326206
C15   C     C_R   0.433686 0.429383 0.097720 0.223874
C16   C     C_R   0.497517 0.500308 0.327289 0.905452
C17   C     C_R   0.450958 0.505331 0.047286 0.082276
C18   C     C_R   0.600570 0.861306 0.483795 -0.263095
C19   C     C_R   0.594861 0.764174 0.481206 -0.056168
C20   C     C_R   0.408033 0.827047 0.521734 0.348225
C21   C     C_R   0.411935 0.925460 0.525975 -0.276305
C22   C     C_R   0.508214 0.943917 0.505900 0.147264
C23   C     C_R   0.881724 0.461951 0.459082 0.051407
C24   C     C_R   0.430455 0.121641 0.451429 0.109927
C25   C     C_R   0.425675 0.222613 0.452306 0.158379
C26   C     C_R   0.578174 0.183550 0.548364 -0.112575
C27   C     C_R   0.583908 0.082200 0.552123 0.098917
C28   C     C_R   0.295647 0.555645 0.499063 0.882066
C29   C     C_R   0.508722 0.050088 0.503094 0.020245
C30   C     C_R   0.032603 0.668433 0.380381 0.231259
C31   C     C_R   0.179803 0.589357 0.482341 -0.078955
C32   C     C_R   0.879292 0.323593 0.553607 0.095285
C33   C     C_R   0.989158 0.302922 0.572361 -0.199292
C34   C     C_R   0.031152 0.526101 0.471005 0.047129
C35   C     C_R   0.041034 0.367941 0.544868 -0.217976
C36   C     C_3   0.439473 0.750437 0.768091 -0.788813
C37   C     C_3   0.217640 0.671437 0.972985 -0.813025
C38   C     C_3   0.433226 0.750721 0.238517 -0.730506
C39   C     C_3   0.290841 0.382874 0.026379 -0.795121
C40   C     C_3   0.206308 0.885438 0.524096 -0.861504
C41   C     C_3   0.398158 0.050068 0.311501 -0.777966
C42   C     C_3   0.625359 0.994914 0.691606 -0.781147
C43   C     C_3   0.900511 0.829470 0.346972 -0.820583
C44   C     C_R   0.982869 0.598098 0.404636 0.116930
C45   C     C_R   0.889850 0.594498 0.360717 -0.302090
C46   C     C_R   0.839365 0.527156 0.386767 0.057343
C47   C     C_R   0.124343 0.529526 0.514001 -0.276218
C48   C     C_R   0.133208 0.661188 0.417829 -0.281915
H1    H     H_    0.177475 0.707564 0.393120 0.162178
H2    H     H_    0.160543 0.480953 0.568778 0.146714
H3    H     H_    0.125452 0.348677 0.563435 0.136665
H4    H     H_    0.033004 0.239084 0.612587 0.139023
H5    H     H_    0.559644 0.350250 0.942425 0.162828
H6    H     H_    0.292340 0.724276 0.776388 0.218305
H7    H     H_    0.446766 0.774927 0.837865 0.218951
H8    H     H_    0.401026 0.818076 0.727526 0.225954
H9    H     H_    0.522517 0.710523 0.741168 0.268029
H10   H     H_    0.316183 0.746845 0.924782 0.229665
H11   H     H_    0.167093 0.741829 0.007409 0.238633
H12   H     H_    0.583284 0.350304 0.782020 0.165534
H13   H     H_    0.227859 0.608916 0.019455 0.258796
H14   H     H_    0.174459 0.660445 0.911836 0.234435
H15   H     H_    0.585926 0.675836 0.185325 0.205196
H16   H     H_    0.394998 0.785451 0.175214 0.221987
H17   H     H_    0.461547 0.805094 0.276164 0.231984
H18   H     H_    0.371406 0.733671 0.279934 0.254235
H19   H     H_    0.423414 0.286853 0.093230 0.221192
H20   H     H_    0.273564 0.316898 0.998755 0.237002
H21   H     H_    0.277178 0.438211 0.972317 0.253976
H22   H     H_    0.233702 0.415576 0.082734 0.238458
H23   H     H_    0.499916 0.636049 0.049061 0.152473
H24   H     H_    0.312860 0.770582 0.600591 0.255619
H25   H     H_    0.141284 0.851666 0.525628 0.253383
H26   H     H_    0.207014 0.916855 0.456668 0.257413
H27   H     H_    0.187227 0.945927 0.575850 0.229169
H28   H     H_    0.278339 0.144062 0.394819 0.241755
H29   H     H_    0.338021 0.022804 0.277173 0.233242
H30   H     H_    0.475239 0.985651 0.318699 0.245385
H31   H     H_    0.413186 0.108136 0.269860 0.238721
H32   H     H_    0.371080 0.338105 0.365335 0.229230
H33   H     H_    0.279809 0.334648 0.446443 0.203773
H34   H     H_    0.441346 0.368472 0.227543 0.163909
H35   H     H_    0.735213 0.030870 0.611812 0.217454
H36   H     H_    0.692226 0.937863 0.727302 0.235987
H37   H     H_    0.557214 0.965685 0.683119 0.251676
H38   H     H_    0.597297 0.064911 0.732866 0.231308
H39   H     H_    0.043356 0.759537 0.276902 0.224725
H40   H     H_    0.933271 0.870012 0.397259 0.243960
H41   H     H_    0.834392 0.808408 0.377694 0.242130
H42   H     H_    0.865511 0.880273 0.290661 0.241587
H43   H     H_    0.830261 0.267163 0.662112 0.169647
H44   H     H_    0.862749 0.188946 0.572096 0.175275
H45   H     H_    0.676350 0.872031 0.467452 0.156825
H46   H     H_    0.691757 0.591042 0.331390 0.216369
H47   H     H_    0.779012 0.498118 0.269356 0.176522
H48   H     H_    0.667524 0.702296 0.463971 0.160199
H49   H     H_    0.855774 0.643393 0.305334 0.179334
H50   H     H_    0.340437 0.988055 0.545294 0.158106
H51   H     H_    0.635639 0.207770 0.585999 0.158154
N1    N     N_R   0.500000 0.747530 0.500020 -0.110377
N2    N     N_2   0.664757 0.013900 0.605854 -0.302882
N3    N     N_2   0.986445 0.741320 0.313956 -0.318505
N4    N     N_3   0.823383 0.263334 0.592652 -0.458983
N5    N     N_3   0.750587 0.519569 0.334423 -0.458375
N6    N     N_R   0.499940 0.252470 0.500020 -0.116531
N7    N     N_2   0.373909 0.686220 0.764237 -0.309862
N8    N     N_2   0.322295 0.678059 0.949661 -0.318782
N9    N     N_2   0.525115 0.660593 0.219669 -0.302443
N10   N     N_2   0.402364 0.351929 0.057053 -0.315101
N11   N     N_2   0.310192 0.808953 0.542405 -0.275573
N12   N     N_2   0.355857 0.091920 0.398108 -0.303044
N13   N     N_3   0.340542 0.292411 0.402348 -0.474951
O1    O     O_R   0.499990 0.420530 0.630930 -0.619455
O2    O     O_R   0.499990 0.579480 0.630940 -0.598557
O3    O     O_R   0.653620 0.381060 0.499970 -0.589873
O4    O     O_R   0.653620 0.540010 0.499980 -0.624301
O5    O     O_R   0.500010 0.420520 0.369060 -0.638696
O6    O     O_R   0.500010 0.579470 0.369070 -0.586239
O7    O     O_R   0.346380 0.459990 0.500020 -0.632067
O8    O     O_R   0.346380 0.618940 0.500030 -0.603212
Zn1   Zn    Zn3+2 0.500000 0.393860 0.499990 0.933515
Zn2   Zn    Zn3+2 0.500000 0.606140 0.500010 0.951546

loop_
_geom_bond_atom_site_label_1
_geom_bond_atom_site_label_2
_ccdc_geom_bond_type
C42   N2    S    
O3    Zn1   S    
C22   C29   S    
C27   C29   A    
C11   C13   A    
C39   H20   S    
C15   N10   S    
C4    O3    A    
C37   H14   S    
C25   N6    A    
C7    C8    A    
C45   C46   A    
H47   N5    S    
C33   H4    S    
C12   C23   A    
C26   C27   A    
C43   H41   S    
O4    Zn2   S    
C36   H8    S    
C43   H40   S    
C30   C48   A    
C37   N8    S    
C41   H29   S    
C5    C6    A    
C10   C17   A    
C40   H25   S    
C2    C32   A    
H10   N8    S    
O6    Zn2   S    
O5    Zn1   S    
C24   C29   A    
C25   N13   S    
H19   N10   S    
C38   H18   S    
C8    C9    A    
H33   N13   S    
C42   H38   S    
H44   N4    S    
C26   H51   S    
C10   H23   S    
H46   N5    S    
C23   C46   A    
C31   C47   A    
C13   C14   A    
C30   C44   A    
C24   N12   S    
C1    O1    A    
C26   N6    A    
O8    Zn2   S    
C47   H2    S    
C38   H16   S    
O7    Zn1   S    
H24   N11   S    
C32   N4    S    
C43   H42   S    
H6    N7    S    
C36   N7    S    
C1    C6    S    
C42   H36   S    
C24   C25   A    
C36   H9    S    
C28   O8    A    
C41   H30   S    
C18   C19   A    
C40   N11   S    
C46   N5    S    
C27   N2    S    
C2    C4    S    
C3    C9    A    
C16   O6    A    
H39   N3    S    
C20   N1    A    
C38   H17   S    
H32   N13   S    
C39   H21   S    
C7    N7    S    
N6    Zn1   S    
C42   H37   S    
C12   C35   A    
C37   H11   S    
C30   N3    S    
C20   N11   S    
C9    C17   S    
C48   H1    S    
C31   C48   A    
C35   H3    S    
C1    O2    A    
C14   H34   S    
C12   C34   A    
C8    N8    S    
C11   N9    S    
C44   C45   A    
C15   C17   A    
C34   C44   A    
H35   N2    S    
C5    H12   S    
C18   C22   A    
C4    O4    A    
C28   C31   S    
H43   N4    S    
C3    C5    A    
C28   O7    A    
C41   H31   S    
C37   H13   S    
C19   N1    A    
C6    C7    A    
C40   H27   S    
C32   C33   A    
C43   N3    S    
C36   H7    S    
C45   H49   S    
C16   O5    A    
C21   H50   S    
C3    H5    S    
H28   N12   S    
C33   C35   A    
C39   H22   S    
C40   H26   S    
N1    Zn2   S    
C38   N9    S    
C10   C11   A    
O2    Zn2   S    
C39   N10   S    
O1    Zn1   S    
C20   C21   A    
C41   N12   S    
C13   C16   S    
C2    C23   A    
C18   H45   S    
C14   C15   A    
C34   C47   A    
H15   N9    S    
C21   C22   A    
C19   H48   S    
