data_mof_unit_7455.cif
_audit_creation_date              2012-12-10T17:48:56-0500
_audit_creation_method            fapswitch 2.2
_symmetry_space_group_name_H-M    P1
_symmetry_Int_Tables_number       1
_space_group_crystal_system       triclinic
_cell_length_a                    10.718491
_cell_length_b                    14.697729
_cell_length_c                    14.646053
_cell_angle_alpha                 64.940213
_cell_angle_beta                  103.389814
_cell_angle_gamma                 103.045394
_cell_volume                      2011.85217664

loop_
_atom_site_label
_atom_site_type_symbol
_atom_type_description
_atom_site_fract_x
_atom_site_fract_y
_atom_site_fract_z
_atom_type_partial_charge
C1    C     C_R   0.478432 0.119777 0.311832 0.806556
C2    C     C_R   0.463384 0.358921 0.073221 0.055930
C3    C     C_R   0.461717 0.321627 0.997735 0.084754
C4    C     C_R   0.259971 0.999880 0.500357 0.825962
C5    C     C_R   0.464521 0.464304 0.045268 0.071872
C6    C     C_R   0.486996 0.533502 0.945842 0.065931
C7    C     C_R   0.482261 0.494680 0.871804 -0.172601
C8    C     C_R   0.468940 0.391056 0.897042 -0.242423
C9    C     C_R   0.438854 0.502290 0.112149 -0.216629
C10   C     C_R   0.438173 0.605243 0.082568 -0.205817
C11   C     C_R   0.469547 0.674241 0.987762 0.114374
C12   C     C_3   0.877745 0.998442 0.500866 0.104949
C13   C     C_R   0.503819 0.639691 0.921233 0.068939
C14   C     C_R   0.464647 0.777463 0.957887 -0.184692
C15   C     C_R   0.486806 0.845742 0.860639 -0.164281
C16   C     C_R   0.523933 0.880361 0.687938 0.827378
C17   C     C_R   0.552385 0.713122 0.831993 0.189882
C18   C     C_R   0.713620 0.283673 0.670814 -0.307862
C19   C     C_R   0.681291 0.202654 0.640103 0.074118
C20   C     C_R   0.518770 0.285271 0.508809 0.007490
C21   C     C_R   0.547440 0.370832 0.535844 -0.023659
C22   C     C_R   0.646860 0.367685 0.619408 0.162231
C23   C     C_3   0.956320 0.984614 0.607981 -0.402953
C24   C     C_R   0.481147 0.458130 0.484198 0.082341
C25   C     C_R   0.516054 0.540617 0.517641 0.073885
C26   C     C_R   0.614483 0.532292 0.602495 -0.243735
C27   C     C_R   0.678472 0.447783 0.651809 -0.192025
C28   C     C_R   0.739986 0.999406 0.500306 0.762070
C29   C     C_R   0.381262 0.465782 0.400374 -0.237833
C30   C     C_R   0.316777 0.550040 0.351442 -0.209337
C31   C     C_R   0.349771 0.630803 0.382862 0.166863
C32   C     C_R   0.450525 0.628279 0.465432 -0.020664
C33   C     C_R   0.282935 0.714782 0.331566 -0.322742
C34   C     C_3   0.933995 0.099959 0.420721 -0.377122
C35   C     C_R   0.316704 0.796467 0.361294 0.072332
C36   C     C_R   0.481374 0.714853 0.490870 0.014595
C37   C     C_3   0.035210 0.910595 0.473999 -0.339000
C38   C     C_3   0.892510 0.909868 0.474742 -0.372597
C39   C     C_3   0.101371 0.986235 0.608455 0.226141
C40   C     C_3   0.078000 0.100048 0.421046 -0.480332
C41   C     C_3   0.121897 0.998642 0.501629 0.084074
C42   C     C_3   0.761067 0.662961 0.851388 -0.685975
C43   C     C_3   0.473885 0.077759 0.974236 -0.697879
C44   C     C_R   0.467085 0.187152 0.203073 -0.111396
C45   C     C_R   0.526466 0.813452 0.795912 -0.105520
C46   C     C_R   0.454953 0.215967 0.024590 0.266251
C47   C     C_R   0.456955 0.149699 0.127900 -0.229591
C48   C     C_R   0.469453 0.290528 0.175318 -0.262841
Cl1   Cl    Cl    0.158583 0.874528 0.708989 -0.683085
Cu1   Cu    Cu3+1 0.465900 0.918260 0.475680 0.937989
Cu2   Cu    Cu3+1 0.534100 0.081740 0.524320 0.934612
H1    H     H_    0.064378 0.835970 0.528869 0.218578
H2    H     H_    0.047022 0.919806 0.396829 0.156126
H3    H     H_    0.482728 0.543405 0.792181 0.186720
H4    H     H_    0.410411 0.453533 0.185558 0.137745
H5    H     H_    0.436054 0.804330 0.007375 0.141145
H6    H     H_    0.753557 0.445020 0.716488 0.149113
H7    H     H_    0.559166 0.721053 0.550142 0.115950
H8    H     H_    0.265780 0.861605 0.321348 0.120147
H9    H     H_    0.240389 0.552172 0.287696 0.141279
H10   H     H_    0.789851 0.280370 0.734880 0.140358
H11   H     H_    0.731808 0.137319 0.680418 0.122783
H12   H     H_    0.925056 0.164944 0.437812 0.181377
H13   H     H_    0.442975 0.279961 0.447922 0.117586
H14   H     H_    0.835995 0.917011 0.398523 0.173556
H15   H     H_    0.644254 0.589834 0.633488 0.144938
H16   H     H_    0.349936 0.407530 0.370404 0.123756
H17   H     H_    0.205409 0.717470 0.268452 0.138801
H18   H     H_    0.854059 0.835805 0.531908 0.176781
H19   H     H_    0.915864 0.912090 0.665889 0.191397
H20   H     H_    0.137672 0.165226 0.437986 0.172487
H21   H     H_    0.092076 0.110976 0.343898 0.171763
H22   H     H_    0.878399 0.110978 0.343406 0.164851
H23   H     H_    0.158436 0.052035 0.625556 0.121367
H24   H     H_    0.654747 0.739776 0.714420 0.250195
H25   H     H_    0.819225 0.642146 0.811332 0.235762
H26   H     H_    0.744915 0.596896 0.923650 0.243832
H27   H     H_    0.816924 0.728718 0.868864 0.233961
H28   H     H_    0.369273 0.199531 0.888199 0.247403
H29   H     H_    0.480454 0.068587 0.904114 0.231577
H30   H     H_    0.395300 0.019518 0.011696 0.219722
H31   H     H_    0.568502 0.066501 0.025262 0.233146
H32   H     H_    0.946667 0.046715 0.629251 0.145116
H33   H     H_    0.467317 0.366368 0.836807 0.168532
H34   H     H_    0.469801 0.923301 0.835102 0.172116
H35   H     H_    0.412656 0.630958 0.134265 0.148594
H36   H     H_    0.452467 0.068926 0.150738 0.164444
H37   H     H_    0.481817 0.317047 0.235537 0.157307
N1    N     N_R   0.585360 0.204570 0.560800 -0.176422
N2    N     N_R   0.414550 0.795430 0.439160 -0.175646
N3    N     N_2   0.639307 0.689492 0.786677 -0.466631
N4    N     N_2   0.445355 0.178616 0.946925 -0.434638
O1    O     O_R   0.455060 0.022100 0.338110 -0.592274
O2    O     O_R   0.512640 0.160150 0.379180 -0.587377
O3    O     O_R   0.288900 0.930980 0.479450 -0.578911
O4    O     O_R   0.346480 0.069030 0.520520 -0.591399
O5    O     O_R   0.487360 0.839850 0.620820 -0.575370
O6    O     O_R   0.544940 0.977900 0.661890 -0.584311
O7    O     O_R   0.653520 0.930970 0.479480 -0.597911
O8    O     O_R   0.711100 0.069020 0.520550 -0.588351

loop_
_geom_bond_atom_site_label_1
_geom_bond_atom_site_label_2
_ccdc_geom_bond_type
C14   H5    S    
C40   H20   S    
C17   N3    S    
C7    C8    A    
C39   C41   S    
C12   C23   S    
Cu1   O7    S    
C37   C38   S    
C23   H32   S    
C12   C28   S    
C34   C40   S    
C32   C36   A    
C17   C45   A    
C18   C19   A    
C36   H7    S    
C30   C31   A    
C11   C14   A    
Cu1   O3    S    
C46   N4    S    
C4    C41   S    
C19   H11   S    
C35   H8    S    
C42   N3    S    
C39   H23   S    
C24   C29   A    
C29   H16   S    
Cu1   N2    S    
C1    O2    A    
C30   H9    S    
C31   C33   A    
C9    H4    S    
C9    C10   A    
C44   C47   A    
H24   N3    S    
Cu2   O4    S    
C15   H34   S    
C37   H2    S    
C28   O8    A    
Cu2   O6    S    
C38   H18   S    
C4    O4    A    
C21   C22   A    
C37   C41   S    
C23   H19   S    
C26   H15   S    
C24   C25   A    
C3    C8    A    
C27   H6    S    
C37   H1    S    
Cu2   O2    S    
C2    C48   A    
C25   C26   A    
C47   H36   S    
C20   H13   S    
C5    C9    A    
C29   C30   A    
C19   N1    A    
C4    O3    A    
C1    C44   S    
C31   C32   A    
C38   H14   S    
C48   H37   S    
Cu1   Cu2   S    
C26   C27   A    
Cu1   O1    S    
H28   N4    S    
C28   O7    A    
C40   C41   S    
C39   Cl1   S    
C42   H27   S    
C22   C27   A    
C43   H30   S    
C2    C5    A    
C15   C45   A    
C12   C34   S    
C36   N2    A    
Cu2   O8    S    
C46   C47   A    
C10   H35   S    
Cu1   O5    S    
C40   H21   S    
C8    H33   S    
C16   C45   S    
C18   H10   S    
C6    C7    A    
C20   N1    A    
C3    C46   A    
C42   H25   S    
C43   N4    S    
C13   C17   A    
C18   C22   A    
C2    C3    A    
C43   H29   S    
Cu2   N1    S    
C6    C13   A    
C11   C13   A    
C16   O6    A    
C5    C6    A    
C25   C32   A    
C23   C39   S    
C34   H12   S    
C33   C35   A    
C12   C38   S    
C16   O5    A    
C10   C11   A    
C34   H22   S    
C35   N2    A    
C20   C21   A    
C42   H26   S    
C1    O1    A    
C21   C24   A    
C43   H31   S    
C14   C15   A    
C7    H3    S    
C44   C48   A    
C33   H17   S    
