data_mof_unit_15379.cif
_audit_creation_date              2012-12-10T17:50:46-0500
_audit_creation_method            fapswitch 2.2
_symmetry_space_group_name_H-M    P1
_symmetry_Int_Tables_number       1
_space_group_crystal_system       triclinic
_cell_length_a                    14.709895
_cell_length_b                    14.811654
_cell_length_c                    15.899907
_cell_angle_alpha                 76.740052
_cell_angle_beta                  103.024945
_cell_angle_gamma                 114.963437
_cell_volume                      3024.24615734

loop_
_atom_site_label
_atom_site_type_symbol
_atom_type_description
_atom_site_fract_x
_atom_site_fract_y
_atom_site_fract_z
_atom_type_partial_charge
C1    C     C_R   0.879822 0.312459 0.513941 0.820181
C2    C     C_R   0.361282 0.920240 0.511226 0.089732
C3    C     C_R   0.679504 0.004315 0.569643 0.140134
C4    C     C_R   0.320919 0.991602 0.511823 0.117145
C5    C     C_R   0.532553 0.050314 0.529324 0.043601
C6    C     C_R   0.467666 0.947331 0.532344 0.089858
C7    C     C_R   0.510555 0.874714 0.565004 -0.169808
C8    C     C_R   0.490379 0.119941 0.529504 -0.231239
C9    C     C_R   0.614868 0.903205 0.585852 -0.228302
C10   C     C_R   0.386147 0.090379 0.522847 -0.212196
C11   C     C_R   0.711210 0.662774 0.351424 -0.361138
C12   C     C_R   0.120186 0.687561 0.485353 0.793103
C13   C     C_R   0.289133 0.337627 0.648965 -0.368837
C14   C     C_R   0.794730 0.635940 0.375576 0.385691
C15   C     C_R   0.206401 0.365732 0.625794 0.388119
C16   C     C_R   0.999734 0.499897 0.659923 0.824129
C17   C     C_R   0.000300 0.500156 0.340070 0.826398
C18   C     C_R   0.715370 0.510074 0.488704 -0.044001
C19   C     C_R   0.282729 0.486745 0.508908 -0.053543
C20   C     C_R   0.627698 0.533469 0.466599 -0.024535
C21   C     C_R   0.370269 0.463131 0.530824 -0.020141
C22   C     C_R   0.627974 0.612224 0.396593 0.138363
C23   C     C_R   0.784525 0.031767 0.587125 -0.201513
C24   C     C_R   0.370790 0.385649 0.601836 0.141367
C25   C     C_R   0.540864 0.482710 0.511303 0.087811
C26   C     C_R   0.456517 0.512965 0.485365 0.081997
C27   C     C_R   0.461790 0.592695 0.415623 -0.229074
C28   C     C_R   0.535555 0.402958 0.581043 -0.242401
C29   C     C_R   0.545612 0.640744 0.372121 -0.176725
C30   C     C_R   0.452451 0.356043 0.625468 -0.194517
C31   C     C_3   0.975406 0.407344 0.042765 0.139089
C32   C     C_3   0.024803 0.592997 0.957191 0.138825
C33   C     C_3   0.904931 0.440327 0.965506 -0.229758
C34   C     C_R   0.215919 0.963039 0.502290 -0.203773
C35   C     C_3   0.095278 0.560013 0.034454 -0.231044
C36   C     C_1   0.999125 0.499643 0.749296 -0.172680
C37   C     C_1   0.000984 0.500526 0.250685 -0.171036
C38   C     C_3   0.066366 0.464652 0.993121 0.139539
C39   C     C_3   0.933842 0.535689 0.006837 0.140219
C40   C     C_3   0.998245 0.499115 0.915999 0.087052
C41   C     C_3   0.001962 0.501222 0.083962 0.086838
C42   C     C_1   0.998642 0.499390 0.824594 -0.005815
C43   C     C_1   0.001525 0.500876 0.175377 -0.004507
C44   C     C_R   0.810782 0.205492 0.528130 -0.046503
C45   C     C_R   0.849544 0.132131 0.569535 -0.244620
C46   C     C_R   0.188800 0.794268 0.485959 -0.091084
C47   C     C_R   0.150633 0.864222 0.492625 -0.223623
C48   C     C_R   0.704939 0.177316 0.504592 0.086893
C49   C     C_R   0.294357 0.825408 0.487607 0.094526
C50   C     C_R   0.638609 0.078690 0.535206 0.041485
Cu1   Cu    Cu3+1 0.081740 0.475690 0.522610 0.959398
Cu2   Cu    Cu3+1 0.918260 0.524310 0.477390 0.970285
H1    H     H_    0.827605 0.391719 0.938029 0.154431
H2    H     H_    0.356535 0.145306 0.525406 0.152477
H3    H     H_    0.070104 0.842552 0.490470 0.166265
H4    H     H_    0.930375 0.151943 0.586870 0.165369
H5    H     H_    0.816391 0.975727 0.615757 0.139904
H6    H     H_    0.184424 0.016445 0.504860 0.141917
H7    H     H_    0.464269 0.795962 0.581457 0.160267
H8    H     H_    0.537449 0.195660 0.541872 0.147572
H9    H     H_    0.546135 0.701517 0.318809 0.145073
H10   H     H_    0.452181 0.295694 0.679143 0.143678
H11   H     H_    0.095698 0.239032 0.673036 0.177634
H12   H     H_    0.172604 0.608622 0.061930 0.154131
H13   H     H_    0.150516 0.327913 0.739258 0.198805
H14   H     H_    0.907351 0.764465 0.333638 0.187099
H15   H     H_    0.854366 0.679651 0.263393 0.197406
H16   H     H_    0.939212 0.258313 0.046752 0.210724
H17   H     H_    0.012695 0.304998 0.136721 0.213468
H18   H     H_    0.061025 0.742037 0.953190 0.210404
H19   H     H_    0.987510 0.695343 0.863234 0.211559
H20   H     H_    0.829871 0.596713 0.952109 0.211851
H21   H     H_    0.903439 0.642051 0.042575 0.209886
H22   H     H_    0.170489 0.403815 0.047830 0.213233
H23   H     H_    0.274064 0.541696 0.453904 0.129785
H24   H     H_    0.096752 0.358197 0.957521 0.210064
H25   H     H_    0.288075 0.749599 0.392877 0.215665
H26   H     H_    0.331350 0.704756 0.495642 0.232495
H27   H     H_    0.604803 0.199088 0.396097 0.232782
H28   H     H_    0.651110 0.289814 0.462440 0.222792
H29   H     H_    0.722440 0.452394 0.541687 0.129516
H30   H     H_    0.711751 0.723068 0.297611 0.140813
H31   H     H_    0.289279 0.278428 0.703669 0.140150
H32   H     H_    0.402362 0.620564 0.393025 0.138565
H33   H     H_    0.594780 0.374792 0.603432 0.127553
H34   H     H_    0.645046 0.845641 0.613143 0.145765
N1    N     N_R   0.795440 0.560790 0.443380 -0.169729
N2    N     N_3   0.668365 0.241661 0.436012 -0.570489
N3    N     N_R   0.204560 0.439210 0.556620 -0.170437
N4    N     N_3   0.123104 0.316385 0.674306 -0.529082
N5    N     N_3   0.879755 0.687812 0.329223 -0.527794
N6    N     N_3   0.949601 0.305577 0.090856 -0.575458
N7    N     N_3   0.050610 0.694760 0.909089 -0.578519
N8    N     N_3   0.862030 0.575941 0.015189 -0.575171
N9    N     N_3   0.138179 0.424407 0.984758 -0.576637
N10   N     N_3   0.332806 0.769638 0.452169 -0.608063
O1    O     O_R   0.977900 0.338120 0.529810 -0.568651
O2    O     O_R   0.022100 0.661880 0.470190 -0.560685
O3    O     O_R   0.839850 0.379180 0.491620 -0.572702
O4    O     O_R   0.160150 0.620820 0.508380 -0.596953
O5    O     O_R   0.069010 0.479460 0.640020 -0.545926
O6    O     O_R   0.930990 0.520540 0.359980 -0.542266
O7    O     O_R   0.930960 0.520530 0.601820 -0.590093
O8    O     O_R   0.069040 0.479470 0.398180 -0.589805

loop_
_geom_bond_atom_site_label_1
_geom_bond_atom_site_label_2
_ccdc_geom_bond_type
Cu1   O1    S    
C21   C26   A    
Cu2   O7    S    
C23   C45   A    
C22   C29   A    
C27   C29   A    
C36   C42   T    
C1    O3    A    
Cu2   O3    S    
C19   H23   S    
C39   C41   S    
C25   C28   A    
C46   C49   A    
Cu2   O6    S    
C26   C27   A    
C33   C39   S    
C19   N3    A    
C27   H32   S    
C19   C21   A    
C17   O8    A    
C14   N1    A    
H24   N9    S    
C5    C6    A    
C11   C14   A    
C20   C25   A    
C18   H29   S    
C7    C9    A    
C32   C39   S    
Cu2   O2    S    
C1    C44   S    
C3    C23   A    
C45   H4    S    
H26   N10   S    
C38   N9    S    
C8    H8    S    
C48   N2    S    
C35   H12   S    
H17   N6    S    
C12   O2    A    
H20   N8    S    
C40   C42   S    
C32   N7    S    
C41   C43   S    
C2    C6    A    
H21   N8    S    
C35   C41   S    
C7    H7    S    
H27   N2    S    
C3    C50   A    
C4    C34   A    
C11   H30   S    
C33   H1    S    
H13   N4    S    
C29   H9    S    
C33   C40   S    
C31   C33   S    
Cu1   Cu2   S    
C32   C35   S    
H18   N7    S    
C12   C46   S    
C1    O1    A    
C25   C26   A    
C13   C24   A    
H25   N10   S    
C37   C43   T    
C2    C4    A    
C17   O6    A    
C39   N8    S    
C3    C9    A    
C2    C49   A    
C9    H34   S    
C15   N3    A    
C16   O7    A    
C35   C38   S    
H15   N5    S    
C17   C37   S    
C6    C7    A    
C20   C22   A    
C30   H10   S    
C5    C50   A    
C4    C10   A    
C44   C45   A    
C47   H3    S    
Cu1   O4    S    
C23   H5    S    
C46   C47   A    
C31   C41   S    
H22   N9    S    
Cu2   N1    S    
C5    C8    A    
H14   N5    S    
H19   N7    S    
Cu1   O5    S    
C13   H31   S    
C11   C22   A    
C18   N1    A    
C31   C38   S    
C13   C15   A    
Cu1   O8    S    
C28   C30   A    
H28   N2    S    
C16   C36   S    
C15   N4    S    
C38   C40   S    
H11   N4    S    
C48   C50   A    
H16   N6    S    
C18   C20   A    
C32   C40   S    
C49   N10   S    
C10   H2    S    
C24   C30   A    
C14   N5    S    
C12   O4    A    
C16   O5    A    
C8    C10   A    
C31   N6    S    
C21   C24   A    
C28   H33   S    
C34   H6    S    
C34   C47   A    
Cu1   N3    S    
C44   C48   A    
