data_mof_unit_50705.cif
_audit_creation_date              2012-12-10T20:35:53-0500
_audit_creation_method            fapswitch 2.2
_symmetry_space_group_name_H-M    P1
_symmetry_Int_Tables_number       1
_space_group_crystal_system       triclinic
_cell_length_a                    15.735597
_cell_length_b                    10.662
_cell_length_c                    9.867348
_cell_angle_alpha                 89.96203
_cell_angle_beta                  89.893337
_cell_angle_gamma                 90.05587
_cell_volume                      1655.46991554

loop_
_atom_site_label
_atom_site_type_symbol
_atom_type_description
_atom_site_fract_x
_atom_site_fract_y
_atom_site_fract_z
_atom_type_partial_charge
C1    C     C_R   0.498992 0.260186 0.500239 0.886632
C2    C     C_R   0.489489 0.128737 0.502803 -0.095851
C3    C     C_R   0.442737 0.067707 0.401864 -0.185251
C4    C     C_R   0.338269 0.499980 0.500164 0.879806
C5    C     C_R   0.437680 0.936997 0.401913 -0.037018
C6    C     C_R   0.483867 0.871377 0.502669 -0.153596
C7    C     C_R   0.518069 0.935734 0.612516 0.054494
C8    C     C_3   0.602450 0.926147 0.682146 0.240751
C9    C     C_3   0.603564 0.068728 0.683473 -0.464646
C10   C     C_R   0.439823 0.434075 0.071401 0.209663
C11   C     C_R   0.554214 0.574331 0.071760 -0.107354
C12   C     C_3   0.951051 0.403004 0.608929 0.250763
C13   C     C_R   0.554225 0.574342 0.927761 -0.115428
C14   C     C_R   0.439779 0.434181 0.928917 0.215768
C15   C     C_3   0.425073 0.296179 0.923115 -0.481777
C16   C     C_R   0.495220 0.739564 0.499996 0.911353
C17   C     C_3   0.425309 0.295965 0.076978 -0.483907
C18   C     C_R   0.661710 0.500160 0.499848 0.954330
C19   C     C_3   0.049451 0.402856 0.607286 -0.414360
C20   C     C_3   0.049415 0.459690 0.359251 -0.387247
C21   C     C_3   0.951357 0.460461 0.358553 -0.362740
C22   C     C_1   0.750591 0.499487 0.499720 -0.106180
C23   C     C_3   0.917396 0.496917 0.500715 0.226744
C24   C     C_3   0.082587 0.497981 0.500930 0.278807
C25   C     C_2   0.384551 0.872785 0.298588 0.412689
C26   C     C_3   0.950701 0.629758 0.535938 -0.440573
C27   C     C_3   0.048769 0.630269 0.536311 -0.405542
C28   C     C_1   0.825903 0.498474 0.500018 -0.026799
C29   C     C_1   0.174023 0.498836 0.500694 -0.089663
C30   C     C_1   0.249356 0.499467 0.500443 -0.173575
C31   C     C_R   0.519308 0.062988 0.614026 0.028405
Cl1   Cl    Cl    0.910677 0.246940 0.584427 -0.614897
Cl2   Cl    Cl    0.684526 0.861088 0.577938 -0.606562
H1    H     H_    0.073491 0.428223 0.709742 0.149821
H2    H     H_    0.599179 0.632415 0.873253 0.160353
H3    H     H_    0.362076 0.272719 0.879071 0.208183
H4    H     H_    0.479583 0.244435 0.878412 0.219890
H5    H     H_    0.362459 0.272160 0.121751 0.209926
H6    H     H_    0.480098 0.244210 0.120738 0.227236
H7    H     H_    0.073651 0.525861 0.280825 0.176757
H8    H     H_    0.072769 0.364326 0.332428 0.189833
H9    H     H_    0.927258 0.366495 0.328183 0.221432
H10   H     H_    0.928443 0.528756 0.281452 0.172139
H11   H     H_    0.072126 0.659477 0.637958 0.183820
H12   H     H_    0.928994 0.433543 0.710981 0.114345
H13   H     H_    0.072502 0.700124 0.461300 0.193547
H14   H     H_    0.926737 0.659212 0.637274 0.193137
H15   H     H_    0.366162 0.775485 0.311311 0.079872
H16   H     H_    0.927172 0.699330 0.460646 0.218054
H17   H     H_    0.411412 0.121639 0.323430 0.185668
H18   H     H_    0.597547 0.883582 0.784740 0.114373
H19   H     H_    0.598466 0.108579 0.787194 0.174527
H20   H     H_    0.653713 0.112068 0.619011 0.247453
H21   H     H_    0.599157 0.632404 0.125915 0.162537
H22   H     H_    0.074396 0.307687 0.583574 0.216152
N1    N     N_R   0.499430 0.499140 0.142800 -0.112590
N2    N     N_R   0.499430 0.499180 0.857150 -0.111601
O1    O     O_R   0.500010 0.316790 0.614690 -0.619668
O2    O     O_R   0.500000 0.316760 0.385350 -0.625335
O3    O     O_R   0.377150 0.500020 0.614720 -0.613706
O4    O     O_R   0.377140 0.499990 0.385380 -0.625942
O5    O     O_R   0.500000 0.683240 0.614650 -0.612642
O6    O     O_R   0.499990 0.683210 0.385310 -0.628174
O7    O     O_R   0.622860 0.500010 0.614620 -0.604482
O8    O     O_R   0.622850 0.499980 0.385280 -0.611576
O9    O     O_2   0.359131 0.928850 0.198603 -0.576100
Zn1   Zn    Zn3+2 0.500010 0.500020 0.653130 0.965949
Zn2   Zn    Zn3+2 0.499990 0.499980 0.346870 0.959569

loop_
_geom_bond_atom_site_label_1
_geom_bond_atom_site_label_2
_ccdc_geom_bond_type
C6    C7    A    
C12   H12   S    
C16   O6    A    
O2    Zn2   S    
C10   N1    A    
O1    Zn1   S    
O4    Zn2   S    
C24   C27   S    
C8    Cl2   S    
O8    Zn2   S    
N1    Zn2   S    
C4    O3    A    
C21   C23   S    
C2    C3    A    
C7    C8    S    
C11   N1    A    
C21   H10   S    
C23   C28   S    
C12   Cl1   S    
C18   O8    A    
C11   C13   A    
C12   C23   S    
C18   O7    A    
C26   C27   S    
C29   C30   T    
C11   H21   S    
C16   O5    A    
O5    Zn1   S    
N2    Zn1   S    
C5    C25   S    
C27   H11   S    
C26   H14   S    
C12   C19   S    
C3    H17   S    
C19   C24   S    
C13   H2    S    
C9    H19   S    
C17   H5    S    
C1    O2    A    
C17   H6    S    
C5    C6    A    
C20   H7    S    
C4    C30   S    
C23   C26   S    
C9    H20   S    
C9    C31   S    
C10   C17   S    
C6    C16   S    
C21   H9    S    
O7    Zn1   S    
C1    O1    A    
C15   H3    S    
C13   N2    A    
C7    C31   A    
C20   C21   S    
C27   H13   S    
C1    C2    S    
C10   C14   A    
C26   H16   S    
C19   H22   S    
C15   C17   S    
C14   N2    A    
C24   C29   S    
C2    C31   A    
C22   C28   T    
C14   C15   S    
C8    H18   S    
O6    Zn2   S    
C18   C22   S    
C25   H15   S    
C4    O4    A    
C15   H4    S    
C25   O9    D    
C20   C24   S    
O3    Zn1   S    
C20   H8    S    
C8    C9    S    
C3    C5    A    
C19   H1    S    
