data_mof_unit_53970.cif
_audit_creation_date              2012-12-10T18:55:12-0500
_audit_creation_method            fapswitch 2.2
_symmetry_space_group_name_H-M    P1
_symmetry_Int_Tables_number       1
_space_group_crystal_system       triclinic
_cell_length_a                    10.718457
_cell_length_b                    9.933134
_cell_length_c                    27.228383
_cell_angle_alpha                 89.861032
_cell_angle_beta                  91.482992
_cell_angle_gamma                 89.987699
_cell_volume                      2897.96829798

loop_
_atom_site_label
_atom_site_type_symbol
_atom_type_description
_atom_site_fract_x
_atom_site_fract_y
_atom_site_fract_z
_atom_type_partial_charge
C1    C     C_R   0.260163 0.500026 0.500170 0.914577
C2    C     C_R   0.739845 0.500010 0.499796 0.896609
C3    C     C_R   0.427019 0.508049 0.097442 -0.040052
C4    C     C_R   0.331870 0.545839 0.892968 -0.042742
C5    C     C_R   0.390513 0.391711 0.123764 -0.096062
C6    C     C_R   0.376278 0.658871 0.867007 -0.098120
C7    C     C_R   0.339742 0.280463 0.097631 -0.024561
C8    C     C_R   0.406694 0.777848 0.893139 -0.031623
C9    C     C_R   0.492359 0.613256 0.122122 -0.104797
C10   C     C_R   0.281264 0.434442 0.867016 -0.097370
C11   C     C_R   0.487175 0.499798 0.353088 -0.225452
C12   C     C_R   0.467177 0.501710 0.645450 -0.256080
C13   C     C_R   0.304701 0.426122 0.970645 0.044677
C14   C     C_R   0.432681 0.637071 0.020649 0.044666
C15   C     C_R   0.400108 0.650652 0.970165 0.040136
C16   C     C_R   0.334312 0.413573 0.021612 0.043291
C17   C     C_R   0.343961 0.541569 0.944815 0.095294
C18   C     C_R   0.397801 0.519576 0.046477 0.092777
C19   C     C_R   0.234196 0.328315 0.944638 -0.222724
C20   C     C_R   0.509271 0.732529 0.044863 -0.226949
C21   C     C_R   0.220340 0.331885 0.893512 -0.032109
C22   C     C_R   0.542533 0.720330 0.094421 -0.045649
C23   C     C_R   0.499319 0.500011 0.406055 0.989363
C24   C     C_R   0.498226 0.500055 0.594008 0.988028
C25   C     C_R   0.311312 0.293585 0.047585 -0.226376
C26   C     C_R   0.419532 0.771609 0.944234 -0.231560
C27   C     C_R   0.063901 0.377419 0.500495 -0.142634
C28   C     C_R   0.936108 0.622849 0.499496 -0.121415
C29   C     C_R   0.936202 0.377408 0.499629 -0.143731
C30   C     C_R   0.063863 0.622861 0.500029 -0.112512
C31   C     C_R   0.872454 0.500089 0.499522 -0.031166
C32   C     C_R   0.127574 0.500111 0.500352 -0.023990
C33   C     C_R   0.559298 0.071387 0.537024 -0.068177
C34   C     C_R   0.440437 0.928550 0.463036 -0.068536
C35   C     C_R   0.440855 0.072145 0.462931 -0.042896
C36   C     C_R   0.559799 0.927806 0.536891 -0.044122
C37   C     C_R   0.402816 0.393588 0.175411 0.622841
C38   C     C_R   0.396916 0.644147 0.816558 0.628174
C39   C     C_R   0.500964 0.609229 0.173751 0.670571
C40   C     C_R   0.301963 0.426585 0.816205 0.668887
C41   C     C_R   0.577579 0.465010 0.274262 0.757597
C42   C     C_R   0.317879 0.560303 0.706418 0.758585
C43   C     C_R   0.588861 0.463654 0.325128 -0.331071
C44   C     C_R   0.352438 0.556832 0.657849 -0.349337
C45   C     C_R   0.372561 0.534009 0.330629 0.544060
C46   C     C_R   0.548616 0.449622 0.681653 0.618009
C47   C     C_R   0.359656 0.536765 0.279189 -0.215200
C48   C     C_R   0.516195 0.454526 0.731415 -0.226563
C49   C     C_R   0.464277 0.501984 0.251140 0.023465
C50   C     C_R   0.398596 0.510511 0.743277 0.012583
H1    H     H_    0.289292 0.596742 0.629666 0.199347
H2    H     H_    0.676912 0.435604 0.342747 0.201935
H3    H     H_    0.184812 0.250023 0.963570 0.178556
H4    H     H_    0.552327 0.813292 0.024822 0.179917
H5    H     H_    0.277400 0.204481 0.029065 0.168794
H6    H     H_    0.440816 0.864217 0.963393 0.176920
H7    H     H_    0.112089 0.281618 0.501268 0.211616
H8    H     H_    0.887823 0.718639 0.499034 0.203812
H9    H     H_    0.888077 0.281604 0.499074 0.212247
H10   H     H_    0.112100 0.718654 0.500220 0.200408
N1    N     N_R   0.456435 0.501109 0.198676 -0.309817
N2    N     N_R   0.363720 0.527812 0.793165 -0.311796
N3    N     N_R   0.500000 0.857200 0.500000 -0.160361
N4    N     N_R   0.500000 0.142800 0.500000 -0.160232
O1    O     O_R   0.316770 0.614620 0.500000 -0.604623
O2    O     O_R   0.683230 0.385380 0.500000 -0.607387
O3    O     O_R   0.683230 0.614620 0.500000 -0.607197
O4    O     O_R   0.316770 0.385380 0.500000 -0.609355
O5    O     O_R   0.500030 0.614650 0.428760 -0.599516
O6    O     O_R   0.499970 0.385350 0.571240 -0.598489
O7    O     O_R   0.499970 0.614650 0.571240 -0.620517
O8    O     O_R   0.500030 0.385350 0.428760 -0.610699
O9    O     O_2   0.356308 0.292885 0.202735 -0.501827
O10   O     O_2   0.457413 0.740417 0.791510 -0.503911
O11   O     O_2   0.270017 0.315406 0.790506 -0.504104
O12   O     O_2   0.546184 0.715274 0.199433 -0.495136
Zn1   Zn    Zn3+2 0.500000 0.653120 0.500000 1.029701
Zn2   Zn    Zn3+2 0.500000 0.346880 0.500000 1.025803
F1    F     F_    0.274540 0.565591 0.359171 -0.617745
F2    F     F_    0.659516 0.396989 0.668138 -0.603364
C51   C     C_2   0.625099 0.142675 0.577338 1.011176
O13   O     O_2   0.579064 0.146783 0.617923 -0.529488
O14   O     O_R   0.742761 0.197901 0.569868 -0.796746
H11   H     H_    0.779558 0.241960 0.600493 0.387964
C52   C     C_2   0.374450 0.857402 0.422708 0.999868
O15   O     O_2   0.274858 0.802144 0.429936 -0.571553
O16   O     O_R   0.422957 0.860875 0.375563 -0.743921
H12   H     H_    0.365955 0.816386 0.350175 0.371282
C53   C     C_2   0.375063 0.144526 0.422653 0.984035
O17   O     O_2   0.421985 0.151429 0.382263 -0.557589
O18   O     O_R   0.256974 0.198776 0.430011 -0.797910
H13   H     H_    0.221289 0.245440 0.399611 0.367694
C54   C     C_2   0.626860 0.855323 0.576794 0.978167
O19   O     O_2   0.728576 0.804898 0.569480 -0.613085
O20   O     O_R   0.575899 0.849988 0.623501 -0.739727
H14   H     H_    0.630609 0.798430 0.647970 0.365432
C55   C     C_2   0.238078 0.576326 0.255503 1.051592
O21   O     O_2   0.141014 0.561685 0.277554 -0.499827
O22   O     O_R   0.233791 0.631594 0.208213 -0.810530
H15   H     H_    0.145748 0.653925 0.196357 0.371911
C56   C     C_2   0.606450 0.404378 0.769989 1.049282
O23   O     O_2   0.571693 0.377455 0.811267 -0.624704
O24   O     O_R   0.732336 0.387468 0.759137 -0.672368
H16   H     H_    0.784066 0.352943 0.788228 0.375348
C57   C     C_2   0.323431 0.144875 0.119677 1.023502
O25   O     O_2   0.227151 0.081789 0.111527 -0.595332
O26   O     O_R   0.420480 0.086608 0.147695 -0.703023
H17   H     H_    0.399018 0.993063 0.159847 0.374524
C58   C     C_2   0.418517 0.911641 0.869123 1.036518
O27   O     O_2   0.495976 0.992593 0.884582 -0.593875
O28   O     O_R   0.337295 0.947438 0.830222 -0.708474
H18   H     H_    0.353455 0.041669 0.817483 0.384987
F3    F     F_    0.206593 0.615327 0.718056 -0.597052
F4    F     F_    0.676924 0.430173 0.247119 -0.597097
C59   C     C_2   0.136314 0.230381 0.870206 1.001599
O29   O     O_2   0.062979 0.263564 0.837202 -0.544249
O30   O     O_R   0.136395 0.098119 0.887925 -0.792082
H19   H     H_    0.074172 0.038629 0.869580 0.375331
C60   C     C_2   0.638645 0.815376 0.113861 1.012128
O31   O     O_2   0.726007 0.773922 0.139441 -0.530968
O32   O     O_R   0.633413 0.951117 0.100234 -0.774177
H20   H     H_    0.704932 0.005486 0.115077 0.377848

loop_
_geom_bond_atom_site_label_1
_geom_bond_atom_site_label_2
_ccdc_geom_bond_type
C46   F2    S    
O16   H12   S    
C54   O19   D    
C5    C37   A    
O6    Zn2   S    
C8    C26   A    
C14   C18   A    
O5    Zn1   S    
O20   H14   S    
O3    Zn1   S    
C41   F4    S    
C21   C59   S    
C1    O4    A    
C51   O13   D    
C24   O6    A    
C47   C49   A    
C52   O15   D    
C57   O26   S    
C56   O23   D    
O14   H11   S    
C19   C21   A    
C58   O28   S    
C38   O10   S    
C43   H2    S    
C27   C29   A    
C59   O29   D    
C9    C39   A    
C33   C36   A    
C40   N2    A    
C3    C18   A    
C10   C40   A    
C34   C35   A    
C23   O5    A    
O8    Zn2   S    
C55   O22   S    
C36   C54   S    
C29   H9    S    
C59   O30   S    
C30   H10   S    
C1    O1    A    
O26   H17   S    
C6    C38   A    
C11   C43   A    
C35   N4    A    
C53   O18   S    
C36   N3    A    
C19   H3    S    
C48   C50   A    
C56   O24   S    
C41   C43   A    
C42   C44   A    
C39   N1    A    
C41   C49   A    
C51   O14   S    
C55   O21   D    
C45   C47   A    
C10   C21   A    
O4    Zn2   S    
C22   C60   S    
O2    Zn2   S    
C46   C48   A    
C49   N1    S    
C13   C19   A    
C52   O16   S    
C14   C20   A    
O1    Zn1   S    
C12   C46   A    
C2    O3    A    
C27   H7    S    
O18   H13   S    
C5    C7    A    
C15   C26   A    
C6    C8    A    
C3    C5    A    
C1    C32   S    
C2    C31   S    
C34   C52   S    
C3    C9    A    
C42   F3    S    
O22   H15   S    
C7    C57   S    
C45   F1    S    
C16   C18   A    
C39   O12   S    
O32   H20   S    
C60   O32   S    
C42   C50   A    
C4    C17   A    
C35   C53   S    
C44   H1    S    
C20   H4    S    
C20   C22   A    
C7    C25   A    
C50   N2    S    
C11   C45   A    
C4    C6    A    
C4    C10   A    
O7    Zn1   S    
N3    Zn1   S    
C16   C25   A    
C15   C17   A    
C37   O9    S    
O28   H18   S    
C27   C32   A    
N4    Zn2   S    
C23   O8    A    
C28   C31   A    
C25   H5    S    
C2    O2    A    
C26   H6    S    
C37   N1    A    
C60   O31   D    
C28   H8    S    
C57   O25   D    
C12   C24   S    
O30   H19   S    
C47   C55   S    
C40   O11   S    
C13   C17   A    
C28   C30   A    
C29   C31   A    
C8    C58   S    
C30   C32   A    
C33   N4    A    
C48   C56   S    
C11   C23   S    
C34   N3    A    
C9    C22   A    
C54   O20   S    
C13   C16   A    
O24   H16   S    
C14   C15   A    
C12   C44   A    
C53   O17   D    
C58   O27   D    
C33   C51   S    
C24   O7    A    
C38   N2    A    
