data_mof_unit_39167.cif
_audit_creation_date              2012-12-10T17:15:55-0500
_audit_creation_method            fapswitch 2.2
_symmetry_space_group_name_H-M    P1
_symmetry_Int_Tables_number       1
_space_group_crystal_system       triclinic
_cell_length_a                    10.136096
_cell_length_b                    10.651411
_cell_length_c                    10.475582
_cell_angle_alpha                 90.178397
_cell_angle_beta                  94.68556
_cell_angle_gamma                 80.863259
_cell_volume                      1112.84552073

loop_
_atom_site_label
_atom_site_type_symbol
_atom_type_description
_atom_site_fract_x
_atom_site_fract_y
_atom_site_fract_z
_atom_type_partial_charge
C1    C     C_R   0.444901 0.513770 0.264964 0.893400
C2    C     C_2   0.507704 0.605977 0.934055 0.228291
C3    C     C_2   0.073184 0.489027 0.489304 -0.090802
C4    C     C_R   0.505679 0.260323 0.517613 0.906780
C5    C     C_2   0.926748 0.511121 0.510586 -0.130574
C6    C     C_R   0.554987 0.497358 0.734938 0.911178
C7    C     C_R   0.498392 0.741058 0.493039 0.855070
C8    C     C_R   0.766703 0.071908 0.521282 0.167197
C9    C     C_R   0.860558 0.008212 0.441658 0.193302
C10   C     C_R   0.828006 0.907108 0.367270 -0.210853
C11   C     C_R   0.707666 0.862653 0.379775 -0.200723
C12   C     C_R   0.634079 0.042106 0.511871 0.060593
C13   C     C_R   0.613685 0.925102 0.460827 0.062595
C14   C     C_3   0.814447 0.154047 0.627762 -0.798807
C15   C     C_3   0.421023 0.718834 0.865968 -0.827224
C16   C     C_3   0.685577 0.411941 0.943436 -0.913246
C17   C     C_R   0.518077 0.125820 0.543287 -0.142746
C18   C     C_R   0.403129 0.078693 0.571363 -0.174091
C19   C     C_R   0.397265 0.952014 0.553533 -0.173126
C20   C     C_R   0.499949 0.875462 0.494730 -0.105293
C21   C     C_2   0.417186 0.544142 0.129269 -0.005624
C22   C     C_2   0.507813 0.599809 0.072637 -0.212212
C23   C     C_2   0.582869 0.511178 0.872398 0.013583
H1    H     H_    0.316783 0.140159 0.603679 0.193356
H2    H     H_    0.898487 0.097654 0.687684 0.236391
H3    H     H_    0.850523 0.237497 0.588105 0.271286
H4    H     H_    0.734369 0.187278 0.691877 0.217780
H5    H     H_    0.329738 0.690617 0.815889 0.266492
H6    H     H_    0.478961 0.760927 0.796335 0.211976
H7    H     H_    0.387608 0.793812 0.935546 0.244016
H8    H     H_    0.736128 0.342900 0.876373 0.244388
H9    H     H_    0.763179 0.458631 0.997164 0.260871
H10   H     H_    0.636383 0.358324 0.011433 0.262749
H11   H     H_    0.889731 0.581498 0.579654 0.177261
H12   H     H_    0.110115 0.418751 0.420103 0.188793
H13   H     H_    0.881298 0.382532 0.384052 0.193730
H14   H     H_    0.118757 0.617431 0.616015 0.174164
H15   H     H_    0.898449 0.859286 0.303758 0.183678
H16   H     H_    0.687434 0.782061 0.322625 0.170907
H17   H     H_    0.310758 0.915006 0.582865 0.194892
H18   H     H_    0.594182 0.627197 0.127796 0.148017
I1    I     I_    0.243773 0.491186 0.029036 -0.369018
I2    I     I_    0.050025 0.063837 0.425778 -0.461745
N1    N     N_2   0.157290 0.551390 0.551110 -0.186773
N2    N     N_2   0.842740 0.448550 0.448960 -0.201769
O1    O     O_R   0.568950 0.489660 0.307530 -0.615325
O2    O     O_R   0.348880 0.522640 0.340350 -0.574365
O3    O     O_R   0.610060 0.300270 0.483590 -0.600225
O4    O     O_R   0.389990 0.333260 0.516410 -0.601496
O5    O     O_R   0.651120 0.477360 0.659650 -0.610962
O6    O     O_R   0.431050 0.510340 0.692470 -0.600354
O7    O     O_R   0.610010 0.666740 0.483590 -0.621625
O8    O     O_R   0.389940 0.699730 0.516410 -0.610253
Zn1   Zn    Zn3+2 0.646940 0.477980 0.478090 0.935270
Zn2   Zn    Zn3+2 0.353060 0.522020 0.521910 0.971223

loop_
_geom_bond_atom_site_label_1
_geom_bond_atom_site_label_2
_ccdc_geom_bond_type
C12   C17   A    
C2    C22   S    
O3    Zn1   S    
C14   H3    S    
C1    C21   S    
C14   H4    S    
C16   H9    S    
C9    C10   A    
C19   C20   A    
C3    H12   S    
C4    O4    A    
C10   H15   S    
C5    H11   S    
O1    Zn1   S    
H14   N1    S    
C17   C18   A    
H13   N2    S    
C21   C22   D    
C6    O5    A    
C16   H8    S    
C11   H16   S    
C2    C15   S    
C11   C13   A    
N1    Zn2   S    
C15   H5    S    
O5    Zn1   S    
C18   H1    S    
C6    C23   S    
O7    Zn1   S    
C7    O7    A    
C15   H6    S    
C16   C23   S    
O6    Zn2   S    
C3    N1    D    
O8    Zn2   S    
C14   H2    S    
C4    O3    A    
C16   H10   S    
C1    O1    A    
C9    I2    S    
C22   H18   S    
C19   H17   S    
C7    O8    A    
C21   I1    S    
C12   C13   A    
C15   H7    S    
O2    Zn2   S    
C7    C20   S    
C10   C11   A    
C6    O6    A    
C2    C23   D    
C18   C19   A    
C8    C14   S    
C13   C20   A    
C3    C5    S    
O4    Zn2   S    
C5    N2    D    
C1    O2    A    
C8    C12   A    
C8    C9    A    
N2    Zn1   S    
C4    C17   S    
