data_mof_unit_44240.cif
_audit_creation_date              2012-12-10T17:04:16-0500
_audit_creation_method            fapswitch 2.2
_symmetry_space_group_name_H-M    P1
_symmetry_Int_Tables_number       1
_space_group_crystal_system       triclinic
_cell_length_a                    18.759627
_cell_length_b                    18.860652
_cell_length_c                    18.59435
_cell_angle_alpha                 108.388744
_cell_angle_beta                  109.010212
_cell_angle_gamma                 109.173866
_cell_volume                      5176.19704068

loop_
_atom_site_label
_atom_site_type_symbol
_atom_type_description
_atom_site_fract_x
_atom_site_fract_y
_atom_site_fract_z
_atom_type_partial_charge
C1    C     C_R   0.612597 0.617569 0.492324 0.800883
C2    C     C_R   0.680531 0.765478 0.511264 -0.091718
C3    C     C_2   0.617596 0.213287 0.757222 0.436906
C4    C     C_3   0.483304 0.248356 0.500526 -0.279992
C5    C     C_3   0.102418 0.118562 0.118461 -0.278650
C6    C     C_3   0.511745 0.436840 0.748199 -0.230686
C7    C     C_2   0.396675 0.508660 0.799479 0.421066
C8    C     C_2   0.256442 0.370972 0.794498 0.339784
C9    C     C_3   0.069907 0.969071 0.254180 -0.231854
C10   C     C_3   0.933970 0.068065 0.224428 -0.247251
C11   C     C_2   0.327255 0.592280 0.180327 0.406167
C12   C     C_3   0.298670 0.260685 0.264196 -0.113806
C13   C     C_R   0.811398 0.814290 0.498090 -0.119678
C14   C     C_3   0.344897 0.821686 0.336994 -0.195160
C15   C     C_3   0.301833 0.911292 0.558353 -0.257599
C16   C     C_3   0.247121 0.019954 0.435062 -0.227584
C17   C     C_2   0.684124 0.663858 0.191348 0.376652
C18   C     C_3   0.757465 0.466874 0.015739 -0.215551
C19   C     C_2   0.956569 0.138233 0.958499 0.508578
C20   C     C_3   0.298585 0.390349 0.097859 -0.296365
C21   C     C_2   0.989244 0.458626 0.764387 0.486298
C22   C     C_3   0.037724 0.504448 0.627247 -0.190853
C23   C     C_2   0.143292 0.397486 0.603725 0.377977
C24   C     C_R   0.380941 0.500434 0.381047 0.926040
C25   C     C_3   0.963325 0.217511 0.481531 -0.287262
C26   C     C_3   0.943924 0.953278 0.715297 -0.144764
C27   C     C_3   0.125341 0.092007 0.910677 -0.386027
C28   C     C_2   0.127773 0.329053 0.127264 0.454618
C29   C     C_3   0.100766 0.381541 0.303862 -0.194356
C30   C     C_2   0.705695 0.468936 0.273450 0.447750
C31   C     C_3   0.508449 0.703342 0.376902 -0.379763
C32   C     C_2   0.559981 0.872926 0.585653 0.443132
C33   C     C_R   0.792403 0.727730 0.454151 0.046538
C34   C     C_R   0.711963 0.662162 0.430619 -0.056615
C35   C     C_R   0.667666 0.681771 0.476058 -0.099851
C36   C     C_R   0.848090 0.702914 0.428811 0.458602
C37   C     C_R   0.817573 0.618168 0.370833 -0.334139
C38   C     C_R   0.732194 0.557159 0.334191 -0.028079
C39   C     C_R   0.676193 0.581257 0.358236 0.004520
C40   C     C_3   0.193892 0.418248 0.192917 -0.203119
C41   C     C_R   0.788798 0.625126 0.701655 -0.219972
C42   C     C_R   0.868702 0.698734 0.751779 -0.004084
C43   C     C_R   0.920476 0.717700 0.836458 0.370969
C44   C     C_R   0.379494 0.382169 0.499313 0.972619
C45   C     C_R   0.897876 0.656016 0.864150 -0.040510
C46   C     C_R   0.827175 0.572046 0.803706 0.037649
C47   C     C_R   0.765869 0.563037 0.728799 -0.021511
C48   C     C_R   0.815465 0.497259 0.813405 -0.104684
C49   C     C_R   0.736287 0.418203 0.754185 -0.120929
C50   C     C_R   0.667225 0.417725 0.692187 -0.042681
C51   C     C_3   0.216585 0.456629 0.288820 0.433763
C52   C     C_R   0.683179 0.491955 0.681392 -0.128697
C53   C     C_R   0.721249 0.338826 0.755389 -0.006007
C54   C     C_R   0.637087 0.279595 0.729311 -0.017689
C55   C     C_R   0.569538 0.280674 0.671415 -0.395801
C56   C     C_R   0.615588 0.495663 0.618494 0.883359
C57   C     C_R   0.585181 0.341818 0.642760 0.498532
C58   C     C_R   0.371641 0.397695 0.661787 0.527889
C59   C     C_R   0.348079 0.419731 0.727577 -0.137820
C60   C     C_R   0.279722 0.356097 0.723849 -0.102054
C61   C     C_R   0.230832 0.276655 0.650149 -0.153482
C62   C     C_3   0.312644 0.500966 0.314441 -0.189177
C63   C     C_R   0.240977 0.262101 0.575263 -0.058475
C64   C     C_R   0.308801 0.326120 0.578165 -0.057935
C65   C     C_R   0.181691 0.186049 0.497103 -0.069701
C66   C     C_R   0.175495 0.180825 0.417360 -0.173950
C67   C     C_R   0.235206 0.249661 0.416487 -0.168860
C68   C     C_3   0.308844 0.582113 0.315080 -0.322647
C69   C     C_R   0.308548 0.317396 0.498063 -0.086974
C70   C     C_R   0.108253 0.109247 0.337053 0.316230
C71   C     C_R   0.077215 0.122884 0.266021 0.278438
C72   C     C_R   0.135391 0.186224 0.260389 0.334841
C73   C     C_R   0.612846 0.779522 0.517741 0.547818
C74   C     C_R   0.217007 0.246337 0.333143 0.351680
C75   C     C_R   0.997796 0.617177 0.117981 0.894796
C76   C     C_R   0.122623 0.499697 0.123621 0.833926
C77   C     C_R   0.004182 0.382366 0.884045 0.709290
C78   C     C_R   0.884154 0.500362 0.883930 0.826090
C79   C     C_R   0.002816 0.882529 0.382631 0.945508
C80   C     C_3   0.212286 0.536348 0.288132 0.451181
C81   C     C_R   0.881196 0.881684 0.500620 0.943051
C82   C     C_R   0.999310 0.118603 0.617907 0.984613
C83   C     C_R   0.117657 0.117265 0.497898 0.941531
C84   C     C_R   0.629274 0.861077 0.570227 -0.207780
C85   C     C_R   0.147952 0.728256 0.280446 -0.280228
C86   C     C_R   0.226405 0.787738 0.353776 0.408697
C87   C     C_R   0.233410 0.859885 0.413308 0.322147
C88   C     C_R   0.163887 0.877814 0.393078 0.329284
C89   C     C_R   0.079670 0.810489 0.326138 -0.097206
C90   C     C_R   0.073933 0.738995 0.264278 -0.095137
C91   C     C_R   0.001711 0.811741 0.318130 -0.095317
C92   C     C_3   0.189302 0.498727 0.191933 -0.217695
C93   C     C_R   0.920761 0.740815 0.251662 -0.042343
C94   C     C_R   0.915674 0.676545 0.181612 -0.008830
C95   C     C_R   0.708515 0.930753 0.598924 -0.258751
C96   C     C_R   0.995003 0.679224 0.187362 -0.088478
C97   C     C_R   0.844356 0.732178 0.255749 -0.126791
C98   C     C_R   0.763475 0.670383 0.187316 -0.024616
C99   C     C_R   0.757517 0.613784 0.114131 -0.325630
C100  C     C_R   0.831063 0.611562 0.111332 0.549883
C101  C     C_R   0.032047 0.408553 0.741592 -0.137908
C102  C     C_R   0.075860 0.432182 0.697379 0.458487
C103  C     C_R   0.090606 0.373324 0.645731 -0.163757
C104  C     C_3   0.285984 0.543722 0.218584 -0.091944
C105  C     C_R   0.047534 0.287955 0.626723 0.305578
C106  C     C_R   0.760685 0.916789 0.561156 0.496140
C107  C     C_R   0.020866 0.266816 0.685215 -0.021207
C108  C     C_R   0.018382 0.331260 0.748157 -0.115478
C109  C     C_R   0.001599 0.186397 0.685665 -0.069976
C110  C     C_R   0.997421 0.175760 0.757965 0.001092
C111  C     C_R   0.001512 0.243334 0.823664 0.030998
C112  C     C_R   0.006088 0.317541 0.816074 -0.046492
C113  C     C_R   0.992931 0.101890 0.770210 0.449492
C114  C     C_R   0.009360 0.108451 0.853128 0.304028
C115  C     C_R   0.990827 0.162062 0.903534 -0.127143
C116  C     C_3   0.289830 0.463459 0.218781 0.356259
C117  C     C_R   0.752511 0.833333 0.523892 -0.126566
C118  C     C_R   0.998652 0.234096 0.896039 -0.211374
C119  C     C_3   0.206900 0.611653 0.409084 -0.248059
C120  C     C_2   0.734511 0.018206 0.662784 0.434583
C121  C     C_3   0.755277 0.991014 0.486571 -0.194431
C122  C     C_3   0.985840 0.752651 0.526794 -0.263090
C123  C     C_2   0.581644 0.534740 0.297106 0.494423
C124  C     C_2   0.896483 0.756973 0.716911 0.313336
C125  C     C_3   0.971930 0.856930 0.928991 -0.349854
C126  C     C_2   0.938021 0.687311 0.958456 0.402302
C127  C     C_2   0.784688 0.307259 0.758134 0.499575
Cu1   Cu    Cu3+1 0.500490 0.438210 0.438660 1.001103
Cu2   Cu    Cu3+1 0.499510 0.561790 0.561340 1.122687
Cu3   Cu    Cu3+1 0.942070 0.438200 0.003850 1.054051
Cu4   Cu    Cu3+1 0.065670 0.561760 0.003800 1.044394
Cu5   Cu    Cu3+1 0.062280 0.000030 0.562300 1.012374
Cu6   Cu    Cu3+1 0.937720 1.000000 0.437720 0.974179
H1    H     H_    0.860994 0.600635 0.352500 0.154065
H2    H     H_    0.270583 0.668008 0.437907 0.214538
H3    H     H_    0.213757 0.566254 0.433512 0.190553
H4    H     H_    0.166633 0.634659 0.431055 0.170106
H5    H     H_    0.696709 0.028785 0.694168 0.082099
H6    H     H_    0.793563 0.040096 0.474508 0.180053
H7    H     H_    0.715570 0.930426 0.424497 0.141518
H8    H     H_    0.712813 0.012738 0.505673 0.144602
H9    H     H_    0.982508 0.689012 0.503378 0.146613
H10   H     H_    0.969628 0.765463 0.580431 0.181173
H11   H     H_    0.053338 0.801031 0.553215 0.180916
H12   H     H_    0.504423 0.230927 0.644347 0.150035
H13   H     H_    0.538802 0.552977 0.315622 0.058438
H14   H     H_    0.959521 0.812851 0.754888 0.108540
H15   H     H_    0.939757 0.839240 0.966160 0.169982
H16   H     H_    0.930318 0.867040 0.879364 0.174962
H17   H     H_    0.031594 0.918660 0.974771 0.197618
H18   H     H_    0.005300 0.734863 0.999915 0.110918
H19   H     H_    0.849361 0.349579 0.777814 -0.001406
H20   H     H_    0.553554 0.158921 0.722322 0.044371
H21   H     H_    0.428519 0.201021 0.499791 0.143099
H22   H     H_    0.531381 0.225938 0.500140 0.143371
H23   H     H_    0.745999 0.614668 0.639329 0.183712
H24   H     H_    0.458207 0.251076 0.439280 0.193906
H25   H     H_    0.035082 0.066724 0.083724 0.215430
H26   H     H_    0.146528 0.093951 0.142462 0.107493
H27   H     H_    0.116066 0.136065 0.071093 0.167883
H28   H     H_    0.493172 0.369186 0.731694 0.139713
H29   H     H_    0.514890 0.469703 0.810985 0.143511
H30   H     H_    0.577973 0.469935 0.759378 0.187244
H31   H     H_    0.398643 0.522787 0.861424 0.027199
H32   H     H_    0.275125 0.434612 0.840139 0.075853
H33   H     H_    0.121512 0.997845 0.238871 0.108438
H34   H     H_    0.353318 0.648597 0.366920 0.243078
H35   H     H_    0.005441 0.938924 0.197812 0.207102
H36   H     H_    0.077881 0.917641 0.265232 0.175726
H37   H     H_    0.945774 0.134069 0.260248 0.132911
H38   H     H_    0.932129 0.035201 0.264511 0.192613
H39   H     H_    0.869547 0.032612 0.166758 0.185146
H40   H     H_    0.356383 0.567758 0.144138 0.074721
H41   H     H_    0.265867 0.256656 0.200354 0.178153
H42   H     H_    0.287168 0.196331 0.257063 0.059132
H43   H     H_    0.368520 0.297441 0.288160 0.190630
H44   H     H_    0.367553 0.891156 0.372511 0.149949
H45   H     H_    0.178304 0.229653 0.649197 0.201599
H46   H     H_    0.306949 0.797411 0.266342 0.177858
H47   H     H_    0.402862 0.813955 0.348693 0.182300
H48   H     H_    0.280060 0.845271 0.549805 0.159502
H49   H     H_    0.256888 0.934383 0.569207 0.174119
H50   H     H_    0.365396 0.953113 0.617288 0.184634
H51   H     H_    0.252209 0.993942 0.375217 0.113486
H52   H     H_    0.308634 0.045623 0.493428 0.193293
H53   H     H_    0.237080 0.074923 0.438248 0.181932
H54   H     H_    0.621662 0.614355 0.137171 0.080745
H55   H     H_    0.692601 0.451411 0.969423 0.143662
H56   H     H_    0.694272 0.568370 0.059459 0.140426
H57   H     H_    0.756832 0.460058 0.073010 0.116971
H58   H     H_    0.772586 0.418240 0.983005 0.221488
H59   H     H_    0.962389 0.088601 0.973070 0.079886
H60   H     H_    0.251253 0.409015 0.066941 0.116157
H61   H     H_    0.266621 0.320075 0.070695 0.158739
H62   H     H_    0.350051 0.408629 0.079764 0.212436
H63   H     H_    0.921321 0.427102 0.742150 -0.040377
H64   H     H_    0.036003 0.465186 0.567216 0.135331
H65   H     H_    0.055273 0.569029 0.633328 0.187248
H66   H     H_    0.972399 0.477591 0.621184 0.117631
H67   H     H_    0.145917 0.672260 0.238054 0.214610
H68   H     H_    0.140668 0.348814 0.551059 0.112098
H69   H     H_    0.979287 0.275787 0.473542 0.117551
H70   H     H_    0.904631 0.199925 0.489484 0.156271
H71   H     H_    0.947607 0.165213 0.420663 0.187514
H72   H     H_    0.002136 0.950674 0.751671 0.182373
H73   H     H_    0.908787 0.894320 0.654915 0.173889
H74   H     H_    0.900183 0.949326 0.744171 0.160395
H75   H     H_    0.162056 0.159063 0.963361 0.156289
H76   H     H_    0.139376 0.088088 0.856222 0.193057
H77   H     H_    0.148038 0.053650 0.936822 0.197035
H78   H     H_    0.846340 0.772573 0.313089 0.192554
H79   H     H_    0.144234 0.285789 0.090960 0.051260
H80   H     H_    0.067762 0.311893 0.260857 0.225719
H81   H     H_    0.070893 0.411517 0.269725 0.192126
H82   H     H_    0.089213 0.391311 0.360185 0.144299
H83   H     H_    0.741104 0.457839 0.239013 0.034417
H84   H     H_    0.468365 0.634384 0.331672 0.176548
H85   H     H_    0.471873 0.736451 0.360386 0.204661
H86   H     H_    0.564113 0.725298 0.364681 0.161672
H87   H     H_    0.560284 0.933529 0.602141 0.037648
H88   H     H_    0.008110 0.283269 0.952325 0.218293
O1    O     O_R   0.590580 0.537990 0.448200 -0.624219
O2    O     O_R   0.948140 0.909840 0.357940 -0.599650
O3    O     O_R   0.962430 0.909850 0.552620 -0.553818
O4    O     O_R   0.589760 0.642350 0.551790 -0.544735
O5    O     O_R   0.857240 0.909830 0.447420 -0.577862
O6    O     O_R   0.051860 0.090180 0.642080 -0.574790
O7    O     O_R   0.946670 0.090160 0.536880 -0.560901
O8    O     O_R   0.142760 0.090200 0.552610 -0.598279
O9    O     O_R   0.037570 0.090170 0.447410 -0.557337
O10   O     O_R   0.409540 0.447820 0.357340 -0.562992
O11   O     O_R   0.408720 0.552180 0.460940 -0.564557
O12   O     O_R   0.055380 0.642340 0.093300 -0.611183
O13   O     O_R   0.410240 0.357650 0.448210 -0.578845
O14   O     O_R   0.409420 0.462010 0.551800 -0.540146
O15   O     O_R   0.591280 0.447820 0.539060 -0.566253
O16   O     O_R   0.590460 0.552180 0.642660 -0.558365
O17   O     O_R   0.951000 0.537990 0.093340 -0.562424
O18   O     O_3   0.166092 0.572475 0.318236 -0.594254
O19   O     O_2   0.800557 0.079763 0.683864 -0.477834
O20   O     O_3   0.810897 0.982298 0.552276 -0.531504
O21   O     O_3   0.932472 0.760163 0.459121 -0.605869
O22   O     O_2   0.550800 0.479650 0.223185 -0.523940
O23   O     O_R   0.042560 0.447800 0.094700 -0.556947
O24   O     O_2   0.849787 0.742522 0.644731 -0.603416
O25   O     O_3   0.994458 0.795644 0.892060 -0.601996
O26   O     O_2   0.894576 0.663902 0.991110 -0.558533
O27   O     O_2   0.764102 0.231959 0.733836 -0.501382
O28   O     O_2   0.671636 0.220314 0.821345 -0.511890
O29   O     O_3   0.518763 0.329841 0.571176 -0.570405
O30   O     O_3   0.113715 0.191411 0.184204 -0.532036
O31   O     O_3   0.456131 0.443422 0.680835 -0.537817
O32   O     O_2   0.435760 0.567951 0.789910 -0.471892
O33   O     O_2   0.214934 0.311359 0.802258 -0.566662
O34   O     O_R   0.146930 0.552150 0.094670 -0.562445
O35   O     O_3   0.075297 0.027603 0.328543 -0.558480
O36   O     O_3   0.995411 0.067477 0.196565 -0.570863
O37   O     O_2   0.328374 0.659666 0.189696 -0.548136
O38   O     O_3   0.274636 0.303949 0.321970 -0.534785
O39   O     O_3   0.297103 0.775251 0.366773 -0.544168
O40   O     O_3   0.311300 0.916172 0.487634 -0.577003
O41   O     O_3   0.178093 0.960350 0.435893 -0.550333
O42   O     O_2   0.687303 0.713215 0.254959 -0.572535
O43   O     O_3   0.819447 0.548844 0.037900 -0.540895
O44   O     O_2   0.914398 0.168264 0.981465 -0.475365
O45   O     O_R   0.952370 0.357620 0.914350 -0.567473
O46   O     O_3   0.336900 0.428538 0.188786 -0.558063
O47   O     O_2   0.028901 0.536445 0.802706 -0.476060
O48   O     O_3   0.099863 0.511783 0.701272 -0.488631
O49   O     O_2   0.192698 0.471872 0.629329 -0.491971
O50   O     O_3   0.033279 0.227354 0.551070 -0.599234
O51   O     O_3   0.966490 0.024743 0.700366 -0.575498
O52   O     O_3   0.036398 0.058412 0.882812 -0.632774
O53   O     O_2   0.054247 0.304447 0.115148 -0.501927
O54   O     O_3   0.190010 0.414807 0.333729 -0.575826
O55   O     O_2   0.647452 0.407723 0.264725 -0.508721
O56   O     O_R   0.056740 0.461970 0.914310 -0.568070
O57   O     O_3   0.528659 0.715879 0.461941 -0.547788
O58   O     O_2   0.500878 0.814442 0.579420 -0.483776
O59   O     O_R   0.860810 0.447810 0.912980 -0.588430
O60   O     O_R   0.965190 0.552160 0.912950 -0.569908
O61   O     O_R   0.053330 0.909870 0.463140 -0.537086

loop_
_geom_bond_atom_site_label_1
_geom_bond_atom_site_label_2
_ccdc_geom_bond_type
C2    C35   A    
C68   C80   S    
Cu5   O61   S    
C87   C88   A    
C63   C65   A    
C23   O49   D    
C105  O50   S    
C93   C94   A    
Cu6   O9    S    
C102  O48   S    
C41   C42   A    
C5    O30   S    
C22   H64   S    
C9    H36   S    
C111  C112  A    
Cu6   O7    S    
C27   H76   S    
C25   H71   S    
C119  O18   S    
Cu5   O8    S    
C123  O22   D    
C114  C115  A    
C42   C124  S    
C122  O21   S    
C66   C70   A    
C74   O38   S    
Cu4   O12   S    
C79   O61   A    
C121  O20   S    
C105  C107  A    
Cu2   O11   S    
C1    C35   S    
C101  C102  A    
Cu2   O14   S    
C111  C118  A    
C80   O18   S    
C12   H41   S    
C36   C37   A    
C76   O23   A    
C4    H21   S    
C27   H75   S    
C44   O13   A    
C16   H52   S    
C38   C39   A    
C3    C54   S    
Cu4   O34   S    
C13   C117  A    
C55   H12   S    
C6    H28   S    
C28   C40   S    
C43   O25   S    
C10   H39   S    
C54   C55   A    
C98   C99   A    
C15   H49   S    
C13   C81   S    
C3    H20   S    
C33   C36   A    
C39   C123  S    
C77   O45   A    
C30   C38   S    
C4    O29   S    
C34   C35   A    
C7    C59   S    
C124  O24   D    
C61   C63   A    
C31   O57   S    
C51   C80   S    
C5    H27   S    
C53   C127  S    
C21   O47   D    
C19   C115  S    
C104  C116  S    
Cu3   O23   S    
C79   O2    A    
C23   C103  S    
C29   O54   S    
C100  O43   S    
C71   O36   S    
Cu5   Cu6   S    
C5    H26   S    
C15   H50   S    
C50   C52   A    
C107  C108  A    
C113  O51   S    
C75   O12   A    
C70   C71   A    
C12   O38   S    
C122  H11   S    
C89   C91   A    
C97   H78   S    
C17   C98   S    
C87   O40   S    
C20   H62   S    
C79   C91   S    
C14   H46   S    
C57   O29   S    
C19   H59   S    
C19   O44   D    
C41   H23   S    
C21   C101  S    
Cu1   O15   S    
C24   O10   A    
C101  C108  A    
C6    H30   S    
C66   C67   A    
C59   C60   A    
C72   O30   S    
Cu1   Cu2   S    
C118  H88   S    
Cu1   O13   S    
C107  C109  A    
C125  O25   S    
C26   H73   S    
C51   C62   S    
C122  H10   S    
C20   O46   S    
C20   H61   S    
C2    C117  A    
C75   C96   S    
C97   C98   A    
C31   H86   S    
C58   C64   A    
C32   C84   S    
C124  H14   S    
C46   C48   A    
C18   H58   S    
C11   H40   S    
C81   O5    A    
C88   O41   S    
C34   C39   A    
C119  H4    S    
C11   O37   D    
C6    H29   S    
C56   O16   A    
Cu6   O5    S    
C72   C74   A    
C25   H69   S    
C125  H17   S    
C44   O14   A    
Cu1   O1    S    
C99   H56   S    
C86   C87   A    
C83   O8    A    
C24   O11   A    
C58   O31   S    
C85   C86   A    
C82   O7    A    
C125  H15   S    
C27   H77   S    
C119  H2    S    
C110  C111  A    
C60   C61   A    
C67   C69   A    
C84   C95   A    
Cu2   O4    S    
C17   O42   D    
C77   C112  S    
C94   C96   A    
C82   C109  S    
C78   O60   A    
C18   O43   S    
C37   C38   A    
C15   O40   S    
C95   C106  A    
C121  H8    S    
C127  H19   S    
C91   C93   A    
C29   H80   S    
C126  H18   S    
C22   H66   S    
C85   H67   S    
C28   O53   D    
C4    H24   S    
C123  H13   S    
C94   C100  A    
C45   C126  S    
C115  C118  A    
C4    H22   S    
C33   C34   A    
C41   C47   A    
C10   O36   S    
C44   C69   S    
C103  C105  A    
C67   C74   A    
C25   O50   S    
C64   C69   A    
C40   C92   S    
C90   C96   A    
C80   C92   S    
C43   C45   A    
C110  C113  A    
C86   O39   S    
C32   H87   S    
C2    C73   A    
C125  H16   S    
C120  O19   D    
C12   H42   S    
C26   O51   S    
C22   O48   S    
C48   C49   A    
C76   C92   S    
C65   C66   A    
Cu1   O10   S    
C9    O35   S    
C55   C57   A    
C106  C117  A    
C48   C78   S    
C27   O52   S    
C73   O57   S    
Cu5   O6    S    
C26   H72   S    
C10   H37   S    
C42   C43   A    
C122  H9    S    
C116  O46   S    
C70   O35   S    
C5    H25   S    
C93   C97   A    
C20   H60   S    
Cu4   O60   S    
C121  H7    S    
C9    H33   S    
C113  C114  A    
C82   O6    A    
C1    O4    A    
C16   O41   S    
C81   O3    A    
C46   C47   A    
Cu3   O17   S    
C24   C62   S    
C73   C84   A    
Cu2   O16   S    
C126  O26   D    
Cu5   O3    S    
C50   C57   A    
C22   H65   S    
C9    H35   S    
C56   O15   A    
C3    O28   D    
C32   O58   D    
C25   H70   S    
C26   H74   S    
C45   C46   A    
C77   O56   A    
C85   C90   A    
C16   H51   S    
C53   C54   A    
C13   C33   A    
C83   O9    A    
C51   O54   S    
C95   C120  S    
C28   H79   S    
C40   C51   S    
C7    H31   S    
C119  H3    S    
C12   H43   S    
C99   C100  A    
C62   C68   S    
C36   O21   S    
C31   H85   S    
C68   C104  S    
C18   H57   S    
C58   C59   A    
C78   O59   A    
C71   C72   A    
C16   H53   S    
C62   C116  S    
C8    C60   S    
C121  H6    S    
C29   H81   S    
C40   C116  S    
C17   H54   S    
C49   C53   A    
C15   H48   S    
C18   H55   S    
Cu6   O2    S    
Cu3   Cu4   S    
C11   C104  S    
C21   H63   S    
Cu3   O59   S    
C102  C103  A    
C14   H47   S    
Cu4   O56   S    
C14   H44   S    
C29   H82   S    
C8    H32   S    
C92   C104  S    
C30   H83   S    
C63   C64   A    
Cu3   O45   S    
C68   H34   S    
C108  C112  A    
C61   H45   S    
C8    O33   D    
C120  H5    S    
C88   C89   A    
C23   H68   S    
C10   H38   S    
C49   C50   A    
C47   C52   A    
C37   H1    S    
C1    O1    A    
C75   O17   A    
C14   O39   S    
C127  O27   D    
C106  O20   S    
C31   H84   S    
C89   C90   A    
C109  C110  A    
C6    O31   S    
C65   C83   S    
C7    O32   D    
C30   O55   D    
C52   C56   S    
C114  O52   S    
C76   O34   A    
