data_mof_unit_48487.cif
_audit_creation_date              2012-12-11T13:59:54-0500
_audit_creation_method            fapswitch 2.2
_symmetry_space_group_name_H-M    P1
_symmetry_Int_Tables_number       1
_space_group_crystal_system       triclinic
_cell_length_a                    11.240425
_cell_length_b                    11.301968
_cell_length_c                    18.728578
_cell_angle_alpha                 90.063398
_cell_angle_beta                  90.04073
_cell_angle_gamma                 120.11406
_cell_volume                      2058.12244137

loop_
_atom_site_label
_atom_site_type_symbol
_atom_type_description
_atom_site_fract_x
_atom_site_fract_y
_atom_site_fract_z
_atom_type_partial_charge
C1    C     C_R   0.542777 0.478627 0.853031 0.553461
C2    C     C_R   0.450538 0.581233 0.359534 0.589173
C3    C     C_R   0.061588 0.519163 0.350311 0.582741
C4    C     C_R   0.418209 0.870256 0.359690 0.606751
C5    C     C_2   0.985704 0.484866 0.577245 -0.098558
C6    C     C_2   0.496964 0.521701 0.585314 -0.126199
C7    C     C_2   0.476086 0.973852 0.585702 -0.107782
C8    C     C_2   0.441622 0.912282 0.433343 -0.069999
C9    C     C_2   0.462701 0.556490 0.434042 -0.095430
C10   C     C_2   0.979964 0.491118 0.413545 -0.058999
C11   C     C_2   0.965751 0.395467 0.459728 0.241267
C12   C     C_R   0.521135 0.064161 0.853021 0.554474
C13   C     C_2   0.550319 0.660763 0.475684 0.240769
C14   C     C_2   0.335492 0.882080 0.476985 0.235601
C15   C     C_2   0.363369 0.950073 0.546887 0.248851
C16   C     C_2   0.590612 0.625819 0.543742 0.237246
C17   C     C_2   0.902728 0.395906 0.527571 0.220451
C18   C     C_2   0.003371 0.501498 0.921872 -0.108852
C19   C     C_2   0.498165 0.501417 0.921822 -0.109983
C20   C     C_2   0.498038 0.996814 0.921762 -0.108906
C21   C     C_2   0.501759 0.003000 0.078185 -0.109882
C22   C     C_2   0.501967 0.498712 0.078179 -0.110154
C23   C     C_R   0.935747 0.456959 0.853036 0.551660
C24   C     C_2   0.996525 0.497999 0.078159 -0.108742
C25   C     C_2   0.016181 0.604737 0.038106 -0.165209
C26   C     C_2   0.394543 0.411094 0.038014 -0.165300
C27   C     C_2   0.588845 0.983008 0.037878 -0.165706
C28   C     C_2   0.605389 0.016227 0.961896 -0.164685
C29   C     C_2   0.411003 0.394485 0.962001 -0.164874
C30   C     C_2   0.983172 0.588233 0.962078 -0.164533
C31   C     C_3   0.027490 0.239563 0.501854 -0.118374
C32   C     C_3   0.733472 0.892222 0.479637 -0.078599
C33   C     C_3   0.127644 0.855660 0.438769 -0.074204
C34   C     C_R   0.478896 0.543022 0.146977 0.564090
C35   C     C_3   0.308110 0.119459 0.541132 -0.112478
C36   C     C_3   0.790600 0.628012 0.523447 -0.115600
C37   C     C_3   0.684422 0.261875 0.480806 -0.142324
C38   C     C_R   0.064243 0.521197 0.146971 0.555732
C39   C     C_R   0.457223 0.935800 0.146966 0.566736
C40   C     C_R   0.543710 0.481568 0.648562 0.562656
C41   C     C_R   0.517193 0.060994 0.648949 0.588615
C42   C     C_R   0.938761 0.457335 0.649577 0.576806
Cr1   Cr    Cr6+3 0.464030 0.233680 0.750360 1.040765
Cr2   Cr    Cr6+3 0.766320 0.230350 0.750360 1.041509
Cr3   Cr    Cr6+3 0.769650 0.535970 0.750360 1.058830
Cr4   Cr    Cr6+3 0.233680 0.464030 0.249640 1.037662
Cr5   Cr    Cr6+3 0.230350 0.766320 0.249640 1.011819
Cr6   Cr    Cr6+3 0.535970 0.769650 0.249640 1.041978
H1    H     H_    0.944317 0.561214 0.427421 0.035729
H2    H     H_    0.708234 0.061024 0.939644 0.156032
H3    H     H_    0.353541 0.291988 0.939768 0.156113
H4    H     H_    0.937767 0.645305 0.939864 0.156350
H5    H     H_    0.947579 0.395288 0.055905 0.109634
H6    H     H_    0.605189 0.552974 0.056026 0.108659
H7    H     H_    0.447888 0.052080 0.056164 0.109002
H8    H     H_    0.394806 0.948087 0.943904 0.109399
H9    H     H_    0.552054 0.604245 0.943963 0.109122
H10   H     H_    0.052668 0.447967 0.944015 0.109104
H11   H     H_    0.934053 0.180375 0.535111 0.147134
H12   H     H_    0.412324 0.450846 0.452001 0.037986
H13   H     H_    0.113008 0.320325 0.534043 0.108902
H14   H     H_    0.060205 0.167143 0.483190 0.113930
H15   H     H_    0.817562 0.871158 0.467086 0.148905
H16   H     H_    0.722545 0.902775 0.537833 0.153100
H17   H     H_    0.763887 0.992756 0.455256 0.137989
H18   H     H_    0.189623 0.952022 0.408539 0.130742
H19   H     H_    0.082482 0.874035 0.487086 0.150921
H20   H     H_    0.040575 0.788753 0.403358 0.118768
H21   H     H_    0.319294 0.122382 0.482229 0.069772
H22   H     H_    0.405059 0.202471 0.564205 0.154616
H23   H     H_    0.546220 0.980701 0.449777 0.063763
H24   H     H_    0.226031 0.142880 0.554253 0.121768
H25   H     H_    0.785358 0.638113 0.464615 0.094461
H26   H     H_    0.741575 0.518862 0.538806 0.157783
H27   H     H_    0.900149 0.677330 0.539247 0.156797
H28   H     H_    0.711280 0.201499 0.444227 0.149359
H29   H     H_    0.693457 0.352293 0.452325 0.087645
H30   H     H_    0.575702 0.197882 0.495840 0.110867
H31   H     H_    0.543014 0.936772 0.567823 0.056570
H32   H     H_    0.388532 0.464700 0.571456 0.023050
H33   H     H_    0.091618 0.562018 0.565852 0.071375
H34   H     H_    0.061165 0.707077 0.060443 0.156349
H35   H     H_    0.291695 0.353306 0.060261 0.155732
H36   H     H_    0.646257 0.937789 0.059995 0.155357
O1    O     O_R   0.434100 0.092480 0.829780 -0.518944
O2    O     O_R   0.362730 0.477510 0.175360 -0.494950
O3    O     O_R   0.114780 0.637270 0.175360 -0.502416
O4    O     O_R   0.522490 0.885220 0.175360 -0.496956
O5    O     O_R   0.432250 0.092620 0.670380 -0.464990
O6    O     O_R   0.907380 0.339630 0.670380 -0.490458
O7    O     O_R   0.660370 0.567750 0.670380 -0.442543
O8    O     O_R   0.092620 0.432250 0.329620 -0.459268
O9    O     O_R   0.339630 0.907380 0.329620 -0.515335
O10   O     O_R   0.567750 0.660370 0.329620 -0.474464
O11   O     O_R   0.475790 0.362860 0.676880 -0.522612
O12   O     O_R   0.907520 0.341620 0.829780 -0.523795
O13   O     O_R   0.637140 0.112930 0.676880 -0.479795
O14   O     O_R   0.887070 0.524210 0.676880 -0.487469
O15   O     O_R   0.362860 0.475790 0.323120 -0.506997
O16   O     O_R   0.112930 0.637140 0.323120 -0.511028
O17   O     O_R   0.524210 0.887070 0.323120 -0.486075
O18   O     O_3   0.666667 0.333333 0.749450 -0.257081
O19   O     O_3   0.333333 0.666667 0.250550 -0.303688
O20   O     O_3   0.999552 0.295967 0.441405 -0.546649
O21   O     O_3   0.608906 0.793662 0.448013 -0.575247
O22   O     O_3   0.201437 0.788460 0.456206 -0.568441
O23   O     O_R   0.658380 0.565900 0.829780 -0.520785
O24   O     O_3   0.272224 0.990550 0.570891 -0.531787
O25   O     O_3   0.729808 0.692773 0.560202 -0.554243
O26   O     O_3   0.766182 0.299645 0.543223 -0.558851
O27   O     O_R   0.092480 0.434100 0.170220 -0.518673
O28   O     O_R   0.341620 0.907520 0.170220 -0.515536
O29   O     O_R   0.565900 0.658380 0.170220 -0.518837
O30   O     O_R   0.477510 0.362730 0.824640 -0.502385
O31   O     O_R   0.637270 0.114780 0.824640 -0.504185
O32   O     O_R   0.885220 0.522490 0.824640 -0.502579

loop_
_geom_bond_atom_site_label_1
_geom_bond_atom_site_label_2
_ccdc_geom_bond_type
C41   O5    A    
C5    C42   S    
C26   H35   S    
C31   H13   S    
C20   H8    S    
C17   O26   S    
C22   H6    S    
C19   H9    S    
C34   O29   A    
Cr1   O5    S    
Cr6   O10   S    
C12   O1    A    
C27   H36   S    
Cr3   O14   S    
C42   O14   A    
Cr1   O30   S    
C5    C17   D    
Cr5   O28   S    
C23   O12   A    
C34   O2    A    
C31   H11   S    
C9    C13   D    
C35   O24   S    
C23   O32   A    
C6    H32   S    
C3    O16   A    
C18   H10   S    
C35   H22   S    
C16   O25   S    
C24   C38   S    
Cr6   O4    S    
C11   O20   S    
C18   C30   D    
C4    C8    S    
C12   O31   A    
C7    C15   D    
C21   C27   D    
Cr4   O27   S    
C31   H14   S    
C28   H2    S    
C39   O4    A    
C33   H18   S    
Cr2   O31   S    
C22   C34   S    
C1    C19   S    
Cr5   O19   S    
C18   C23   S    
Cr1   O1    S    
C2    O10   A    
C24   C25   D    
C32   H16   S    
C13   O21   S    
Cr3   O18   S    
C21   H7    S    
Cr2   O18   S    
C20   C28   D    
C24   H5    S    
Cr6   O19   S    
C37   H29   S    
Cr5   O16   S    
C3    O8    A    
C42   O6    A    
Cr5   O3    S    
C15   O24   S    
Cr2   O12   S    
C36   H27   S    
C5    H33   S    
Cr2   O13   S    
Cr1   O11   S    
C21   C39   S    
C4    O17   A    
C12   C20   S    
Cr5   O9    S    
C37   O26   S    
C36   H26   S    
C1    O23   A    
C39   O28   A    
C37   H28   S    
C2    O15   A    
C32   O21   S    
C25   H34   S    
C41   O13   A    
C1    O30   A    
C40   O11   A    
C19   C29   D    
C36   O25   S    
Cr2   O6    S    
C33   H19   S    
C7    H31   S    
C29   H3    S    
C25   C30   S    
C30   H4    S    
C11   C17   S    
C8    H23   S    
C8    C14   D    
Cr4   O19   S    
C33   O22   S    
C32   H15   S    
C35   H24   S    
C37   H30   S    
C38   O3    A    
C9    H12   S    
C31   O20   S    
Cr4   O15   S    
Cr1   O18   S    
C3    C10   S    
C2    C9    S    
Cr3   O32   S    
Cr6   O17   S    
C6    C40   S    
C7    C41   S    
C40   O7    A    
Cr3   O7    S    
C10   C11   D    
C6    C16   D    
C4    O9    A    
C14   O22   S    
Cr4   O8    S    
C35   H21   S    
C26   C29   S    
C22   C26   D    
C13   C16   S    
C27   C28   S    
C14   C15   S    
C32   H17   S    
C38   O27   A    
C10   H1    S    
C36   H25   S    
Cr3   O23   S    
C33   H20   S    
Cr6   O29   S    
Cr4   O2    S    
