data_mof_unit_25541.cif
_audit_creation_date              2012-12-11T13:59:57-0500
_audit_creation_method            fapswitch 2.2
_symmetry_space_group_name_H-M    P1
_symmetry_Int_Tables_number       1
_space_group_crystal_system       triclinic
_cell_length_a                    11.205862
_cell_length_b                    11.205867
_cell_length_c                    18.898202
_cell_angle_alpha                 90.872552
_cell_angle_beta                  89.127566
_cell_angle_gamma                 119.51838
_cell_volume                      2064.72241351

loop_
_atom_site_label
_atom_site_type_symbol
_atom_type_description
_atom_site_fract_x
_atom_site_fract_y
_atom_site_fract_z
_atom_type_partial_charge
C1    C     C_R   0.543480 0.477794 0.853571 0.600089
C2    C     C_R   0.476327 0.546913 0.353008 0.563352
C3    C     C_R   0.060922 0.519964 0.351170 0.561604
C4    C     C_R   0.412853 0.861011 0.357735 0.567976
C5    C     C_2   0.858940 0.417844 0.564312 0.293543
C6    C     C_2   0.527052 0.478165 0.572370 0.331544
C7    C     C_2   0.499310 0.995721 0.579051 0.312420
C8    C     C_2   0.417845 0.858941 0.435688 0.293537
C9    C     C_2   0.478161 0.527062 0.427632 0.331550
C10   C     C_2   0.995721 0.499310 0.420949 0.312411
C11   C     C_2   0.916309 0.370544 0.445062 0.298392
C12   C     C_R   0.522006 0.065852 0.853398 0.601797
C13   C     C_2   0.598200 0.592775 0.461607 0.291258
C14   C     C_2   0.347199 0.902008 0.477411 0.273953
C15   C     C_2   0.370544 0.916309 0.554937 0.298392
C16   C     C_2   0.592775 0.598202 0.538394 0.291259
C17   C     C_2   0.902008 0.347199 0.522589 0.273952
C18   C     C_2   0.996455 0.502341 0.922750 -0.055153
C19   C     C_2   0.496376 0.497959 0.922223 -0.054962
C20   C     C_2   0.499014 0.996352 0.920815 -0.057501
C21   C     C_2   0.502342 0.996461 0.077252 -0.055156
C22   C     C_2   0.497957 0.496376 0.077777 -0.054961
C23   C     C_R   0.933092 0.456372 0.853788 0.605086
C24   C     C_2   0.996346 0.499009 0.079186 -0.057500
C25   C     C_2   0.012509 0.604638 0.039105 0.183921
C26   C     C_2   0.389817 0.415234 0.036658 0.185425
C27   C     C_2   0.576948 0.961226 0.033829 0.185076
C28   C     C_2   0.604647 0.012529 0.960898 0.183923
C29   C     C_2   0.415230 0.389820 0.963341 0.185426
C30   C     C_2   0.961208 0.576936 0.966174 0.185080
C31   C     C_R   0.477794 0.543480 0.146428 0.600086
C32   C     C_R   0.065851 0.522005 0.146602 0.601798
C33   C     C_R   0.456372 0.933093 0.146213 0.605082
C34   C     C_R   0.546910 0.476328 0.646993 0.563347
C35   C     C_R   0.519964 0.060921 0.648830 0.561614
C36   C     C_R   0.861011 0.412853 0.642266 0.567981
Cr1   Cr    Cr6+3 0.464030 0.233680 0.750360 1.099826
Cr2   Cr    Cr6+3 0.766320 0.230350 0.750360 1.109595
Cr3   Cr    Cr6+3 0.769650 0.535970 0.750360 1.103958
Cr4   Cr    Cr6+3 0.233680 0.464030 0.249640 1.099830
Cr5   Cr    Cr6+3 0.230350 0.766320 0.249640 1.109595
Cr6   Cr    Cr6+3 0.535970 0.769650 0.249640 1.103958
H1    H     H_    0.943501 0.394841 0.058150 0.063954
H2    H     H_    0.175430 0.809809 0.574230 0.353694
H3    H     H_    0.697324 0.797255 0.539278 0.350461
H4    H     H_    0.984160 0.229947 0.513343 0.341490
H5    H     H_    0.086690 0.695544 0.440282 0.356212
H6    H     H_    0.275461 0.436494 0.435347 0.347767
H7    H     H_    0.558706 0.806402 0.432734 0.339199
H8    H     H_    0.695544 0.086689 0.559718 0.356215
H9    H     H_    0.436424 0.275461 0.564655 0.347779
H10   H     H_    0.806394 0.558700 0.567266 0.339201
H11   H     H_    0.087952 0.800497 0.026031 0.331890
H12   H     H_    0.602065 0.540795 0.056971 0.059429
H13   H     H_    0.192791 0.310951 0.022090 0.329108
H14   H     H_    0.669130 0.855360 0.015715 0.327091
H15   H     H_    0.800508 0.087997 0.973976 0.331886
H16   H     H_    0.310939 0.192794 0.977907 0.329110
H17   H     H_    0.855321 0.669097 0.984289 0.327086
H18   H     H_    0.462541 0.061187 0.058449 0.058127
H19   H     H_    0.394845 0.943497 0.941850 0.063951
H20   H     H_    0.540797 0.602067 0.943029 0.059431
H21   H     H_    0.061189 0.462548 0.941553 0.058120
H22   H     H_    0.809797 0.175432 0.425768 0.353700
H23   H     H_    0.797254 0.697308 0.460721 0.350466
H24   H     H_    0.229943 0.984157 0.486657 0.341482
O1    O     O_R   0.434100 0.092480 0.829780 -0.481843
O2    O     O_R   0.362730 0.477510 0.175360 -0.432406
O3    O     O_R   0.114780 0.637270 0.175360 -0.434870
O4    O     O_R   0.522490 0.885220 0.175360 -0.431600
O5    O     O_R   0.432250 0.092620 0.670380 -0.486905
O6    O     O_R   0.907380 0.339630 0.670380 -0.444001
O7    O     O_R   0.660370 0.567750 0.670380 -0.497560
O8    O     O_R   0.092620 0.432250 0.329620 -0.486907
O9    O     O_R   0.339630 0.907380 0.329620 -0.443997
O10   O     O_R   0.567750 0.660370 0.329620 -0.497564
O11   O     O_R   0.475790 0.362860 0.676880 -0.534025
O12   O     O_R   0.907520 0.341620 0.829780 -0.489309
O13   O     O_R   0.637140 0.112930 0.676880 -0.541158
O14   O     O_R   0.887070 0.524210 0.676880 -0.509851
O15   O     O_R   0.362860 0.475790 0.323120 -0.534016
O16   O     O_R   0.112930 0.637140 0.323120 -0.541156
O17   O     O_R   0.524210 0.887070 0.323120 -0.509853
O18   O     O_3   0.666667 0.333333 0.749450 -0.336021
O19   O     O_3   0.333333 0.666667 0.250550 -0.336027
O20   O     O_3   0.867310 0.260175 0.398564 -0.691136
O21   O     O_3   0.722495 0.656403 0.425551 -0.680578
O22   O     O_3   0.263118 0.946106 0.448324 -0.698590
O23   O     O_R   0.658380 0.565900 0.829780 -0.482340
O24   O     O_3   0.260175 0.867311 0.601436 -0.691139
O25   O     O_3   0.656416 0.722498 0.574449 -0.680581
O26   O     O_3   0.946104 0.263116 0.551676 -0.698593
O27   O     O_3   0.040379 0.609540 0.467370 -0.716279
O28   O     O_3   0.355987 0.470951 0.466597 -0.673534
O29   O     O_3   0.492463 0.806910 0.467620 -0.699234
O30   O     O_3   0.609540 0.040380 0.532630 -0.716277
O31   O     O_3   0.470924 0.355990 0.533405 -0.673537
O32   O     O_3   0.806907 0.492460 0.532380 -0.699232
O33   O     O_3   0.078240 0.737903 0.064979 -0.664326
O34   O     O_R   0.092480 0.434100 0.170220 -0.481841
O35   O     O_3   0.256324 0.358267 0.061821 -0.665253
O36   O     O_3   0.625653 0.876381 0.056523 -0.668795
O37   O     O_3   0.737913 0.078276 0.935026 -0.664326
O38   O     O_3   0.358258 0.256327 0.938177 -0.665251
O39   O     O_3   0.876350 0.625627 0.943480 -0.668797
O40   O     O_R   0.341620 0.907520 0.170220 -0.489315
O41   O     O_R   0.565900 0.658380 0.170220 -0.482342
O42   O     O_R   0.477510 0.362730 0.824640 -0.432406
O43   O     O_R   0.637270 0.114780 0.824640 -0.434872
O44   O     O_R   0.885220 0.522490 0.824640 -0.431603

loop_
_geom_bond_atom_site_label_1
_geom_bond_atom_site_label_2
_ccdc_geom_bond_type
H9    O31   S    
C4    C8    S    
C2    O10   A    
C22   H12   S    
H11   O33   S    
C7    O30   S    
C17   O26   S    
H17   O39   S    
H6    O28   S    
Cr3   O18   S    
C34   O11   A    
H24   O22   S    
C18   H21   S    
C21   C33   S    
Cr2   O13   S    
C11   O20   S    
C5    C36   S    
Cr6   O4    S    
C1    O42   A    
C35   O13   A    
C20   H19   S    
C3    O8    A    
C9    C13   D    
C4    O9    A    
C25   O33   S    
Cr3   O44   S    
C1    O23   A    
Cr1   O18   S    
C26   C29   S    
C18   C30   D    
Cr6   O41   S    
C7    C15   D    
C14   O22   S    
C21   C27   D    
C35   O5    A    
C13   O21   S    
C8    O29   S    
C31   O41   A    
H22   O20   S    
C12   O43   A    
H23   O21   S    
C31   O2    A    
H15   O37   S    
C12   O1    A    
Cr2   O6    S    
C1    C19   S    
C22   C31   S    
Cr6   O17   S    
C18   C23   S    
C6    O31   S    
C24   C25   D    
Cr1   O42   S    
C36   O14   A    
Cr2   O12   S    
C10   O27   S    
Cr1   O11   S    
C32   O34   A    
C29   O38   S    
Cr4   O19   S    
C24   C32   S    
Cr5   O9    S    
C12   C20   S    
C3    O16   A    
H5    O27   S    
Cr6   O19   S    
H7    O29   S    
Cr2   O43   S    
C33   O4    A    
C21   H18   S    
Cr5   O19   S    
Cr1   O5    S    
C30   O39   S    
C22   C26   D    
Cr5   O40   S    
H16   O38   S    
C19   C29   D    
H2    O24   S    
Cr5   O3    S    
C25   C30   S    
C23   O44   A    
C11   C17   S    
H4    O26   S    
C8    C14   D    
Cr2   O18   S    
C7    C35   S    
Cr4   O15   S    
C33   O40   A    
Cr4   O34   S    
C32   O3    A    
C20   C28   D    
H13   O35   S    
C27   O36   S    
Cr6   O10   S    
Cr3   O14   S    
H14   O36   S    
C26   O35   S    
C3    C10   S    
C15   O24   S    
C28   O37   S    
H8    O30   S    
C4    O17   A    
Cr5   O16   S    
Cr1   O1    S    
H10   O32   S    
Cr4   O8    S    
Cr3   O7    S    
C23   O12   A    
H3    O25   S    
C10   C11   D    
C34   O7    A    
C6    C16   D    
C6    C34   S    
C5    C17   D    
C5    O32   S    
C16   O25   S    
Cr4   O2    S    
C13   C16   S    
C27   C28   S    
C24   H1    S    
C14   C15   S    
C2    O15   A    
C19   H20   S    
C2    C9    S    
C9    O28   S    
Cr3   O23   S    
C36   O6    A    
