data_mof_unit_64193.cif
_audit_creation_date              2012-12-10T20:55:28-0500
_audit_creation_method            fapswitch 2.2
_symmetry_space_group_name_H-M    P1
_symmetry_Int_Tables_number       1
_space_group_crystal_system       triclinic
_cell_length_a                    26.021474
_cell_length_b                    27.723287
_cell_length_c                    18.998257
_cell_angle_alpha                 90.094583
_cell_angle_beta                  133.10644
_cell_angle_gamma                 89.919778
_cell_volume                      10006.0681838

loop_
_atom_site_label
_atom_site_type_symbol
_atom_type_description
_atom_site_fract_x
_atom_site_fract_y
_atom_site_fract_z
_atom_type_partial_charge
C1    C     C_R   0.999990 0.879253 0.499989 0.506507
C2    C     C_R   0.313919 0.865144 0.475623 -0.114000
C3    C     C_1   0.180976 0.250093 0.862111 0.032246
C4    C     C_1   0.681014 0.249953 0.862094 0.032722
C5    C     C_1   0.318986 0.750047 0.137906 0.032716
C6    C     C_1   0.319024 0.249907 0.137889 0.032243
C7    C     C_1   0.680976 0.750093 0.862111 0.032235
C8    C     C_1   0.224515 0.749978 0.949063 -0.010915
C9    C     C_1   0.775485 0.250022 0.050937 -0.010910
C10   C     C_1   0.775505 0.749955 0.050930 -0.011205
C11   C     C_1   0.224495 0.250045 0.949070 -0.011198
C12   C     C_1   0.724515 0.249978 0.949063 -0.010912
C13   C     C_R   0.293985 0.142972 0.427522 -0.120289
C14   C     C_1   0.275485 0.750022 0.050937 -0.010917
C15   C     C_1   0.275504 0.249955 0.050930 -0.011200
C16   C     C_1   0.724495 0.750045 0.949070 -0.011207
C17   C     C_1   0.000008 0.568944 0.499870 0.002649
C18   C     C_1   0.999992 0.431056 0.500129 0.002644
C19   C     C_1   0.500008 0.068944 0.499871 0.002649
C20   C     C_1   0.499992 0.931056 0.500130 0.002645
C21   C     C_1   0.000009 0.525461 0.499932 -0.057018
C22   C     C_1   0.999990 0.474539 0.500067 -0.057022
C23   C     C_1   0.500010 0.025461 0.499933 -0.057013
C24   C     C_R   0.706032 0.857008 0.572545 -0.120278
C25   C     C_1   0.499991 0.974539 0.500068 -0.057013
C26   C     C_R   0.150550 0.591549 0.503543 -0.111260
C27   C     C_R   0.849413 0.408449 0.496384 -0.111273
C28   C     C_R   0.819652 0.598804 0.427103 -0.116943
C29   C     C_R   0.180297 0.401230 0.572746 -0.116944
C30   C     C_R   0.650578 0.091551 0.503604 -0.111268
C31   C     C_R   0.349454 0.908435 0.496407 -0.111239
C32   C     C_R   0.319693 0.098787 0.427201 -0.116932
C33   C     C_R   0.680342 0.901194 0.572897 -0.116936
C34   C     C_R   0.174758 0.660501 0.451002 0.054644
C35   C     C_R   0.825225 0.339504 0.548963 0.054642
C36   C     C_R   0.806657 0.657808 0.509007 0.051434
C37   C     C_R   0.193294 0.342189 0.490894 0.051435
C38   C     C_R   0.674773 0.160495 0.451033 0.054646
C39   C     C_R   0.325227 0.839505 0.548968 0.054647
C40   C     C_R   0.306689 0.157809 0.509072 0.051439
C41   C     C_R   0.000010 0.120747 0.500011 0.506508
C42   C     C_R   0.693345 0.842193 0.490997 0.051435
C43   C     C_R   0.127562 0.641928 0.356259 0.274351
C44   C     C_R   0.872412 0.358091 0.643694 0.274347
C45   C     C_R   0.845295 0.627357 0.590422 0.274147
C46   C     C_R   0.154593 0.372598 0.409415 0.274181
C47   C     C_R   0.627597 0.141905 0.356304 0.274337
C48   C     C_R   0.372379 0.858108 0.643688 0.274308
C49   C     C_R   0.345350 0.127377 0.590515 0.274153
C50   C     C_R   0.654718 0.872648 0.409589 0.274138
C51   C     C_R   0.092272 0.598505 0.336213 -0.056671
C52   C     C_R   0.499990 0.379253 0.499989 0.506506
C53   C     C_R   0.907687 0.401519 0.663716 -0.056667
C54   C     C_R   0.870637 0.583041 0.589186 -0.060584
C55   C     C_R   0.129216 0.416912 0.410592 -0.060570
C56   C     C_R   0.592325 0.098476 0.336281 -0.056669
C57   C     C_R   0.407655 0.901535 0.663712 -0.056682
C58   C     C_R   0.370708 0.083060 0.589311 -0.060579
C59   C     C_R   0.629379 0.916965 0.410826 -0.060587
C60   C     C_R   0.103600 0.573470 0.409553 -0.129743
C61   C     C_R   0.896354 0.426543 0.590362 -0.129756
C62   C     C_R   0.857915 0.568866 0.507828 -0.132566
C63   C     C_R   0.500010 0.620747 0.500011 0.506506
C64   C     C_R   0.141970 0.431126 0.491956 -0.132546
C65   C     C_R   0.603649 0.073453 0.409629 -0.129763
C66   C     C_R   0.396360 0.926543 0.590374 -0.129758
C67   C     C_R   0.357979 0.068868 0.507956 -0.132552
C68   C     C_R   0.642092 0.931136 0.492178 -0.132567
C69   C     C_R   0.264116 0.709088 0.472585 -0.096812
C70   C     C_R   0.735879 0.290914 0.527406 -0.096803
C71   C     C_R   0.727648 0.707033 0.510302 -0.093725
C72   C     C_R   0.272330 0.292965 0.489656 -0.093751
C73   C     C_R   0.764121 0.209085 0.472595 -0.096798
C74   C     C_R   0.186096 0.634837 0.524349 -0.114058
C75   C     C_R   0.235880 0.790914 0.527408 -0.096778
C76   C     C_R   0.227666 0.207035 0.510337 -0.093730
C77   C     C_R   0.772353 0.792968 0.489702 -0.093719
C78   C     C_R   0.302869 0.751413 0.498453 0.027741
C79   C     C_R   0.697130 0.248588 0.501545 0.027754
C80   C     C_R   0.697287 0.751000 0.501885 0.027488
C81   C     C_R   0.302713 0.249000 0.498114 0.027493
C82   C     C_R   0.802870 0.251412 0.498456 0.027760
C83   C     C_R   0.197129 0.748588 0.501542 0.027761
C84   C     C_R   0.197286 0.251000 0.501883 0.027503
C85   C     C_R   0.813882 0.365157 0.475603 -0.114057
C86   C     C_R   0.802714 0.749001 0.498117 0.027491
C87   C     C_R   0.288490 0.792952 0.525794 0.007493
C88   C     C_R   0.711511 0.207048 0.474209 0.007494
C89   C     C_R   0.719957 0.794543 0.492035 0.010120
C90   C     C_R   0.280060 0.205459 0.508001 0.010123
C91   C     C_R   0.788488 0.292951 0.525791 0.007495
C92   C     C_R   0.211506 0.707051 0.474197 0.007488
C93   C     C_R   0.219935 0.294540 0.491990 0.010116
C94   C     C_R   0.780044 0.705458 0.507968 0.010120
C95   C     C_1   0.999977 0.931032 0.499977 0.024979
C96   C     C_R   0.793961 0.642990 0.427453 -0.120292
C97   C     C_1   0.000023 0.068968 0.500023 0.024976
C98   C     C_1   0.499977 0.431032 0.499977 0.024966
C99   C     C_1   0.500023 0.568967 0.500023 0.024970
C100  C     C_1   0.999988 0.974528 0.499989 -0.019761
C101  C     C_1   0.000011 0.025472 0.500011 -0.019763
C102  C     C_1   0.499989 0.474528 0.499989 -0.019772
C103  C     C_1   0.500011 0.525472 0.500011 -0.019770
C104  C     C_R   0.999992 0.620703 0.499939 0.501846
C105  C     C_R   0.000008 0.379297 0.500061 0.501849
C106  C     C_R   0.499992 0.120703 0.499939 0.501845
C107  C     C_R   0.206021 0.357046 0.572452 -0.120327
C108  C     C_R   0.500008 0.879297 0.500061 0.501839
C109  C     C_R   0.859389 0.749671 0.499400 0.503815
C110  C     C_R   0.140612 0.250330 0.500602 0.503840
C111  C     C_R   0.140765 0.749361 0.500870 0.508564
C112  C     C_R   0.859235 0.250639 0.499130 0.508559
C113  C     C_R   0.359388 0.249670 0.499398 0.503825
C114  C     C_R   0.640611 0.750329 0.500600 0.503812
C115  C     C_R   0.640765 0.249361 0.500870 0.508554
C116  C     C_R   0.359235 0.750639 0.499130 0.508541
C117  C     C_R   0.870744 0.749943 0.241419 0.509240
C118  C     C_R   0.686108 0.134844 0.524388 -0.114041
C119  C     C_R   0.129256 0.250057 0.758581 0.509245
C120  C     C_R   0.129258 0.749963 0.758548 0.508853
C121  C     C_R   0.870742 0.250037 0.241452 0.508856
C122  C     C_R   0.370744 0.249943 0.241419 0.509243
C123  C     C_R   0.629256 0.750057 0.758581 0.509236
C124  C     C_R   0.629258 0.249963 0.758548 0.508854
C125  C     C_R   0.370742 0.750037 0.241452 0.508852
C126  C     C_1   0.181014 0.749953 0.862094 0.032720
C127  C     C_1   0.818986 0.250047 0.137906 0.032725
C128  C     C_1   0.819024 0.749907 0.137889 0.032241
Cl1   Cl    Cl    0.109624 0.673010 0.260754 -0.564850
Cl2   Cl    Cl    0.890357 0.327022 0.739215 -0.564825
Cl3   Cl    Cl    0.865151 0.644416 0.696059 -0.562154
Cl4   Cl    Cl    0.134702 0.355490 0.303774 -0.562129
Cl5   Cl    Cl    0.609663 0.172971 0.260788 -0.564833
Cl6   Cl    Cl    0.390281 0.827059 0.739196 -0.564857
Cl7   Cl    Cl    0.365214 0.144458 0.696149 -0.562144
Cl8   Cl    Cl    0.634873 0.855594 0.303957 -0.562157
H1    H     H_    0.075700 0.540148 0.393338 0.113926
H2    H     H_    0.840827 0.427867 0.439714 0.117079
H3    H     H_    0.810021 0.587808 0.364253 0.121371
H4    H     H_    0.189953 0.412256 0.635601 0.121374
H5    H     H_    0.659158 0.072134 0.560271 0.117080
H6    H     H_    0.340897 0.927840 0.439749 0.117077
H7    H     H_    0.310056 0.087777 0.364354 0.121373
H8    H     H_    0.689966 0.912188 0.635742 0.121373
H9    H     H_    0.222077 0.648616 0.597449 0.114212
H10   H     H_    0.777906 0.351368 0.402511 0.114218
H11   H     H_    0.764393 0.665852 0.364268 0.117246
H12   H     H_    0.924241 0.459869 0.606558 0.113933
H13   H     H_    0.235636 0.334216 0.635685 0.117253
H14   H     H_    0.722075 0.148635 0.597478 0.114214
H15   H     H_    0.277972 0.851344 0.402540 0.114201
H16   H     H_    0.264400 0.165820 0.364315 0.117250
H17   H     H_    0.735590 0.834143 0.635725 0.117244
H18   H     H_    0.055575 0.584276 0.263505 0.156970
H19   H     H_    0.944377 0.415758 0.736415 0.156978
H20   H     H_    0.900681 0.559651 0.651615 0.147568
H21   H     H_    0.099121 0.440269 0.348112 0.147578
H22   H     H_    0.555644 0.084233 0.263583 0.156986
H23   H     H_    0.877910 0.534744 0.507372 0.112861
H24   H     H_    0.444317 0.915787 0.736402 0.156987
H25   H     H_    0.400771 0.059685 0.651762 0.147576
H26   H     H_    0.599344 0.940358 0.348403 0.147570
H27   H     H_    0.275994 0.676974 0.453232 0.159156
H28   H     H_    0.723998 0.323028 0.546751 0.159161
H29   H     H_    0.708919 0.673625 0.515755 0.156023
H30   H     H_    0.291041 0.326371 0.484166 0.155998
H31   H     H_    0.776003 0.176971 0.453250 0.159167
H32   H     H_    0.223999 0.823028 0.546755 0.159194
H33   H     H_    0.208952 0.173628 0.515821 0.156029
H34   H     H_    0.121946 0.465245 0.492366 0.112855
H35   H     H_    0.791083 0.826376 0.484249 0.156031
H36   H     H_    0.575764 0.040126 0.393432 0.113934
H37   H     H_    0.424251 0.959868 0.606574 0.113923
H38   H     H_    0.377988 0.034747 0.507523 0.112857
H39   H     H_    0.622099 0.965259 0.492636 0.112861
H40   H     H_    0.159132 0.572123 0.560203 0.117082
O1    O     O_3   0.000000 0.749990 0.500000 -0.452847
O2    O     O_R   0.441770 0.643730 0.444290 -0.531146
O3    O     O_R   0.441770 0.356270 0.444290 -0.528787
O4    O     O_R   0.558230 0.643730 0.555710 -0.528773
O5    O     O_R   0.997500 0.643710 0.555730 -0.529150
O6    O     O_R   0.002500 0.356290 0.444270 -0.529167
O7    O     O_R   0.002500 0.643710 0.444270 -0.535016
O8    O     O_R   0.997500 0.356290 0.555730 -0.535003
O9    O     O_R   0.497500 0.143710 0.555730 -0.529159
O10   O     O_R   0.502500 0.856290 0.444270 -0.529149
O11   O     O_R   0.502500 0.143710 0.444270 -0.535004
O12   O     O_3   0.000000 0.250010 0.500000 -0.452846
O13   O     O_R   0.497500 0.856290 0.555730 -0.535009
O14   O     O_R   0.856330 0.777850 0.444260 -0.533681
O15   O     O_R   0.143670 0.222150 0.555740 -0.533693
O16   O     O_R   0.143670 0.777850 0.555740 -0.536600
O17   O     O_R   0.856330 0.222150 0.444260 -0.536610
O18   O     O_R   0.356330 0.277850 0.444260 -0.533704
O19   O     O_R   0.643670 0.722150 0.555740 -0.533683
O20   O     O_R   0.643670 0.277850 0.555740 -0.536611
O21   O     O_R   0.356330 0.722150 0.444260 -0.536612
O22   O     O_R   0.087950 0.722120 0.444280 -0.522367
O23   O     O_3   0.500000 0.249990 0.500000 -0.452841
O24   O     O_R   0.912050 0.277880 0.555720 -0.522362
O25   O     O_R   0.912050 0.722120 0.555720 -0.519073
O26   O     O_R   0.087950 0.277880 0.444280 -0.519066
O27   O     O_R   0.587950 0.222120 0.444280 -0.522365
O28   O     O_R   0.412050 0.777880 0.555720 -0.522376
O29   O     O_R   0.412050 0.222120 0.555720 -0.519072
O30   O     O_R   0.587950 0.777880 0.444280 -0.519075
O31   O     O_R   0.863370 0.777840 0.287440 -0.526679
O32   O     O_R   0.136630 0.222160 0.712560 -0.526678
O33   O     O_R   0.136630 0.777840 0.712560 -0.526611
O34   O     O_3   0.500000 0.750010 0.500000 -0.452840
O35   O     O_R   0.863370 0.222160 0.287440 -0.526617
O36   O     O_R   0.363370 0.277840 0.287440 -0.526681
O37   O     O_R   0.636630 0.722160 0.712560 -0.526678
O38   O     O_R   0.636630 0.277840 0.712560 -0.526617
O39   O     O_R   0.363370 0.722160 0.287440 -0.526619
O40   O     O_R   0.924090 0.722120 0.287440 -0.525874
O41   O     O_R   0.075910 0.277880 0.712560 -0.525871
O42   O     O_R   0.075910 0.722120 0.712560 -0.525887
O43   O     O_R   0.924090 0.277880 0.287440 -0.525876
O44   O     O_R   0.424090 0.222120 0.287440 -0.525871
O45   O     O_R   0.058230 0.856270 0.555710 -0.531138
O46   O     O_R   0.575910 0.777880 0.712560 -0.525880
O47   O     O_R   0.575910 0.222120 0.712560 -0.525881
O48   O     O_R   0.424090 0.777880 0.287440 -0.525886
O49   O     O_R   0.941770 0.143730 0.444290 -0.531138
O50   O     O_R   0.941770 0.856270 0.444290 -0.528772
O51   O     O_R   0.058230 0.143730 0.555710 -0.528780
O52   O     O_R   0.558230 0.356270 0.555710 -0.531138
Zn1   Zn    Zn3+2 0.996430 0.710180 0.579620 0.970899
Zn2   Zn    Zn3+2 0.083190 0.210200 0.579630 0.971130
Zn3   Zn    Zn3+2 0.083190 0.789800 0.579630 0.969006
Zn4   Zn    Zn3+2 0.916810 0.210200 0.420370 0.968995
Zn5   Zn    Zn3+2 0.416810 0.289800 0.420370 0.971109
Zn6   Zn    Zn3+2 0.583190 0.710200 0.579630 0.971127
Zn7   Zn    Zn3+2 0.583190 0.289800 0.579630 0.968990
Zn8   Zn    Zn3+2 0.416810 0.710200 0.420370 0.968977
Zn9   Zn    Zn3+2 0.003570 0.289820 0.420380 0.970903
Zn10  Zn    Zn3+2 0.003570 0.710180 0.420380 0.965932
Zn11  Zn    Zn3+2 0.996430 0.289820 0.579620 0.965947
Zn12  Zn    Zn3+2 0.496430 0.210180 0.579620 0.970898
Zn13  Zn    Zn3+2 0.503570 0.789820 0.420380 0.970896
Zn14  Zn    Zn3+2 0.503570 0.210180 0.420380 0.965942
Zn15  Zn    Zn3+2 0.496430 0.789820 0.579620 0.965923
Zn16  Zn    Zn3+2 0.916810 0.789800 0.420370 0.971132

loop_
_geom_bond_atom_site_label_1
_geom_bond_atom_site_label_2
_ccdc_geom_bond_type
C1    O50   A    
C78   C87   A    
O16   Zn3   S    
C99   C103  T    
C115  O20   A    
C41   O51   A    
C51   H18   S    
O14   Zn16  S    
C79   C115  S    
C1    C95   S    
C31   C66   A    
C24   C42   A    
C113  O18   A    
C74   H9    S    
C70   C91   A    
C39   C87   S    
C57   C66   A    
C73   H31   S    
C43   C51   A    
O23   Zn12  S    
C76   C84   A    
O26   Zn9   S    
O36   Zn5   S    
C48   C57   A    
C73   C88   A    
C71   C94   A    
C124  O38   A    
C83   C92   A    
C106  O9    A    
C77   C89   A    
C9    C127  T    
C30   H5    S    
C122  O44   A    
C50   C59   A    
C82   C112  S    
C108  O10   A    
C17   C104  S    
C106  O11   A    
C121  C127  S    
O47   Zn12  S    
O23   Zn5   S    
C111  O22   A    
C54   H20   S    
C75   C87   A    
C120  C126  S    
O48   Zn13  S    
O9    Zn12  S    
C20   C25   T    
C67   H38   S    
C44   Cl2   S    
C40   C49   A    
C47   C56   A    
C110  O15   A    
C2    H15   S    
C4    C124  S    
C118  H14   S    
O33   Zn3   S    
C80   C89   A    
C27   C85   A    
C79   C88   A    
C13   C40   A    
C56   H22   S    
O12   Zn9   S    
O22   Zn10  S    
C6    C15   T    
C11   C15   S    
C2    C39   A    
C52   O52   A    
C13   H16   S    
C52   O3    A    
O38   Zn7   S    
O5    Zn1   S    
C32   H7    S    
C115  O27   A    
C46   C55   A    
O13   Zn15  S    
C121  O35   A    
C63   C99   S    
C66   H37   S    
C75   H32   S    
O34   Zn8   S    
C105  O6    A    
C4    C12   T    
C69   C92   A    
C86   C94   A    
O41   Zn11  S    
O8    Zn11  S    
C72   C81   A    
O3    Zn5   S    
C60   H1    S    
O25   Zn1   S    
C104  O5    A    
C49   Cl7   S    
C29   C64   A    
O4    Zn6   S    
C111  O16   A    
C21   C22   S    
C47   Cl5   S    
C63   O4    A    
C121  O43   A    
C69   C78   A    
C76   H33   S    
C28   H3    S    
C53   C61   A    
O11   Zn14  S    
C10   C128  T    
C44   C53   A    
C71   C80   A    
C116  O28   A    
C68   H39   S    
C34   C92   S    
C35   C91   S    
C33   H8    S    
C123  O46   A    
C41   O49   A    
C27   H2    S    
C114  O19   A    
C34   C43   A    
C65   H36   S    
O49   Zn4   S    
C43   Cl1   S    
C86   C109  S    
C85   H10   S    
O12   Zn2   S    
O35   Zn4   S    
C7    C123  S    
O27   Zn14  S    
C95   C100  T    
C54   C62   A    
C98   C102  T    
C13   C32   A    
O44   Zn14  S    
C84   C110  S    
C82   C91   A    
C114  O30   A    
C38   C88   S    
C2    C31   A    
C27   C61   A    
C117  O40   A    
C19   C23   T    
O6    Zn9   S    
O42   Zn1   S    
O1    Zn3   S    
O23   Zn7   S    
C59   C68   A    
C36   C96   A    
O50   Zn16  S    
O52   Zn7   S    
C124  O47   A    
C26   H40   S    
C109  O14   A    
C77   H35   S    
C122  O36   A    
C55   C64   A    
O45   Zn3   S    
C38   C47   A    
C37   C93   S    
C36   C45   A    
O19   Zn6   S    
C35   C44   A    
C63   O2    A    
O29   Zn12  S    
C5    C14   T    
C3    C119  S    
C34   C74   A    
C32   C67   A    
C81   C90   A    
C8    C126  T    
C7    C16   T    
C1    O45   A    
C57   H24   S    
C42   C50   A    
C77   C86   A    
C53   H19   S    
C123  O37   A    
O34   Zn6   S    
C83   C111  S    
C108  O13   A    
O30   Zn13  S    
O21   Zn8   S    
O51   Zn2   S    
C72   C93   A    
O18   Zn5   S    
C5    C125  S    
O37   Zn6   S    
C73   C82   A    
O28   Zn15  S    
C24   H17   S    
O2    Zn8   S    
C76   C90   A    
C125  O48   A    
C48   Cl6   S    
C120  O33   A    
C29   H4    S    
C35   C85   A    
C8    C14   S    
O32   Zn2   S    
C70   C79   A    
C18   C22   T    
C72   H30   S    
C61   H12   S    
C78   C116  S    
O39   Zn8   S    
C69   H27   S    
O34   Zn13  S    
C80   C114  S    
C117  O31   A    
C70   H28   S    
C45   C54   A    
O34   Zn15  S    
O10   Zn13  S    
O46   Zn15  S    
C96   H11   S    
C45   Cl3   S    
C51   C60   A    
O20   Zn7   S    
C30   C118  A    
O1    Zn16  S    
C24   C33   A    
C110  O26   A    
C28   C96   A    
C42   C89   S    
O40   Zn10  S    
O43   Zn9   S    
C31   H6    S    
C109  O25   A    
C18   C105  S    
O7    Zn10  S    
O12   Zn11  S    
C10   C16   S    
O31   Zn16  S    
C46   Cl4   S    
C116  O21   A    
C125  O39   A    
C75   C83   A    
C26   C60   A    
O15   Zn2   S    
C107  H13   S    
C52   C98   S    
C100  C101  S    
C26   C74   A    
C41   C97   S    
C84   C93   A    
C23   C25   S    
C105  O8    A    
C64   H34   S    
C102  C103  S    
C117  C128  S    
C17   C21   T    
C112  O17   A    
O24   Zn11  S    
C30   C65   A    
C3    C11   T    
C9    C12   S    
C49   C58   A    
C38   C118  A    
C19   C106  S    
C36   C94   S    
C58   C67   A    
C55   H21   S    
C104  O7    A    
C33   C68   A    
C120  O42   A    
C71   H29   S    
C37   C107  A    
C81   C113  S    
C119  O41   A    
O1    Zn1   S    
C6    C122  S    
C62   H23   S    
O1    Zn10  S    
C59   H26   S    
C50   Cl8   S    
C119  O32   A    
O17   Zn4   S    
C40   C90   S    
C37   C46   A    
O12   Zn4   S    
C58   H25   S    
C29   C107  A    
C112  O24   A    
C97   C101  T    
C56   C65   A    
O23   Zn14  S    
C113  O29   A    
C39   C48   A    
C20   C108  S    
C28   C62   A    
