data_mof_unit_47949.cif
_audit_creation_date              2012-10-26T21:02:57-0400
_audit_creation_method            fapswitch 2.2
_symmetry_space_group_name_H-M    P1
_symmetry_Int_Tables_number       1
_space_group_crystal_system       triclinic
_cell_length_a                    12.435835
_cell_length_b                    13.320066
_cell_length_c                    23.413679
_cell_angle_alpha                 74.931753
_cell_angle_beta                  101.241281
_cell_angle_gamma                 117.580714
_cell_volume                      3306.82189862

loop_
_atom_site_label
_atom_site_type_symbol
_atom_type_description
_atom_site_fract_x
_atom_site_fract_y
_atom_site_fract_z
_atom_type_partial_charge
C1    C     C_R   0.853963 0.285978 0.509643 0.557579
C2    C     C_R   0.085879 0.487535 0.890516 0.402682
C3    C     C_R   0.967289 0.555331 0.752538 0.301968
C4    C     C_R   0.998686 0.497397 0.608880 0.555483
C5    C     C_R   0.971749 0.565655 0.691752 -0.131654
C6    C     C_R   0.992636 0.486299 0.672117 -0.025127
C7    C     C_R   0.004485 0.393466 0.712728 -0.122827
C8    C     C_R   0.995574 0.378384 0.773638 0.005492
C9    C     C_R   0.979958 0.462279 0.793371 0.276850
C10   C     C_R   0.917535 0.372174 0.255675 -0.065560
C11   C     C_R   0.921528 0.385596 0.313246 -0.156812
C12   C     C_R   0.759135 0.381496 0.023640 -0.118804
C13   C     C_R   0.995092 0.492751 0.329790 0.029479
C14   C     C_R   0.065953 0.587963 0.288073 -0.032528
C15   C     C_R   0.059024 0.573776 0.229999 -0.045226
C16   C     C_R   0.144864 0.713516 0.493998 0.578546
C17   C     C_R   0.985956 0.466320 0.213641 0.218429
C18   C     C_R   0.274637 0.032144 0.432752 0.001525
C19   C     C_R   0.226023 0.837619 0.489409 0.022152
C20   C     C_R   0.792308 0.099932 0.582581 0.170773
C21   C     C_R   0.695268 0.014269 0.616224 0.280420
C22   C     C_R   0.575698 0.995098 0.595147 0.263698
C23   C     C_R   0.755911 0.379772 0.963444 0.248488
C24   C     C_R   0.548436 0.036051 0.534241 -0.079165
C25   C     C_R   0.644306 0.126562 0.502103 -0.097647
C26   C     C_R   0.429198 0.991953 0.504538 -0.045806
C27   C     C_R   0.399636 0.064021 0.453532 0.064228
C28   C     C_R   0.000077 0.500529 0.391381 0.528039
C29   C     C_R   0.496094 0.159496 0.423383 0.236468
C30   C     C_R   0.616466 0.182200 0.445469 -0.094996
C31   C     C_R   0.342021 0.874874 0.520013 0.211151
C32   C     C_R   0.189915 0.918004 0.450911 -0.199357
C33   C     C_R   0.766168 0.163882 0.528036 -0.000678
C34   C     C_R   0.865882 0.413981 0.938649 0.062347
C35   C     C_R   0.350826 0.333219 0.598781 -0.064535
C36   C     C_R   0.750441 0.624480 0.411234 0.049630
C37   C     C_R   0.638067 0.610979 0.379856 0.213369
C38   C     C_R   0.532656 0.543186 0.409337 -0.078729
C39   C     C_R   0.539293 0.502330 0.471141 -0.054669
C40   C     C_R   0.088123 0.480081 0.131712 0.397550
C41   C     C_R   0.650476 0.497143 0.496576 0.168458
C42   C     C_R   0.438888 0.456982 0.507395 -0.016886
C43   C     C_R   0.444200 0.382104 0.561892 -0.026431
C44   C     C_R   0.545110 0.358473 0.580686 -0.163745
C45   C     C_R   0.976818 0.447245 0.975142 -0.074701
C46   C     C_R   0.647773 0.417454 0.549503 -0.071685
C47   C     C_R   0.340748 0.491142 0.495775 0.107737
C48   C     C_R   0.252295 0.359504 0.584192 0.398197
C49   C     C_R   0.873431 0.420833 0.119340 0.406713
C50   C     C_R   0.869208 0.415320 0.059739 -0.003260
C51   C     C_R   0.978052 0.446694 0.035695 -0.040520
C52   C     C_R   0.088668 0.479033 0.072013 0.038343
C53   C     C_3   0.149904 0.704561 0.303831 -0.261829
C54   C     C_3   0.080145 0.775627 0.300270 -0.303948
C55   C     C_3   0.167536 0.901870 0.301171 -0.446605
C56   C     C_R   0.087293 0.482720 0.951088 0.026677
C57   C     C_3   0.226176 0.114310 0.391881 -0.206909
C58   C     C_3   0.249593 0.214788 0.420651 -0.275950
C59   C     C_3   0.196352 0.294006 0.380173 -0.434289
C60   C     C_3   0.349972 0.595527 0.446376 -0.208238
C61   C     C_3   0.461757 0.708238 0.456877 -0.297119
C62   C     C_3   0.457746 0.813199 0.412206 -0.446302
C63   C     C_3   0.000701 0.274544 0.818549 -0.243285
C64   C     C_3   0.999090 0.179375 0.792214 -0.313442
C65   C     C_3   0.995362 0.076221 0.840697 -0.417494
C66   C     C_R   0.196798 0.513841 0.987840 -0.113800
C67   C     C_R   0.197370 0.511277 0.047738 -0.117169
C68   C     C_R   0.869422 0.417257 0.878195 0.460401
Cu1   Cu    Cu3+1 0.098270 0.475410 0.513370 0.976939
Cu2   Cu    Cu3+1 0.901730 0.524590 0.486630 0.906725
H1    H     H_    0.674943 0.356643 0.042098 0.156091
H2    H     H_    0.721122 0.394794 0.567148 0.176925
H3    H     H_    0.282581 0.540646 0.970414 0.174487
H4    H     H_    0.283553 0.536346 0.074704 0.173653
H5    H     H_    0.961767 0.636818 0.659936 0.122481
H6    H     H_    0.017994 0.332336 0.695848 0.146137
H7    H     H_    0.861611 0.288461 0.243787 0.143568
H8    H     H_    0.236034 0.908647 0.340026 0.164728
H9    H     H_    0.215657 0.942464 0.260009 0.171133
H10   H     H_    0.115700 0.949363 0.303747 0.139766
H11   H     H_    0.018664 0.771417 0.258614 0.176464
H12   H     H_    0.868306 0.311815 0.345289 0.103256
H13   H     H_    0.023922 0.739989 0.338549 0.168060
H14   H     H_    0.196219 0.694123 0.348982 0.129829
H15   H     H_    0.223126 0.752428 0.272930 0.155557
H16   H     H_    0.550368 0.287877 0.355872 0.337035
H17   H     H_    0.241027 0.333554 0.337996 0.184022
H18   H     H_    0.096710 0.244903 0.370174 0.157901
H19   H     H_    0.211677 0.363951 0.402528 0.160025
H20   H     H_    0.206752 0.179940 0.463361 0.170672
H21   H     H_    0.348758 0.266591 0.430293 0.203004
H22   H     H_    0.263315 0.145646 0.348003 0.213448
H23   H     H_    0.110897 0.646512 0.197124 0.137519
H24   H     H_    0.125991 0.067879 0.381849 0.113188
H25   H     H_    0.455308 0.811919 0.561776 0.337858
H26   H     H_    0.917455 0.117243 0.648554 0.326858
H27   H     H_    0.419144 0.956548 0.620070 0.336614
H28   H     H_    0.788174 0.941910 0.671967 0.324754
H29   H     H_    0.579468 0.325436 0.952700 0.323746
H30   H     H_    0.091248 0.310297 0.604120 0.396828
H31   H     H_    0.460820 0.805455 0.366512 0.172243
H32   H     H_    0.373492 0.820764 0.414210 0.146201
H33   H     H_    0.537342 0.892990 0.422503 0.155438
H34   H     H_    0.096628 0.889358 0.431365 0.129801
H35   H     H_    0.464746 0.718847 0.502299 0.189207
H36   H     H_    0.548509 0.706756 0.453922 0.170806
H37   H     H_    0.342052 0.579686 0.401766 0.098709
H38   H     H_    0.272625 0.613039 0.440891 0.212470
H39   H     H_    0.710445 0.701678 0.306106 0.316735
H40   H     H_    0.944098 0.694591 0.739424 0.325705
H41   H     H_    0.076607 0.103292 0.873154 0.166732
H42   H     H_    0.911637 0.037899 0.864247 0.174708
H43   H     H_    0.995019 0.009371 0.820438 0.175717
H44   H     H_    0.917433 0.149123 0.760197 0.183249
H45   H     H_    0.688952 0.246668 0.418472 0.123316
H46   H     H_    0.082504 0.213662 0.768867 0.195835
H47   H     H_    0.084354 0.305144 0.849257 0.186724
H48   H     H_    0.920814 0.235263 0.845088 0.162687
H49   H     H_    0.547215 0.297907 0.621583 0.130285
H50   H     H_    0.354458 0.274186 0.640132 0.145778
H51   H     H_    0.832824 0.672292 0.388572 0.106521
H52   H     H_    0.447222 0.517406 0.382630 0.145452
N1    N     N_R   0.981977 0.453711 0.153929 -0.395358
N2    N     N_R   0.978164 0.454376 0.855650 -0.395550
N3    N     N_R   0.246280 0.438190 0.533650 -0.239200
N4    N     N_R   0.754320 0.561190 0.466710 -0.260382
O1    O     O_R   0.972510 0.318130 0.516820 -0.469727
O2    O     O_R   0.082990 0.479280 0.429170 -0.541369
O3    O     O_R   0.917010 0.520800 0.406580 -0.508003
O4    O     O_2   0.193000 0.507564 0.167296 -0.498415
O5    O     O_3   0.473052 0.222873 0.369706 -0.727764
O6    O     O_3   0.368436 0.792434 0.561394 -0.636094
O7    O     O_3   0.912098 0.131088 0.604671 -0.703650
O8    O     O_3   0.488442 0.936721 0.635430 -0.588967
O9    O     O_3   0.713950 0.952183 0.671250 -0.634733
O10   O     O_3   0.646605 0.346314 0.928483 -0.616978
O11   O     O_3   0.165928 0.306493 0.624273 -0.693901
O12   O     O_2   0.770270 0.395913 0.142127 -0.494712
O13   O     O_3   0.627769 0.657251 0.320220 -0.687783
O14   O     O_3   0.951456 0.635007 0.773471 -0.647930
O15   O     O_2   0.765741 0.384307 0.841917 -0.389970
O16   O     O_2   0.191449 0.525862 0.866381 -0.473264
O17   O     O_R   0.806530 0.359650 0.494230 -0.527042
O18   O     O_R   0.082990 0.479200 0.593420 -0.474714
O19   O     O_R   0.917010 0.520720 0.570830 -0.520336
O20   O     O_R   0.193470 0.640350 0.505770 -0.466341
O21   O     O_R   0.027490 0.681870 0.483180 -0.516551

loop_
_geom_bond_atom_site_label_1
_geom_bond_atom_site_label_2
_ccdc_geom_bond_type
C64   H46   S    
C57   H22   S    
C27   C29   A    
C6    C7    A    
C19   C31   A    
C68   N2    A    
C1    C33   S    
C7    C8    A    
C39   C41   A    
C29   O5    S    
C53   C54   S    
Cu1   O18   S    
C49   O12   S    
C12   C23   A    
Cu2   O17   S    
C29   C30   A    
C48   O11   S    
C22   O8    S    
C16   O21   A    
C3    C9    A    
C36   C37   A    
C24   C26   A    
C38   C39   A    
C63   H47   S    
H16   O5    S    
C19   C32   A    
C10   C17   A    
C49   N1    A    
C9    N2    S    
C16   O20   A    
C28   O3    A    
C59   H19   S    
C59   H18   S    
C65   H41   S    
C47   C60   S    
C17   N1    S    
Cu1   O2    S    
C8    C9    A    
C41   C46   A    
C32   H34   S    
C13   C28   S    
C20   O7    S    
C35   C43   A    
C58   H21   S    
C46   H2    S    
C60   H38   S    
C62   H31   S    
Cu2   N4    S    
C66   C67   A    
C48   N3    A    
Cu1   N3    S    
C26   C31   A    
C13   C14   A    
Cu1   O20   S    
C35   H50   S    
Cu1   Cu2   S    
H27   O8    S    
C35   C48   A    
C54   H13   S    
C10   H7    S    
C44   C46   A    
C47   N3    A    
C39   C42   A    
C30   H45   S    
C11   H12   S    
C64   H44   S    
C51   C52   A    
C24   C25   A    
C45   C56   A    
C4    C6    S    
H30   O11   S    
C34   C68   A    
C67   H4    S    
C55   H8    S    
C44   H49   S    
C58   C59   S    
C40   C52   A    
C66   H3    S    
H28   O9    S    
Cu2   O3    S    
C60   C61   S    
C5    H5    S    
C43   C44   A    
C65   H42   S    
C15   H23   S    
C37   C38   A    
C1    O17   A    
C55   H9    S    
C18   C57   S    
C23   C34   A    
C50   C51   A    
C26   C27   A    
C68   O15   S    
Cu2   O19   S    
C38   H52   S    
C61   H36   S    
C58   H20   S    
H26   O7    S    
C60   H37   S    
C34   C45   A    
C20   C33   A    
C23   O10   S    
C12   H1    S    
C57   H24   S    
C53   H14   S    
H25   O6    S    
C2    O16   S    
C22   C24   A    
C18   C32   A    
C42   C43   A    
C61   H35   S    
C62   H33   S    
C25   C30   A    
C15   C17   A    
C40   N1    A    
C40   O4    S    
C54   C55   S    
C65   H43   S    
C41   N4    A    
C36   N4    A    
C18   C27   A    
C1    O1    A    
C52   C67   A    
C3    C5    A    
C4    O18   A    
C12   C50   A    
C7    H6    S    
C3    O14   S    
C2    N2    A    
H39   O13   S    
C64   C65   S    
H40   O14   S    
C36   H51   S    
C2    C56   A    
C55   H10   S    
C11   C13   A    
C57   C58   S    
C5    C6    A    
C16   C19   S    
C56   C66   A    
C4    O19   A    
H29   O10   S    
C42   C47   A    
C61   C62   S    
C59   H17   S    
C10   C11   A    
C8    C63   S    
C63   C64   S    
C14   C53   S    
C20   C21   A    
Cu1   O1    S    
C49   C50   A    
C37   O13   S    
C45   C51   A    
C14   C15   A    
C53   H15   S    
Cu2   O21   S    
C21   C22   A    
C21   O9    S    
C54   H11   S    
C31   O6    S    
C28   O2    A    
C63   H48   S    
C25   C33   A    
C62   H32   S    
