data_mof_unit_55361.cif
_audit_creation_date              2013-03-05T15:44:57-0500
_audit_creation_method            fapswitch 2.2
_symmetry_space_group_name_H-M    P1
_symmetry_Int_Tables_number       1
_space_group_crystal_system       triclinic
_cell_length_a                    10.88146
_cell_length_b                    10.965659
_cell_length_c                    18.859436
_cell_angle_alpha                 89.693629
_cell_angle_beta                  90.541478
_cell_angle_gamma                 119.72742
_cell_volume                      1954.10570649

loop_
_atom_site_label
_atom_site_type_symbol
_atom_site_description
_atom_site_fract_x
_atom_site_fract_y
_atom_site_fract_z
_atom_type_partial_charge
O1    O     O_R   0.766500 0.250040 0.579790 -0.522258
O2    O     O_R   0.798570 0.516780 0.574780 -0.514595
C1    C     C_R   0.864120 0.637622 0.603225 0.587275
O3    O     O_R   0.984000 0.732950 0.581090 -0.432409
O4    O     O_R   0.218600 0.700890 0.574760 -0.507603
C2    C     C_R   0.268396 0.630511 0.604302 0.537242
O5    O     O_R   0.249390 0.515350 0.579940 -0.521574
O6    O     O_R   0.982790 0.280900 0.573700 -0.512958
C3    C     C_R   0.864520 0.226523 0.602734 0.561216
O7    O     O_R   0.766600 0.251130 0.419260 -0.525491
O8    O     O_R   0.798660 0.517790 0.425980 -0.482474
C4    C     C_R   0.866018 0.637434 0.397032 0.587232
O9    O     O_R   0.984100 0.734040 0.420570 -0.519951
O10   O     O_R   0.218690 0.701900 0.425960 -0.523756
C5    C     C_R   0.274784 0.636898 0.397816 0.582525
O11   O     O_R   0.249490 0.516440 0.419420 -0.446365
O12   O     O_R   0.982880 0.281910 0.424890 -0.494113
C6    C     C_R   0.859997 0.224054 0.397656 0.558550
Cr1   Cr    Cr6+3 0.791660 0.390250 0.499930 1.061841
Cr2   Cr    Cr6+3 0.098520 0.708290 0.500540 1.071136
Cr3   Cr    Cr6+3 0.109770 0.401430 0.499480 1.080720
O13   O     O_3   0.999980 0.499990 0.499980 -0.282684
C7    C     C_R   0.195833 0.641046 0.725028 -0.110264
H1    H     H_    0.092070 0.613783 0.704144 0.112873
C8    C     C_R   0.220379 0.656108 0.798109 -0.010743
C9    C     C_R   0.356084 0.690479 0.823009 0.039925
C10   C     C_R   0.462273 0.707516 0.775703 -0.137135
H2    H     H_    0.566387 0.735346 0.795098 0.099895
C11   C     C_R   0.435102 0.687177 0.703760 -0.150110
H3    H     H_    0.517210 0.697730 0.668009 0.141197
C12   C     C_R   0.302821 0.656657 0.678473 0.018056
C13   C     C_R   0.826710 0.151105 0.820692 -0.007986
C14   C     C_R   0.083788 0.268472 0.836386 -0.093478
C15   C     C_R   0.218308 0.322096 0.808405 -0.096892
C16   C     C_R   0.234721 0.316154 0.736037 -0.083851
C17   C     C_R   0.116963 0.261411 0.691156 -0.021688
C18   C     C_R   0.977870 0.211328 0.717560 0.010829
C19   C     C_R   0.962444 0.208493 0.791923 -0.022848
H4    H     H_    0.309755 0.367213 0.843164 0.190591
H5    H     H_    0.339276 0.353865 0.714388 0.157078
H6    H     H_    0.076072 0.277786 0.893041 0.154094
C20   C     C_R   0.718933 0.095208 0.702711 -0.003881
C21   C     C_R   0.705760 0.111251 0.775132 -0.008347
C22   C     C_R   0.595938 0.024709 0.659719 -0.105114
C23   C     C_R   0.464109 0.993508 0.685219 -0.086245
C24   C     C_R   0.451747 0.028758 0.754532 0.023006
C25   C     C_R   0.571692 0.089025 0.798266 -0.060472
C26   C     C_R   0.854226 0.163159 0.672995 0.032386
H7    H     H_    0.138755 0.251511 0.636649 0.196611
H8    H     H_    0.557442 0.126302 0.848428 0.203023
H9    H     H_    0.372959 0.945627 0.650175 0.180607
H10   H     H_    0.602654 0.998588 0.605096 0.153032
C27   C     C_R   0.739093 0.541570 0.715615 -0.190038
H11   H     H_    0.701206 0.435973 0.696015 0.172518
C28   C     C_R   0.724956 0.560042 0.787425 0.180715
C29   C     C_R   0.786080 0.697473 0.815062 -0.048543
C30   C     C_R   0.851570 0.813285 0.769190 -0.161330
H12   H     H_    0.892902 0.918842 0.789368 0.148869
C31   C     C_R   0.861599 0.793720 0.697082 0.227511
C32   C     C_R   0.813622 0.657922 0.671160 -0.028793
C33   C     C_R   0.399595 0.610027 0.297867 0.207057
C34   C     C_R   0.392806 0.594784 0.224486 -0.016075
C35   C     C_R   0.365190 0.686877 0.181429 -0.023078
C36   C     C_R   0.318881 0.771001 0.213217 -0.175578
H13   H     H_    0.290560 0.835658 0.181107 0.151386
C37   C     C_R   0.301485 0.766100 0.286260 -0.194950
H14   H     H_    0.252852 0.822088 0.309194 0.153606
C38   C     C_R   0.338993 0.683270 0.328488 0.010529
C39   C     C_R   0.701725 0.105694 0.298903 -0.148284
H15   H     H_    0.615267 0.099396 0.329990 0.134154
C40   C     C_R   0.686445 0.094729 0.226224 -0.006043
C41   C     C_R   0.796825 0.096282 0.185087 0.025996
C42   C     C_R   0.925494 0.128401 0.218218 -0.147404
H16   H     H_    0.012661 0.134996 0.187978 0.177116
C43   C     C_R   0.945289 0.159413 0.290245 -0.128906
H17   H     H_    0.048913 0.195557 0.313696 0.181201
C44   C     C_R   0.833762 0.151492 0.330237 0.015246
C45   C     C_R   0.892034 0.782959 0.294355 -0.127157
H18   H     H_    0.953193 0.877329 0.325508 0.144471
C46   C     C_R   0.887519 0.794188 0.222053 -0.138097
H19   H     H_    0.943073 0.897798 0.199157 0.140913
C47   C     C_R   0.812513 0.674162 0.179696 0.009440
C48   C     C_R   0.742521 0.541353 0.210511 -0.151141
H20   H     H_    0.684765 0.448404 0.178228 0.181578
C49   C     C_R   0.749352 0.529183 0.283555 -0.078314
H21   H     H_    0.700440 0.425040 0.306660 0.170073
C50   C     C_R   0.826442 0.650499 0.325404 0.070809
O14   O     O_R   0.895110 0.806860 0.920430 -0.470247
O15   O     O_R   0.872260 0.046970 0.925000 -0.522848
C51   C     C_R   0.803181 0.100958 0.894383 0.548324
O16   O     O_R   0.691430 0.085060 0.918550 -0.509235
O17   O     O_R   0.451490 0.822460 0.925250 -0.498373
C52   C     C_R   0.393948 0.700878 0.897078 0.598254
O18   O     O_R   0.413330 0.603360 0.920440 -0.523570
O19   O     O_R   0.676110 0.626250 0.926750 -0.428860
C53   C     C_R   0.775321 0.726366 0.889647 0.564491
O20   O     O_R   0.895350 0.809870 0.080950 -0.508931
O21   O     O_R   0.872490 0.049760 0.073800 -0.505680
C54   C     C_R   0.772253 0.052112 0.110734 0.547854
O22   O     O_R   0.691680 0.088070 0.079070 -0.428057
O23   O     O_R   0.451720 0.825250 0.074050 -0.498343
C55   C     C_R   0.402096 0.705171 0.106004 0.550175
O24   O     O_R   0.413580 0.606370 0.080960 -0.523900
O25   O     O_R   0.676340 0.629040 0.075550 -0.511805
C56   C     C_R   0.797701 0.696649 0.105336 0.563743
Cr4   Cr    Cr6+3 0.874790 0.925890 0.000070 1.050734
Cr5   Cr    Cr6+3 0.574120 0.948670 0.999300 1.082497
Cr6   Cr    Cr6+3 0.551420 0.625320 0.000920 1.076945
O26   O     O_3   0.666780 0.833290 0.000090 -0.323850
C57   C     C_2   0.314416 0.002137 0.783007 0.264930
H22   H     H_    0.309072 0.039203 0.835527 0.133437
O27   O     O_2   0.205189 0.936176 0.748962 -0.480428
N1    N     N_R   0.656668 0.438536 0.831734 0.084862
O28   O     O_R   0.529440 0.339679 0.815943 -0.422968
O29   O     O_R   0.727385 0.418071 0.881913 -0.311513
N2    N     N_R   0.922277 0.911572 0.650186 0.076880
O30   O     O_R   0.059041 0.989654 0.648193 -0.300631
O31   O     O_R   0.847388 0.914798 0.596766 -0.371234
N3    N     N_R   0.465317 0.550156 0.342011 0.075530
O32   O     O_R   0.427137 0.417612 0.337947 -0.312962
O33   O     O_R   0.549078 0.624389 0.393545 -0.348901
C58   C     C_2   0.401290 0.473896 0.195559 0.322441
H23   H     H_    0.490801 0.489695 0.164801 0.140066
O34   O     O_2   0.304359 0.354450 0.204919 -0.483466
C59   C     C_2   0.102166 0.633193 0.845108 0.259925
H24   H     H_    0.999243 0.602502 0.822119 0.139917
O35   O     O_2   0.117174 0.648181 0.909267 -0.467737
C60   C     C_2   0.560453 0.100297 0.198999 0.249131
H25   H     H_    0.462392 0.047298 0.228098 0.097927
O36   O     O_2   0.569264 0.180491 0.151691 -0.469638

loop_
_geom_bond_atom_site_label_1
_geom_bond_atom_site_label_2
_geom_bond_distance
_ccdc_geom_bond_type
C45   C50   1.390230 A    
O23   Cr5   1.954572 S    
C37   C38   1.406973 A    
C28   C29   1.411716 A    
O14   C53   1.290470 A    
O23   C55   1.296564 A    
C10   C11   1.381428 A    
Cr5   O26   1.970354 S    
C42   H16   1.082542 S    
C39   C44   1.391848 A    
O19   C53   1.300383 A    
C34   C58   1.481036 S    
C60   H25   1.081733 S    
C51   O16   1.231336 A    
O4    Cr2   1.934573 S    
C27   H11   1.084283 S    
C29   C30   1.404071 A    
O8    Cr1   1.944823 S    
C9    C10   1.403426 A    
C18   C19   1.412363 A    
C17   C18   1.423843 A    
C39   H15   1.085883 S    
C49   H21   1.083317 S    
O4    C2    1.266506 A    
C46   H19   1.077625 S    
C45   C46   1.371081 A    
C30   C31   1.391576 A    
C33   N3    1.443646 S    
C23   H9    1.082170 S    
C5    O11   1.273715 A    
Cr6   O26   1.984362 S    
C15   C16   1.384191 A    
C47   C56   1.443912 S    
C39   C40   1.377846 A    
C8    C59   1.483921 S    
C57   H22   1.085592 S    
C13   C51   1.469118 S    
C54   O22   1.269328 A    
O6    C3    1.249162 A    
O15   Cr4   1.945105 S    
C7    H1    1.085107 S    
O24   Cr6   2.074087 S    
C13   C19   1.400567 A    
C4    C50   1.441855 S    
O20   C56   1.255708 A    
C1    C32   1.459685 S    
C22   H10   1.083501 S    
C9    C52   1.441652 S    
C27   C28   1.391610 A    
C2    C12   1.437744 S    
C31   C32   1.400345 A    
Cr3   O13   1.968820 S    
C42   C43   1.390700 A    
C55   O24   1.246325 A    
C20   C22   1.416451 A    
C35   C55   1.467245 S    
O25   C56   1.276170 A    
C27   C32   1.401314 A    
C14   C15   1.387271 A    
C25   H8    1.075097 S    
N3    O33   1.301479 A    
O1    Cr1   2.067075 S    
C49   C50   1.410074 A    
C16   H5    1.082807 S    
C15   H4    1.080540 S    
O10   Cr2   1.954438 S    
Cr1   O13   1.970090 S    
O1    C3    1.286178 A    
C46   C47   1.403603 A    
C45   H18   1.084008 S    
C31   N2    1.428581 S    
C28   N1    1.429569 S    
C8    C9    1.407109 A    
C23   C24   1.391600 A    
O12   Cr3   1.947142 S    
C60   O36   1.219900 D    
C16   C17   1.393122 A    
C36   C37   1.389388 A    
C43   H17   1.083217 S    
C11   H3    1.083643 S    
O16   Cr5   2.074731 S    
O14   Cr4   2.078921 S    
O17   Cr5   1.949420 S    
C48   H20   1.081044 S    
O7    Cr1   2.078625 S    
N3    O32   1.301031 A    
O18   Cr6   2.054642 S    
C34   C35   1.434257 A    
O12   C6    1.266267 A    
C52   O18   1.264510 A    
C20   C26   1.399940 A    
C18   C26   1.440196 A    
C43   C44   1.400432 A    
O20   Cr4   2.061652 S    
C48   C49   1.388144 A    
Cr2   O13   1.984499 S    
O21   C54   1.310721 A    
C24   C57   1.479055 S    
C59   H24   1.083564 S    
C40   C60   1.488733 S    
C20   C21   1.395795 A    
C58   O34   1.220724 D    
C1    O3    1.273540 A    
O25   Cr6   1.933870 S    
C22   C23   1.389480 A    
N1    O28   1.299132 A    
C29   C53   1.461981 S    
C24   C25   1.396630 A    
O22   Cr5   2.070087 S    
O9    Cr2   2.052596 S    
O2    Cr1   1.959321 S    
C41   C42   1.404108 A    
O6    Cr3   1.954726 S    
O8    C4    1.266005 A    
O11   Cr3   2.074417 S    
C2    O5    1.262530 A    
C14   C19   1.415230 A    
O21   Cr4   1.957991 S    
C14   H6    1.081900 S    
C36   H13   1.083034 S    
O2    C1    1.271014 A    
O15   C51   1.295532 A    
C40   C41   1.428978 A    
C11   C12   1.386476 A    
O5    Cr3   2.065373 S    
C33   C38   1.396721 A    
C30   H12   1.082627 S    
O7    C6    1.263089 A    
C6    C44   1.452577 S    
C5    C38   1.453976 S    
O17   C52   1.274835 A    
C13   C21   1.440018 A    
N2    O31   1.301169 A    
N2    O30   1.298556 A    
C37   H14   1.083261 S    
C7    C8    1.396405 A    
C33   C34   1.391749 A    
C57   O27   1.219024 D    
O19   Cr6   1.954401 S    
C35   C36   1.391743 A    
O3    Cr2   2.075600 S    
C4    O9    1.270659 A    
C3    C26   1.472048 S    
C47   C48   1.392130 A    
C10   H2    1.077436 S    
C59   O35   1.220471 D    
O10   C5    1.266500 A    
C58   H23   1.075849 S    
C21   C25   1.426995 A    
Cr4   O26   1.968481 S    
C17   H7    1.075217 S    
C7    C12   1.405549 A    
N1    O29   1.301264 A    
C41   C54   1.464305 S    
