data_mof_unit_50074.cif
_audit_creation_date              2012-12-10T20:07:06-0500
_audit_creation_method            fapswitch 2.2
_symmetry_space_group_name_H-M    P1
_symmetry_Int_Tables_number       1
_space_group_crystal_system       triclinic
_cell_length_a                    19.252075
_cell_length_b                    18.4338
_cell_length_c                    10.639794
_cell_angle_alpha                 90.031093
_cell_angle_beta                  90.00034
_cell_angle_gamma                 90.193482
_cell_volume                      3775.92270485

loop_
_atom_site_label
_atom_site_type_symbol
_atom_type_description
_atom_site_fract_x
_atom_site_fract_y
_atom_site_fract_z
_atom_type_partial_charge
C1    C     C_R   0.365525 0.499894 0.500901 0.863790
C2    C     C_R   0.928418 0.497873 0.521655 0.151180
C3    C     C_R   0.540360 0.725646 0.415507 -0.009329
C4    C     C_R   0.462051 0.273955 0.412413 -0.007576
C5    C     C_R   0.459768 0.726319 0.583552 -0.004745
C6    C     C_R   0.538000 0.274134 0.587428 -0.014615
C7    C     C_R   0.541127 0.801699 0.412597 -0.247135
C8    C     C_R   0.461511 0.197912 0.410334 -0.247181
C9    C     C_R   0.459244 0.802442 0.584185 -0.253468
C10   C     C_R   0.538479 0.198059 0.589251 -0.253803
C11   C     C_R   0.500264 0.841284 0.497776 0.216351
C12   C     C_R   0.634472 0.500036 0.500821 0.863567
C13   C     C_R   0.499940 0.158782 0.499741 0.230809
C14   C     C_R   0.437023 0.961621 0.489504 0.343228
C15   C     C_R   0.563430 0.038622 0.498666 0.320812
C16   C     C_R   0.563385 0.962072 0.502142 0.326889
C17   C     C_R   0.436994 0.038039 0.496847 0.320386
C18   C     C_R   0.500144 0.077386 0.498825 -0.262994
C19   C     C_R   0.500225 0.922707 0.496215 -0.268404
C20   C     C_R   0.500141 0.499965 0.260552 0.886403
C21   C     C_R   0.499798 0.500030 0.739405 0.890375
C22   C     C_R   0.374113 0.526490 0.130687 -0.383660
C23   C     C_R   0.709766 0.499697 0.506190 -0.114334
C24   C     C_R   0.624752 0.468590 0.868957 -0.378166
C25   C     C_R   0.374876 0.531309 0.869731 -0.380505
C26   C     C_R   0.625712 0.471685 0.129968 -0.377251
C27   C     C_R   0.312124 0.539586 0.065709 0.469346
C28   C     C_R   0.686036 0.451951 0.933775 0.465780
C29   C     C_R   0.313426 0.546731 0.935104 0.500201
C30   C     C_R   0.687461 0.457911 0.064550 0.466099
C31   C     C_R   0.437312 0.515498 0.934629 0.004876
C32   C     C_R   0.562721 0.484988 0.065197 0.007060
C33   C     C_R   0.437190 0.514362 0.065537 0.006045
C34   C     C_R   0.290226 0.499698 0.506533 -0.115977
C35   C     C_R   0.562465 0.484406 0.934284 0.008121
C36   C     C_R   0.499878 0.500112 0.871575 -0.083980
C37   C     C_R   0.500035 0.499824 0.128310 -0.087012
C38   C     C_R   0.745539 0.433930 0.495532 -0.237761
C39   C     C_R   0.253798 0.564975 0.495026 -0.238157
C40   C     C_R   0.254422 0.434334 0.525200 -0.226562
C41   C     C_R   0.746209 0.564731 0.523902 -0.226415
C42   C     C_R   0.817363 0.432840 0.502483 0.134171
C43   C     C_R   0.181920 0.565207 0.501908 0.134702
C44   C     C_R   0.182572 0.433897 0.532305 0.157371
C45   C     C_R   0.963941 0.499033 0.636251 -0.109274
C46   C     C_R   0.818084 0.564333 0.531021 0.157116
C47   C     C_R   0.853584 0.498201 0.520499 -0.023198
C48   C     C_R   0.146394 0.499512 0.520805 -0.026228
C49   C     C_3   0.774365 0.508161 0.184134 0.091861
C50   C     C_3   0.814139 0.554672 0.088579 -0.356275
C51   C     C_3   0.845467 0.621796 0.150987 -0.903500
C52   C     C_3   0.257614 0.629033 0.807333 0.106491
C53   C     C_3   0.250011 0.694837 0.895533 -0.343256
C54   C     C_3   0.320071 0.725077 0.938940 -0.876841
C55   C     C_3   0.740482 0.368988 0.805848 0.093166
C56   C     C_R   0.035947 0.497646 0.407420 -0.118566
C57   C     C_3   0.743812 0.304208 0.896330 -0.344736
C58   C     C_3   0.742082 0.232481 0.824654 -0.932035
C59   C     C_3   0.226120 0.487171 0.184559 0.087860
C60   C     C_3   0.186689 0.440794 0.088278 -0.357956
C61   C     C_3   0.156275 0.372875 0.149437 -0.902663
C62   C     C_3   0.362016 0.900151 0.359285 0.119878
C63   C     C_3   0.321081 0.956201 0.283440 -0.310695
C64   C     C_3   0.300648 0.926392 0.154736 -0.981441
C65   C     C_3   0.645680 0.094886 0.379167 0.112904
C66   C     C_3   0.703885 0.151387 0.386162 -0.312172
C67   C     C_R   0.035977 0.499595 0.636323 -0.111133
C68   C     C_3   0.725457 0.177305 0.255565 -0.927680
C69   C     C_3   0.643995 0.910569 0.629821 0.111391
C70   C     C_3   0.706688 0.859950 0.630651 -0.306842
C71   C     C_3   0.728053 0.840080 0.764342 -0.935313
C72   C     C_3   0.352969 0.087810 0.619201 0.109932
C73   C     C_3   0.289061 0.136710 0.616546 -0.309790
C74   C     C_3   0.263916 0.154474 0.749007 -0.928647
C75   C     C_R   0.964123 0.496976 0.407351 -0.119698
C76   C     C_R   0.071567 0.498936 0.521799 0.150826
H1    H     H_    0.371968 0.525636 0.232201 0.168955
H2    H     H_    0.063744 0.497421 0.318971 0.134513
H3    H     H_    0.063984 0.500614 0.724644 0.153441
H4    H     H_    0.936393 0.495741 0.318855 0.134922
H5    H     H_    0.571887 0.695401 0.349773 0.133331
H6    H     H_    0.432286 0.303854 0.343636 0.132624
H7    H     H_    0.428051 0.696603 0.649990 0.124158
H8    H     H_    0.567918 0.304177 0.656170 0.126622
H9    H     H_    0.572872 0.829371 0.343518 0.169412
H10   H     H_    0.431806 0.169886 0.338704 0.165267
H11   H     H_    0.427417 0.830759 0.652146 0.164761
H12   H     H_    0.626700 0.469186 0.767482 0.166230
H13   H     H_    0.568382 0.170146 0.660444 0.165049
H14   H     H_    0.811218 0.491879 0.258797 0.182139
H15   H     H_    0.733176 0.540727 0.231144 0.125114
H16   H     H_    0.856403 0.521958 0.045825 0.250348
H17   H     H_    0.778458 0.572448 0.012607 0.231421
H18   H     H_    0.873858 0.654411 0.079766 0.277622
H19   H     H_    0.882447 0.605877 0.226059 0.274333
H20   H     H_    0.803841 0.655824 0.192539 0.270545
H21   H     H_    0.213379 0.630725 0.740682 0.168861
H22   H     H_    0.304953 0.633230 0.747669 0.125732
H23   H     H_    0.372924 0.531409 0.768248 0.164253
H24   H     H_    0.222450 0.738771 0.844415 0.198628
H25   H     H_    0.217910 0.680094 0.978568 0.269401
H26   H     H_    0.348512 0.684979 0.996790 0.267444
H27   H     H_    0.311463 0.774269 0.997059 0.256858
H28   H     H_    0.352442 0.740410 0.856643 0.241851
H29   H     H_    0.785161 0.365015 0.740463 0.199453
H30   H     H_    0.692887 0.366001 0.746621 0.122386
H31   H     H_    0.792426 0.307399 0.952447 0.259487
H32   H     H_    0.698928 0.305569 0.961943 0.213799
H33   H     H_    0.693337 0.227865 0.769239 0.256325
H34   H     H_    0.627920 0.471885 0.231497 0.167276
H35   H     H_    0.744294 0.186668 0.892247 0.269064
H36   H     H_    0.787303 0.228697 0.760150 0.286746
H37   H     H_    0.189278 0.502381 0.259954 0.182880
H38   H     H_    0.267869 0.454869 0.230442 0.125615
H39   H     H_    0.143948 0.473244 0.046542 0.250237
H40   H     H_    0.222417 0.424000 0.011670 0.229989
H41   H     H_    0.198390 0.339087 0.189889 0.269594
H42   H     H_    0.128073 0.340396 0.077724 0.277608
H43   H     H_    0.119307 0.387837 0.225161 0.274382
H44   H     H_    0.330533 0.849691 0.366378 0.174510
H45   H     H_    0.717922 0.383287 0.481424 0.184221
H46   H     H_    0.410432 0.885198 0.307857 0.115583
H47   H     H_    0.273348 0.971460 0.335813 0.251868
H48   H     H_    0.353323 0.005672 0.269879 0.230647
H49   H     H_    0.347722 0.911531 0.100225 0.258657
H50   H     H_    0.271602 0.968368 0.101729 0.276040
H51   H     H_    0.266889 0.877788 0.165388 0.277526
H52   H     H_    0.601641 0.118918 0.325373 0.125597
H53   H     H_    0.664826 0.046143 0.328150 0.162821
H54   H     H_    0.685885 0.198800 0.441889 0.232303
H55   H     H_    0.749646 0.127536 0.434394 0.241775
H56   H     H_    0.280944 0.615813 0.480247 0.184944
H57   H     H_    0.744310 0.130989 0.198274 0.261687
H58   H     H_    0.767982 0.217856 0.264215 0.295337
H59   H     H_    0.680880 0.203229 0.207048 0.259239
H60   H     H_    0.600529 0.883164 0.680631 0.126759
H61   H     H_    0.657827 0.961734 0.679800 0.163785
H62   H     H_    0.693627 0.809459 0.578365 0.233728
H63   H     H_    0.751109 0.886867 0.582650 0.242069
H64   H     H_    0.742316 0.889647 0.817997 0.263695
H65   H     H_    0.773708 0.803459 0.761358 0.290423
H66   H     H_    0.684848 0.811614 0.813142 0.259936
H67   H     H_    0.282059 0.383524 0.534224 0.183486
H68   H     H_    0.394518 0.115837 0.674105 0.128293
H69   H     H_    0.339191 0.035816 0.666536 0.164117
H70   H     H_    0.302118 0.188104 0.567068 0.234315
H71   H     H_    0.246576 0.109145 0.564061 0.239671
H72   H     H_    0.249652 0.103944 0.799804 0.263406
H73   H     H_    0.217435 0.189840 0.743548 0.292086
H74   H     H_    0.305124 0.183566 0.802206 0.259422
H75   H     H_    0.719055 0.615873 0.532177 0.182557
H76   H     H_    0.935880 0.499683 0.724520 0.153883
I1    I     I_    0.867939 0.331176 0.483096 -0.392482
I2    I     I_    0.130020 0.666006 0.481193 -0.365305
I3    I     I_    0.131768 0.332433 0.556687 -0.388430
I4    I     I_    0.869944 0.665350 0.553831 -0.384459
N1    N     N_R   0.500000 0.689440 0.500000 -0.087128
N2    N     N_R   0.500000 0.310560 0.500000 -0.085957
O1    O     O_R   0.398180 0.560840 0.499970 -0.629316
O2    O     O_3   0.252211 0.562246 0.872557 -0.627890
O3    O     O_3   0.746954 0.435903 0.870408 -0.629057
O4    O     O_3   0.250782 0.552319 0.129750 -0.617860
O5    O     O_3   0.373908 0.925490 0.483210 -0.621742
O6    O     O_3   0.626166 0.075362 0.502653 -0.621766
O7    O     O_3   0.626123 0.925828 0.503927 -0.619301
O8    O     O_3   0.374305 0.074372 0.494459 -0.626794
O9    O     O_R   0.601820 0.439160 0.500030 -0.629743
O10   O     O_R   0.601820 0.560840 0.500030 -0.621963
O11   O     O_R   0.398180 0.439160 0.499970 -0.621393
O12   O     O_R   0.499990 0.560810 0.316770 -0.620291
O13   O     O_R   0.500010 0.439190 0.683230 -0.623132
O14   O     O_R   0.500010 0.560810 0.683230 -0.621069
O15   O     O_R   0.499990 0.439190 0.316770 -0.621789
O16   O     O_3   0.748667 0.443764 0.128093 -0.620440
Zn1   Zn    Zn3+2 0.500000 0.581210 0.500000 0.941867
Zn2   Zn    Zn3+2 0.500000 0.418790 0.500000 0.940366

loop_
_geom_bond_atom_site_label_1
_geom_bond_atom_site_label_2
_ccdc_geom_bond_type
C25   C31   A    
O10   Zn1   S    
C66   C68   S    
C26   C32   A    
C8    C13   A    
C56   C76   A    
C61   H43   S    
C58   H33   S    
C73   C74   S    
C48   C76   S    
C15   C18   A    
C20   O12   A    
C35   C36   A    
C49   H14   S    
C4    C8    A    
C12   O9    A    
C63   H48   S    
C21   C36   S    
C53   C54   S    
C7    C11   A    
C12   C23   S    
C11   C19   S    
C13   C18   S    
C55   H29   S    
C58   H36   S    
C74   H72   S    
C68   H57   S    
C38   C42   A    
C3    C7    A    
C17   O8    S    
C16   C19   A    
C27   O4    S    
C5    H7    S    
C27   C29   A    
C39   H56   S    
C15   C16   A    
C52   H21   S    
C56   H2    S    
C1    O11   A    
C14   O5    S    
C49   C50   S    
C25   H23   S    
C4    N2    A    
C20   O15   A    
C10   H13   S    
C53   H25   S    
C45   C67   A    
C41   C46   A    
C31   C33   A    
C74   H73   S    
C70   C71   S    
C43   I2    S    
C75   H4    S    
C26   H34   S    
C62   H44   S    
O14   Zn1   S    
C51   H20   S    
C71   H65   S    
C59   C60   S    
C2    C45   A    
C56   C75   A    
O1    Zn1   S    
C25   C29   A    
C14   C17   A    
C49   H15   S    
C49   O16   S    
C6    N2    A    
C1    C34   S    
C50   C51   S    
C29   O2    S    
O12   Zn1   S    
C53   H24   S    
C69   H61   S    
C24   C35   A    
C6    H8    S    
C55   H30   S    
C61   H41   S    
C58   H35   S    
C65   H52   S    
C54   H27   S    
C1    O1    A    
C42   I1    S    
C67   H3    S    
C28   O3    S    
C55   O3    S    
C39   C43   A    
C21   O13   A    
C33   C37   A    
C34   C39   A    
C60   C61   S    
C32   C35   A    
C5    C9    A    
C62   C63   S    
C9    C11   A    
C15   O6    S    
C63   H47   S    
C62   O5    S    
C40   C44   A    
C16   O7    S    
C59   H37   S    
C64   H51   S    
C17   C18   A    
C32   C37   A    
C24   H12   S    
N1    Zn1   S    
C71   H66   S    
C50   H16   S    
C57   H31   S    
C73   H71   S    
C26   C30   A    
C69   H60   S    
C64   H50   S    
C22   C27   A    
C55   C57   S    
C34   C40   A    
C60   H40   S    
C23   C38   A    
C62   H46   S    
C52   C53   S    
C66   H55   S    
C43   C48   A    
O15   Zn2   S    
N2    Zn2   S    
C72   H68   S    
C22   C33   A    
C46   C47   A    
C61   H42   S    
C44   I3    S    
C72   O8    S    
C14   C19   A    
C54   H26   S    
C68   H59   S    
C3    H5    S    
C24   C28   A    
C22   H1    S    
C72   C73   S    
C10   C13   A    
C12   O10   A    
C65   H53   S    
C50   H17   S    
C70   H62   S    
C71   H64   S    
C41   H75   S    
C2    C47   S    
C21   O14   A    
C46   I4    S    
O13   Zn2   S    
C54   H28   S    
C5    N1    A    
C23   C41   A    
C73   H70   S    
C45   H76   S    
C68   H58   S    
C28   C30   A    
C59   O4    S    
C9    H11   S    
C20   C37   S    
C57   C58   S    
C7    H9    S    
C59   H38   S    
C65   O6    S    
C52   H22   S    
O11   Zn2   S    
C8    H10   S    
C42   C47   A    
C65   C66   S    
C69   C70   S    
C69   O7    S    
C38   H45   S    
C6    C10   A    
C51   H18   S    
C63   C64   S    
C44   C48   A    
C70   H63   S    
C57   H32   S    
C4    H6    S    
C64   H49   S    
C40   H67   S    
C3    N1    A    
C31   C36   A    
C74   H74   S    
C60   H39   S    
C67   C76   A    
C52   O2    S    
C30   O16   S    
C2    C75   A    
C72   H69   S    
C51   H19   S    
O9    Zn2   S    
C66   H54   S    
