data_mof_unit_13706.cif
_audit_creation_date              2012-10-26T19:36:26-0400
_audit_creation_method            fapswitch 2.2
_symmetry_space_group_name_H-M    P1
_symmetry_Int_Tables_number       1
_space_group_crystal_system       triclinic
_cell_length_a                    10.821984
_cell_length_b                    15.991308
_cell_length_c                    14.756132
_cell_angle_alpha                 90.195421
_cell_angle_beta                  90.004989
_cell_angle_gamma                 89.966719
_cell_volume                      2553.64666599

loop_
_atom_site_label
_atom_site_type_symbol
_atom_type_description
_atom_site_fract_x
_atom_site_fract_y
_atom_site_fract_z
_atom_type_partial_charge
C1    C     C_R   0.500435 0.340854 0.499864 0.554982
C2    C     C_R   0.503705 0.087218 0.500849 0.000020
C3    C     C_R   0.534286 0.955966 0.420294 0.281604
C4    C     C_R   0.474572 0.043914 0.580630 0.285432
C5    C     C_1   0.504008 0.823130 0.500528 -0.022874
C6    C     C_1   0.502695 0.176769 0.499975 -0.006631
C7    C     C_1   0.501601 0.251791 0.499688 0.004021
C8    C     C_1   0.502613 0.748132 0.500551 -0.026400
C9    C     C_R   0.539143 0.571850 0.952172 0.273674
C10   C     C_R   0.458292 0.428598 0.047811 0.276286
C11   C     C_R   0.499450 0.500943 0.902943 -0.035678
C12   C     C_R   0.500651 0.659119 0.500176 0.532881
C13   C     C_R   0.498264 0.499446 0.097040 -0.024935
C14   C     C_R   0.461515 0.429688 0.951120 -0.176386
C15   C     C_R   0.535999 0.570746 0.048846 -0.164067
C16   C     C_R   0.261846 0.500079 0.500015 0.579080
C17   C     C_R   0.738060 0.498823 0.500187 0.561906
C18   C     C_1   0.499708 0.500317 0.802708 0.172297
C19   C     C_1   0.499248 0.499847 0.197285 0.178425
C20   C     C_R   0.249163 0.735525 0.350745 -0.115255
C21   C     C_R   0.779556 0.247818 0.636376 -0.126761
C22   C     C_R   0.188212 0.681547 0.409972 -0.140523
C23   C     C_R   0.871663 0.499510 0.501330 -0.031944
C24   C     C_R   0.846291 0.305271 0.584994 -0.123662
C25   C     C_R   0.128038 0.610043 0.376618 0.095019
C26   C     C_R   0.870562 0.385552 0.619192 0.090963
C27   C     C_R   0.131571 0.591774 0.283075 0.351084
C28   C     C_R   0.829133 0.408511 0.706616 0.326857
C29   C     C_R   0.192054 0.647338 0.223986 -0.097513
C30   C     C_R   0.758997 0.349948 0.756846 -0.096686
C31   C     C_R   0.251272 0.718419 0.257966 -0.142634
C32   C     C_R   0.735571 0.270273 0.721873 -0.135686
C33   C     C_R   0.934252 0.554270 0.442831 0.260887
C34   C     C_R   0.128131 0.501003 0.500450 -0.045195
C35   C     C_R   0.065705 0.448297 0.561374 0.235461
C36   C     C_3   0.679707 0.680650 0.939731 -0.116530
C37   C     C_3   0.317905 0.319678 0.060101 -0.136536
C38   C     C_3   0.153444 0.465252 0.212940 -0.112112
C39   C     C_3   0.865690 0.496300 0.830535 -0.135774
C40   C     C_3   0.843238 0.681872 0.431224 -0.093429
C41   C     C_3   0.142950 0.418749 0.702667 -0.064182
C42   C     C_3   0.520233 0.071021 0.729295 -0.123280
C43   C     C_3   0.482860 0.925672 0.273694 -0.123220
C44   C     C_R   0.936606 0.446631 0.561130 -0.026155
C45   C     C_R   0.063051 0.553595 0.440492 -0.038894
C46   C     C_R   0.473343 0.956090 0.579070 -0.150038
C47   C     C_R   0.535464 0.043741 0.421768 -0.150479
C48   C     C_R   0.504975 0.912646 0.499991 -0.000155
Cu1   Cu    Cu3+1 0.500040 0.500000 0.589220 1.027412
Cu2   Cu    Cu3+1 0.499960 0.500000 0.410780 1.026555
H1    H     H_    0.297946 0.760694 0.212212 0.109918
H2    H     H_    0.561487 0.078033 0.361523 0.123234
H3    H     H_    0.562178 0.625812 0.087086 0.115740
H4    H     H_    0.435475 0.374608 0.912852 0.104281
H5    H     H_    0.749948 0.634127 0.962173 0.102077
H6    H     H_    0.654804 0.723597 0.996143 0.119553
H7    H     H_    0.723147 0.719006 0.885961 0.146590
H8    H     H_    0.343026 0.276775 0.003702 0.123791
H9    H     H_    0.247593 0.366146 0.037617 0.092628
H10   H     H_    0.274446 0.281260 0.113813 0.139278
H11   H     H_    0.226963 0.448573 0.262451 0.155178
H12   H     H_    0.682267 0.226073 0.761041 0.112157
H13   H     H_    0.195046 0.489204 0.149273 0.105865
H14   H     H_    0.103236 0.406872 0.195734 0.139572
H15   H     H_    0.924583 0.445272 0.858172 0.086147
H16   H     H_    0.774331 0.497788 0.864640 0.139836
H17   H     H_    0.912560 0.556283 0.846247 0.137552
H18   H     H_    0.929506 0.715705 0.449502 0.105484
H19   H     H_    0.786475 0.671069 0.492946 0.111336
H20   H     H_    0.789060 0.722883 0.385553 0.166204
H21   H     H_    0.075721 0.385122 0.745862 0.120650
H22   H     H_    0.131493 0.487665 0.711733 0.123917
H23   H     H_    0.294162 0.790979 0.376761 0.127289
H24   H     H_    0.236586 0.402367 0.727600 0.142318
H25   H     H_    0.618912 0.075718 0.708313 0.102573
H26   H     H_    0.501049 0.008600 0.758900 0.116409
H27   H     H_    0.504741 0.118078 0.783522 0.137381
H28   H     H_    0.494945 0.988788 0.243749 0.117559
H29   H     H_    0.385929 0.917116 0.297363 0.104712
H30   H     H_    0.499443 0.879162 0.219078 0.139377
H31   H     H_    0.760549 0.186125 0.609390 0.123573
H32   H     H_    0.187047 0.695674 0.481813 0.094420
H33   H     H_    0.878016 0.287627 0.517983 0.121367
H34   H     H_    0.192221 0.635989 0.151644 0.105536
H35   H     H_    0.720456 0.365535 0.822349 0.094406
H36   H     H_    0.446636 0.921644 0.639034 0.121978
N1    N     N_1   0.500040 0.499980 0.276710 -0.188225
N2    N     N_1   0.499960 0.500020 0.723290 -0.184391
O1    O     O_R   0.500060 0.380310 0.575320 -0.485275
O2    O     O_3   0.424715 0.357787 0.096468 -0.559997
O3    O     O_3   0.068391 0.522866 0.249952 -0.546652
O4    O     O_3   0.850969 0.490254 0.735711 -0.564409
O5    O     O_3   0.869274 0.606460 0.385085 -0.518355
O6    O     O_3   0.131956 0.390699 0.612052 -0.549400
O7    O     O_3   0.438768 0.088365 0.657085 -0.547761
O8    O     O_3   0.569350 0.911712 0.343591 -0.558364
O9    O     O_R   0.499940 0.619690 0.424680 -0.485082
O10   O     O_R   0.500000 0.380310 0.424640 -0.496505
O11   O     O_R   0.500000 0.619690 0.575360 -0.491889
O12   O     O_R   0.319670 0.500010 0.575340 -0.483173
O13   O     O_R   0.680330 0.499990 0.424660 -0.451157
O14   O     O_R   0.319610 0.500010 0.424650 -0.516197
O15   O     O_R   0.680390 0.499990 0.575350 -0.480043
O16   O     O_3   0.572714 0.642659 0.903511 -0.554244

loop_
_geom_bond_atom_site_label_1
_geom_bond_atom_site_label_2
_ccdc_geom_bond_type
C11   C18   S    
C27   C29   A    
C33   C45   A    
C40   O5    S    
C26   C44   S    
C4    C46   A    
C43   H28   S    
C42   H25   S    
C17   C23   S    
C40   H20   S    
C37   O2    S    
C22   H32   S    
C15   H3    S    
C24   H33   S    
C24   C26   A    
C19   N1    T    
C11   C14   A    
C43   H29   S    
C3    C48   A    
C34   C35   A    
C17   O13   A    
C12   O11   A    
C16   C34   S    
C41   H24   S    
C23   C33   A    
C22   C25   A    
C27   O3    S    
C3    O8    S    
C37   H8    S    
C41   H21   S    
C38   H11   S    
C39   H15   S    
Cu1   N2    S    
C2    C6    S    
C26   C28   A    
C5    C48   S    
C6    C7    T    
C38   H14   S    
C21   C32   A    
C46   C48   A    
Cu2   O10   S    
Cu1   O1    S    
C40   H19   S    
C13   C19   S    
C42   O7    S    
C29   H34   S    
C36   H7    S    
C10   C14   A    
C31   H1    S    
C16   O12   A    
C43   H30   S    
C38   O3    S    
C18   N2    T    
C23   C44   A    
C2    C4    A    
C36   H6    S    
Cu1   O11   S    
C4    O7    S    
C41   O6    S    
C8    C12   S    
C43   O8    S    
C28   O4    S    
C34   C45   A    
C30   H35   S    
C35   C44   A    
C9    C11   A    
C12   O9    A    
C37   H9    S    
Cu2   N1    S    
Cu2   O13   S    
C41   H22   S    
C16   O14   A    
C14   H4    S    
C21   H31   S    
Cu2   O14   S    
C13   C15   A    
C39   H16   S    
C25   C45   S    
C39   O4    S    
C38   H13   S    
C35   O6    S    
Cu2   O9    S    
C1    O1    A    
C1    C7    S    
C39   H17   S    
C20   C22   A    
C10   C13   A    
C33   O5    S    
C1    O10   A    
Cu1   O15   S    
C5    C8    T    
C47   H2    S    
C2    C47   A    
C25   C27   A    
C42   H26   S    
C36   O16   S    
C28   C30   A    
C17   O15   A    
C32   H12   S    
C29   C31   A    
C36   H5    S    
Cu1   O12   S    
C30   C32   A    
C9    O16   S    
C3    C47   A    
C20   H23   S    
C9    C15   A    
C37   H10   S    
C10   O2    S    
C42   H27   S    
Cu1   Cu2   S    
C40   H18   S    
C21   C24   A    
C46   H36   S    
C20   C31   A    
