data_mof_unit_40137.cif
_audit_creation_date              2012-12-11T20:41:14-0500
_audit_creation_method            fapswitch 2.2
_symmetry_space_group_name_H-M    P1
_symmetry_Int_Tables_number       1
_space_group_crystal_system       triclinic
_cell_length_a                    8.343283
_cell_length_b                    18.756423
_cell_length_c                    26.972482
_cell_angle_alpha                 96.873286
_cell_angle_beta                  92.656984
_cell_angle_gamma                 86.702019
_cell_volume                      4180.33382448

loop_
_atom_site_label
_atom_site_type_symbol
_atom_type_description
_atom_site_fract_x
_atom_site_fract_y
_atom_site_fract_z
_atom_type_partial_charge
Ba1   Ba    Ba6+2 0.852670 0.466460 0.522850 1.662495
Ba2   Ba    Ba6+2 0.337150 0.533490 0.477140 1.668354
C1    C     C_3   0.623922 0.220088 0.660292 -0.366029
C2    C     C_3   0.637797 0.290375 0.638410 0.339547
C3    C     C_3   0.465939 0.725480 0.637366 0.322456
C4    C     C_3   0.549110 0.797034 0.646578 -0.409702
C5    C     C_3   0.077291 0.684991 0.346660 0.350708
C6    C     C_3   0.032803 0.707841 0.294593 -0.213793
C7    C     C_3   0.500292 0.723789 0.362462 0.609661
C8    C     C_3   0.431346 0.792942 0.343360 -0.297367
C9    C     C_R   0.022267 0.449821 0.176894 0.595039
C10   C     C_R   0.902643 0.568719 0.175550 0.571557
C11   C     C_2   0.762336 0.541868 0.271858 -0.101908
C12   C     C_3   0.136702 0.306482 0.657842 0.291292
C13   C     C_3   0.746067 0.559679 0.327613 0.030651
C14   C     C_1   0.978967 0.481423 0.340180 -0.001629
C15   C     C_2   0.023834 0.485074 0.293425 -0.149558
C16   C     C_2   0.905194 0.512555 0.254760 0.198538
C17   C     C_R   0.023794 0.507750 0.099962 -0.078412
C18   C     C_R   0.064285 0.448232 0.126200 -0.033097
C19   C     C_R   0.145669 0.388057 0.101126 -0.062828
C20   C     C_R   0.941818 0.568100 0.124985 -0.028702
C21   C     C_2   0.835101 0.504308 0.355436 -0.225108
C22   C     C_2   0.358070 0.491555 0.639959 -0.238603
C23   C     C_3   0.092552 0.291708 0.709553 -0.348930
C24   C     C_R   0.189626 0.445125 0.972720 0.019561
C25   C     C_R   0.062907 0.567095 0.971821 0.019814
C26   C     C_R   0.146932 0.505923 0.947003 0.049532
C27   C     C_R   0.273019 0.385748 0.946036 -0.099577
C28   C     C_R   0.312807 0.386059 0.896378 -0.064084
C29   C     C_R   0.271961 0.445530 0.870644 -0.035970
C30   C     C_R   0.188760 0.505609 0.895868 -0.077433
C31   C     C_R   0.147318 0.565405 0.869924 -0.032040
C32   C     C_R   0.190458 0.564720 0.819627 0.579421
C33   C     C_R   0.312638 0.446047 0.820169 0.576593
C34   C     C_3   0.218606 0.322715 0.336657 0.243319
C35   C     C_2   0.470627 0.502882 0.728845 0.013721
C36   C     C_3   0.507430 0.501302 0.673378 0.000881
C37   C     C_1   0.217386 0.515413 0.656815 0.019086
C38   C     C_2   0.182484 0.510956 0.703745 -0.176979
C39   C     C_2   0.314468 0.505627 0.743102 0.243300
C40   C     C_R   0.148056 0.445607 0.023841 0.019363
C41   C     C_R   0.064863 0.506987 0.048699 0.049709
C42   C     C_R   0.022170 0.567708 0.022909 0.020328
C43   C     C_R   0.186690 0.386674 0.051385 -0.099879
C44   C     C_R   0.900988 0.627445 0.099127 -0.065680
C45   C     C_3   0.123242 0.278309 0.295963 -0.418947
C46   C     C_R   0.022472 0.625869 0.944324 -0.101474
C47   C     C_R   0.063786 0.624926 0.894794 -0.066787
C48   C     C_R   0.939863 0.627388 0.049515 -0.101597
C49   C     C_2   0.376234 0.292004 0.504640 -0.172764
C50   C     C_3   0.314801 0.253501 0.545738 -0.018175
C51   C     C_2   0.354326 0.173693 0.536009 -0.126294
C52   C     C_2   0.491477 0.151036 0.512393 -0.060990
C53   C     C_2   0.586793 0.206556 0.492818 -0.170236
C54   C     C_1   0.522013 0.272342 0.488713 0.050932
C55   C     C_R   0.651619 0.932266 0.496636 0.458166
C56   C     C_3   0.972043 0.675219 0.662115 0.244576
C57   C     C_R   0.547391 0.073654 0.506208 0.460359
C58   C     C_R   0.620767 0.806179 0.515404 -0.134168
C59   C     C_R   0.685074 0.737205 0.521754 0.017769
C60   C     C_R   0.923569 0.760849 0.478871 0.104906
C61   C     C_R   0.862140 0.831543 0.475105 -0.067963
C62   C     C_R   0.712357 0.855756 0.495193 -0.043760
C63   C     C_R   0.840861 0.716406 0.505963 -0.196851
C64   C     C_3   0.004955 0.751922 0.684382 -0.402727
C65   C     C_3   0.729912 0.292416 0.367452 0.314571
C66   C     C_3   0.730725 0.211736 0.373229 -0.377501
H1    H     H_    0.755501 0.288695 0.620803 0.104706
H2    H     H_    0.032822 0.314121 0.278313 0.152222
H3    H     H_    0.204899 0.252726 0.266803 0.106167
H4    H     H_    0.063366 0.235420 0.312066 0.116556
H5    H     H_    0.987650 0.640348 0.692912 0.047383
H6    H     H_    0.845823 0.674455 0.647487 0.079823
H7    H     H_    0.112270 0.751369 0.710283 0.127478
H8    H     H_    0.902894 0.774981 0.707103 0.084508
H9    H     H_    0.023396 0.786648 0.654469 0.120537
H10   H     H_    0.847967 0.313639 0.380118 0.097941
H11   H     H_    0.723288 0.212884 0.688300 0.129918
H12   H     H_    0.794770 0.201369 0.408618 0.100898
H13   H     H_    0.797902 0.178940 0.343025 0.093298
H14   H     H_    0.605691 0.193538 0.372433 0.105795
H15   H     H_    0.540513 0.295348 0.609694 -0.036842
H16   H     H_    0.631095 0.174517 0.630087 0.080704
H17   H     H_    0.349713 0.733030 0.616139 0.072019
H18   H     H_    0.592172 0.812964 0.611836 0.081097
H19   H     H_    0.463641 0.840429 0.662557 0.096644
H20   H     H_    0.653498 0.792933 0.673070 0.114035
H21   H     H_    0.507502 0.220050 0.678529 0.124779
H22   H     H_    0.154484 0.328849 0.738378 0.125552
H23   H     H_    0.193301 0.653395 0.346958 0.066262
H24   H     H_    0.984455 0.649270 0.355931 0.036682
H25   H     H_    0.909832 0.691106 0.282988 0.181111
H26   H     H_    0.029737 0.767362 0.295734 0.156709
H27   H     H_    0.443393 0.717723 0.397829 0.079496
H28   H     H_    0.491157 0.801982 0.308845 0.137982
H29   H     H_    0.450127 0.839450 0.372271 0.112545
H30   H     H_    0.102866 0.363854 0.654215 0.069010
H31   H     H_    0.301209 0.790368 0.334501 0.105467
H32   H     H_    0.145588 0.468603 0.283088 0.125885
H33   H     H_    0.178768 0.341234 0.120042 0.117895
H34   H     H_    0.376717 0.338959 0.878102 0.119726
H35   H     H_    0.310175 0.337581 0.962371 0.067647
H36   H     H_    0.249061 0.337985 0.035684 0.067542
H37   H     H_    0.667485 0.559877 0.246660 0.129996
H38   H     H_    0.838109 0.674927 0.117309 0.122277
H39   H     H_    0.958232 0.674134 0.959796 0.067553
H40   H     H_    0.268743 0.296878 0.654542 -0.015160
H41   H     H_    0.029579 0.671668 0.875917 0.117890
H42   H     H_    0.058595 0.514212 0.714493 0.117829
H43   H     H_    0.903249 0.675706 0.033309 0.067720
H44   H     H_    0.769156 0.472355 0.377975 0.063037
H45   H     H_    0.367836 0.466595 0.601746 0.067344
H46   H     H_    0.281852 0.136568 0.551926 0.101905
H47   H     H_    0.710989 0.193111 0.484038 0.121611
H48   H     H_    0.501053 0.821725 0.527982 0.095269
H49   H     H_    0.929455 0.866743 0.455875 0.103563
H50   H     H_    0.960714 0.300372 0.713618 0.136929
H51   H     H_    0.129656 0.235352 0.715397 0.118528
H52   H     H_    0.274255 0.365288 0.318933 0.070106
H53   H     H_    0.317916 0.287366 0.350627 0.056388
N1    N     N_R   0.943398 0.510096 0.201661 -0.418075
N2    N     N_R   0.273065 0.505575 0.795269 -0.424230
N3    N     N_R   0.510054 0.954294 0.518017 -0.248293
N4    N     N_R   0.458976 0.023277 0.522629 -0.245926
N5    N     N_R   0.688477 0.051734 0.484401 -0.241201
N6    N     N_R   0.739769 0.982576 0.479837 -0.239080
O1    O     O_2   0.914730 0.537460 0.618690 -0.478637
O2    O     O_3   0.605281 0.332497 0.393315 -0.626009
O3    O     O_3   0.053400 0.260805 0.621631 -0.601210
O4    O     O_2   0.274960 0.462520 0.381280 -0.452186
O5    O     O_3   0.042980 0.462530 0.441480 -0.473810
O6    O     O_3   0.523340 0.590550 0.413420 -0.456429
O7    O     O_3   0.119233 0.347242 0.377053 -0.651576
O8    O     O_3   0.635780 0.584660 0.526290 -0.445516
O9    O     O_3   0.116060 0.626590 0.438450 -0.511181
O10   O     O_2   0.256340 0.752057 0.465396 -0.504656
O11   O     O_3   0.084894 0.746646 0.381902 -0.590596
O12   O     O_3   0.146720 0.537410 0.558510 -0.472027
O13   O     O_3   0.553920 0.415280 0.473710 -0.447720
O14   O     O_2   0.383540 0.672140 0.526840 -0.460039
O15   O     O_3   0.567171 0.670780 0.613118 -0.636808
O16   O     O_2   0.420813 0.528076 0.323419 -0.503160
O17   O     O_3   0.470323 0.664917 0.326214 -0.626415
O18   O     O_2   0.054110 0.396897 0.198569 -0.617987
O19   O     O_2   0.383116 0.393388 0.798383 -0.595854
O20   O     O_2   0.833692 0.622444 0.196422 -0.617064
O21   O     O_2   0.155594 0.617170 0.797659 -0.614972
O22   O     O_3   0.666360 0.409390 0.586570 -0.487794
O23   O     O_2   0.831218 0.443603 0.671935 -0.502388
O24   O     O_3   0.074656 0.652816 0.622476 -0.647962
O25   O     O_3   0.623219 0.348035 0.676307 -0.600146
O26   O     O_2   0.806150 0.327840 0.473120 -0.474819
O27   O     O_3   0.073640 0.373350 0.561550 -0.490643
O28   O     O_2   0.978560 0.243901 0.525347 -0.482003
P1    P     P_3+3 0.084800 0.558370 0.611580 0.983161
P2    P     P_3+3 0.628800 0.338360 0.458800 0.995540
P3    P     P_3+3 0.103169 0.280665 0.562773 0.943434
P4    P     P_3+3 0.104900 0.441570 0.388420 0.984236
P5    P     P_3+3 0.097631 0.721410 0.442492 0.970966
P6    P     P_3+3 0.658727 0.427902 0.651783 0.970592
P7    P     P_3+3 0.563329 0.672174 0.548186 0.958985
P8    P     P_3+3 0.538476 0.583653 0.348286 0.994094
C67   C     C_3   0.700863 0.303190 0.312325 -0.348360
H54   H     H_    0.713275 0.360658 0.307138 0.097773
H55   H     H_    0.787196 0.269267 0.288566 0.084020
H56   H     H_    0.577283 0.288179 0.299322 0.113222
C68   C     C_3   0.430751 0.701820 0.688001 -0.312520
H57   H     H_    0.346070 0.657813 0.682829 0.104777
H58   H     H_    0.543523 0.681612 0.706466 0.107555
H59   H     H_    0.379299 0.747498 0.713421 0.081469
C69   C     C_3   0.149134 0.675226 0.254888 -0.439574
H60   H     H_    0.267733 0.698879 0.261724 0.169158
H61   H     H_    0.102914 0.687849 0.217527 0.162224
H62   H     H_    0.163503 0.615963 0.254590 0.144706
Cl1   Cl    Cl    0.708863 0.734424 0.374173 -0.820643
C70   C     C_3   0.609770 0.509095 0.766654 -0.311096
H63   H     H_    0.693425 0.548266 0.756209 0.083100
H64   H     H_    0.570988 0.528397 0.804943 0.107118
H65   H     H_    0.675338 0.455998 0.767121 0.154715
C71   C     C_3   0.261936 0.333987 0.473437 -0.241903
H66   H     H_    0.148993 0.306041 0.464317 0.131593
H67   H     H_    0.238723 0.388528 0.493129 0.151797
H68   H     H_    0.315837 0.340185 0.437993 0.107496
C72   C     C_3   0.922924 0.648520 0.519850 -0.230305
H69   H     H_    0.053130 0.655495 0.527222 0.144230
H70   H     H_    0.878315 0.636017 0.555193 0.114694
H71   H     H_    0.900849 0.603493 0.490215 0.139537

loop_
_geom_bond_atom_site_label_1
_geom_bond_atom_site_label_2
_ccdc_geom_bond_type
C25   C46   A    
C66   H12   S    
C53   C54   D    
C38   C39   S    
C32   N2    Am   
Ba1   P1    S    
Ba1   Ba2   S    
C17   C18   A    
Ba1   O1    S    
Ba1   O5    S    
C1    H11   S    
C23   H50   S    
O2    P2    S    
O3    P3    S    
C3    O15   S    
C5    C6    S    
C51   C52   D    
C50   C51   S    
C57   N5    A    
C21   H44   S    
C24   C40   A    
C23   H22   S    
C54   P2    S    
C11   C16   D    
C34   C45   S    
Ba2   O12   S    
C10   O20   D    
C13   P8    S    
C67   H54   S    
C35   C36   S    
O27   P3    S    
C28   C29   A    
C61   H49   S    
C72   H70   S    
C46   H39   S    
C14   C15   D    
C19   H33   S    
C5    H24   S    
C31   C47   A    
C10   C20   A    
C22   C37   D    
C4    H20   S    
C27   H35   S    
C7    Cl1   S    
C49   C54   D    
C3    C68   S    
O23   P6    D    
C32   O21   D    
C25   C42   A    
C56   C64   S    
C36   P6    S    
C23   H51   S    
C69   H61   S    
Ba2   P4    S    
C70   H64   S    
Ba2   O5    S    
Ba1   O22   S    
C7    C8    S    
C7    H27   S    
O25   P6    S    
Ba1   O12   S    
C69   H62   S    
C3    H17   S    
C68   H58   S    
O7    P4    S    
C64   H8    S    
O14   P7    D    
Ba1   O27   S    
O28   P3    D    
O26   P2    D    
C67   H55   S    
C65   O2    S    
C65   H10   S    
C65   C67   S    
O16   P8    D    
C2    H1    S    
C7    O17   S    
C17   C41   A    
C12   H30   S    
C19   C43   A    
C52   C57   S    
C71   H67   S    
C50   P3    S    
C2    O25   S    
C63   C72   S    
C9    C18   A    
O5    P4    S    
Ba2   O4    S    
C65   C66   S    
Ba2   O6    S    
C26   C30   A    
C17   C20   A    
C6    H26   S    
C11   H37   S    
C37   C38   D    
C9    O18   D    
C72   H71   S    
C38   H42   S    
C71   H66   S    
Ba2   O9    S    
C4    H19   S    
C59   P7    S    
C58   C59   A    
C33   O19   D    
C8    H29   S    
O4    P4    D    
C41   C42   A    
C45   H2    S    
C55   N6    A    
C27   C28   A    
C43   H36   S    
C59   C63   A    
O13   P2    S    
C22   C36   S    
C29   C30   A    
C8    H28   S    
C70   H65   S    
C5    H23   S    
C28   H34   S    
C60   C61   A    
C15   C16   S    
O24   P1    S    
Ba1   O26   S    
C45   H3    S    
Ba1   O13   S    
C16   N1    S    
C56   O24   S    
C68   H57   S    
C20   C44   A    
C14   C21   D    
C11   C13   S    
O17   P8    S    
O8    P7    S    
C60   P5    S    
C58   H48   S    
C9    N1    Am   
O22   P6    S    
C40   C41   A    
C66   H13   S    
C1    C2    S    
C1    H16   S    
C69   H60   S    
C56   H6    S    
C55   C62   S    
C47   H41   S    
C12   O3    S    
C71   H68   S    
C42   C48   A    
C64   H9    S    
C52   C53   S    
C46   C47   A    
C60   C63   A    
O10   P5    D    
C6    H25   S    
O6    P8    S    
C49   C71   S    
C34   O7    S    
O15   P7    S    
C5    O11   S    
C33   N2    Am   
C57   N4    A    
C35   C70   S    
C44   C48   A    
C24   C26   A    
Ba2   O8    S    
C4    H18   S    
C58   C62   A    
C37   P1    S    
C1    H21   S    
C66   H14   S    
C30   C31   A    
C39   N2    S    
Ba1   P2    S    
C34   H53   S    
Ba2   O13   S    
C49   C50   S    
C55   N3    A    
C12   H40   S    
C72   H69   S    
C3    C4    S    
C2    H15   S    
C53   H47   S    
O12   P1    S    
N5    N6    A    
C64   H7    S    
C44   H38   S    
C13   C21   S    
C48   H43   S    
C31   C32   A    
C29   C33   A    
C67   H56   S    
C12   C23   S    
C35   C39   D    
C8    H31   S    
C34   H52   S    
C15   H32   S    
C45   H4    S    
O1    P1    D    
C61   C62   A    
O9    P5    S    
O11   P5    S    
C22   H45   S    
C10   N1    Am   
C18   C19   A    
C24   C27   A    
C70   H63   S    
C25   C26   A    
Ba2   O14   S    
C51   H46   S    
C68   H59   S    
Ba1   O8    S    
C40   C43   A    
C6    C69   S    
C56   H5    S    
N3    N4    A    
C14   P4    S    
