data_mof_unit_10115.cif
_audit_creation_date              2013-03-05T16:10:35-0500
_audit_creation_method            fapswitch 2.2
_symmetry_space_group_name_H-M    P1
_symmetry_Int_Tables_number       1
_space_group_crystal_system       triclinic
_cell_length_a                    16.785159
_cell_length_b                    17.563691
_cell_length_c                    9.926758
_cell_angle_alpha                 92.819717
_cell_angle_beta                  90.01666
_cell_angle_gamma                 89.989355
_cell_volume                      2922.95765851

loop_
_atom_site_label
_atom_site_type_symbol
_atom_site_description
_atom_site_fract_x
_atom_site_fract_y
_atom_site_fract_z
_atom_type_partial_charge
O1    O     O_R   0.091250 0.408820 0.620260 -0.512905
O2    O     O_R   0.091250 0.408820 0.379740 -0.520560
O3    O     O_R   0.091250 0.591180 0.620260 -0.520626
O4    O     O_R   0.091250 0.591180 0.379740 -0.512929
O5    O     O_R   0.591250 0.908820 0.620260 -0.512906
O6    O     O_R   0.591250 0.908820 0.379740 -0.520547
O7    O     O_R   0.591250 0.091180 0.620260 -0.520617
O8    O     O_R   0.591250 0.091180 0.379740 -0.512933
C1    C     C_R   0.119199 0.378163 0.498993 0.946889
C2    C     C_R   0.119131 0.621930 0.501025 0.946696
C3    C     C_R   0.619197 0.878159 0.498995 0.946904
C4    C     C_R   0.619125 0.121937 0.501026 0.946688
O9    O     O_R   0.908940 0.408800 0.620260 -0.557233
O10   O     O_R   0.908940 0.408800 0.379740 -0.530376
O11   O     O_R   0.908940 0.591200 0.620260 -0.530076
O12   O     O_R   0.908940 0.591200 0.379740 -0.557115
O13   O     O_R   0.408940 0.908800 0.620260 -0.557226
O14   O     O_R   0.408940 0.908800 0.379740 -0.530381
O15   O     O_R   0.408940 0.091200 0.620260 -0.530085
O16   O     O_R   0.408940 0.091200 0.379740 -0.557119
C5    C     C_R   0.881590 0.379871 0.498467 0.946211
C6    C     C_R   0.881380 0.619972 0.501475 0.945553
C7    C     C_R   0.381574 0.879884 0.498469 0.946156
C8    C     C_R   0.381371 0.119966 0.501476 0.945496
Cu1   Cu    Cu3+1 0.000100 0.500000 0.642410 1.146133
Cu2   Cu    Cu3+1 0.000100 0.500000 0.357590 1.146027
Cu3   Cu    Cu3+1 0.500100 0.000000 0.642410 1.146134
Cu4   Cu    Cu3+1 0.500100 0.000000 0.357590 1.146019
C9    C     C_3   0.821247 0.255174 0.619091 0.403061
C10   C     C_3   0.811747 0.257411 0.363267 0.407592
C11   C     C_3   0.811700 0.742471 0.636358 0.407018
C12   C     C_3   0.820895 0.744489 0.380528 0.402949
C13   C     C_3   0.321211 0.755218 0.619141 0.403070
C14   C     C_3   0.311758 0.757409 0.363304 0.407574
C15   C     C_3   0.311682 0.242461 0.636363 0.407017
C16   C     C_3   0.320893 0.244483 0.380538 0.402917
C17   C     C_3   0.243654 0.701784 0.633426 0.304053
C18   C     C_3   0.251805 0.685274 0.375079 0.295605
C19   C     C_3   0.252035 0.314816 0.624609 0.295913
C20   C     C_3   0.243461 0.298137 0.366388 0.304332
C21   C     C_3   0.743676 0.201763 0.633402 0.304036
C22   C     C_3   0.751781 0.185284 0.375042 0.295605
C23   C     C_3   0.752045 0.814820 0.624609 0.295910
C24   C     C_3   0.743453 0.798132 0.366392 0.304292
C25   C     C_3   0.723732 0.344470 0.510740 0.308496
C26   C     C_3   0.723261 0.655564 0.489410 0.309303
C27   C     C_3   0.223695 0.844471 0.510669 0.308530
C28   C     C_3   0.223241 0.155568 0.489407 0.309305
C29   C     C_3   0.813068 0.311703 0.497724 -0.452387
C30   C     C_3   0.812757 0.688096 0.502074 -0.452678
C31   C     C_3   0.313045 0.811721 0.497732 -0.452392
C32   C     C_3   0.312743 0.188089 0.502077 -0.452648
C33   C     C_3   0.188726 0.693775 0.498757 -0.437957
C34   C     C_3   0.188759 0.306354 0.501228 -0.438173
C35   C     C_3   0.688725 0.193781 0.498758 -0.437963
C36   C     C_3   0.688761 0.806349 0.501240 -0.438166
C37   C     C_3   0.155300 0.779240 0.483254 0.502403
C38   C     C_3   0.155151 0.221064 0.517036 0.501830
C39   C     C_3   0.655313 0.279261 0.483311 0.502398
C40   C     C_3   0.655165 0.721052 0.517071 0.501847
C41   C     C_3   0.962241 0.568509 0.090011 0.188342
C42   C     C_3   0.951341 0.562711 0.926733 0.142962
C43   C     C_3   0.951644 0.437064 0.073347 0.143153
C44   C     C_3   0.962520 0.431334 0.910033 0.187756
C45   C     C_3   0.462242 0.068511 0.090012 0.188349
C46   C     C_3   0.451336 0.062709 0.926734 0.142957
C47   C     C_3   0.451642 0.937064 0.073348 0.143153
C48   C     C_3   0.462517 0.931336 0.910035 0.187779
H1    H     H_    0.901097 0.571629 0.131290 0.182037
H2    H     H_    0.886939 0.552287 0.905042 0.148373
H3    H     H_    0.887194 0.447234 0.094999 0.148534
H4    H     H_    0.901372 0.427989 0.868745 0.182211
H5    H     H_    0.401100 0.071631 0.131296 0.182042
H6    H     H_    0.386933 0.052281 0.905049 0.148355
H7    H     H_    0.387192 0.947236 0.095003 0.148531
H8    H     H_    0.401369 0.928002 0.868753 0.182196
C49   C     C_3   0.080967 0.488611 0.074603 0.430783
C50   C     C_3   0.080894 0.511646 0.925370 0.430916
C51   C     C_3   0.580968 0.988607 0.074602 0.430770
C52   C     C_3   0.580892 0.011649 0.925371 0.430903
N1    N     N_3   0.001260 0.500000 0.143650 -0.361113
N2    N     N_3   0.001260 0.500000 0.856350 -0.360903
N3    N     N_3   0.501260 0.000000 0.143650 -0.361127
N4    N     N_3   0.501260 0.000000 0.856350 -0.360899
Cl1   Cl    Cl    0.843787 0.299087 0.780606 -0.348663
Cl2   Cl    Cl    0.794284 0.317172 0.221077 -0.330191
Cl3   Cl    Cl    0.793963 0.682818 0.778573 -0.329664
Cl4   Cl    Cl    0.842927 0.700335 0.219024 -0.348983
Cl5   Cl    Cl    0.343691 0.799168 0.780655 -0.348763
Cl6   Cl    Cl    0.294308 0.817141 0.221078 -0.330165
Cl7   Cl    Cl    0.293941 0.182809 0.778579 -0.329649
Cl8   Cl    Cl    0.342930 0.200327 0.219035 -0.349005
Br1   Br    Br    0.920522 0.199128 0.606444 -0.096480
Br2   Br    Br    0.910120 0.215494 0.293456 -0.053184
Br3   Br    Br    0.910296 0.784032 0.705623 -0.054283
Br4   Br    Br    0.920431 0.800164 0.392797 -0.096927
Br5   Br    Br    0.420519 0.699216 0.606590 -0.096487
Br6   Br    Br    0.410149 0.715510 0.293565 -0.053248
Br7   Br    Br    0.410277 0.284011 0.705643 -0.054298
Br8   Br    Br    0.420442 0.300143 0.392852 -0.096994
Br9   Br    Br    0.278959 0.606565 0.701532 -0.128486
Br10  Br    Br    0.304563 0.585371 0.386161 -0.166617
Br11  Br    Br    0.305021 0.414566 0.613157 -0.165987
Br12  Br    Br    0.278929 0.393214 0.298023 -0.128048
Br13  Br    Br    0.778955 0.106525 0.701474 -0.128510
Br14  Br    Br    0.804527 0.085371 0.386078 -0.166650
Br15  Br    Br    0.805026 0.914570 0.613152 -0.165977
Br16  Br    Br    0.778907 0.893209 0.298023 -0.128081
Br17  Br    Br    0.180454 0.741335 0.787712 -0.070475
Br18  Br    Br    0.209859 0.674279 0.195068 -0.074320
Br19  Br    Br    0.210665 0.326264 0.804834 -0.073845
Br20  Br    Br    0.179888 0.258793 0.212381 -0.069967
Br21  Br    Br    0.680519 0.241335 0.787732 -0.070513
Br22  Br    Br    0.709789 0.174311 0.195041 -0.074312
Br23  Br    Br    0.710679 0.826268 0.804836 -0.073858
Br24  Br    Br    0.679866 0.758780 0.212408 -0.069990
Br25  Br    Br    0.711459 0.403354 0.683210 -0.155819
Br26  Br    Br    0.704152 0.427615 0.396116 -0.144084
Br27  Br    Br    0.703266 0.572485 0.604045 -0.141966
Br28  Br    Br    0.710347 0.596738 0.317058 -0.154035
Br29  Br    Br    0.211365 0.903374 0.683095 -0.155748
Br30  Br    Br    0.204104 0.927578 0.395974 -0.144016
Br31  Br    Br    0.203214 0.072511 0.604064 -0.141938
Br32  Br    Br    0.210336 0.096730 0.317071 -0.154081
Cl9   Cl    Cl    0.072303 0.800874 0.584000 -0.322033
Cl10  Cl    Cl    0.104593 0.789633 0.326124 -0.253117
Cl11  Cl    Cl    0.104741 0.211018 0.674463 -0.253196
Cl12  Cl    Cl    0.071955 0.199872 0.416597 -0.323692
Cl13  Cl    Cl    0.572331 0.300912 0.584111 -0.321908
Cl14  Cl    Cl    0.604589 0.289692 0.326187 -0.253092
Cl15  Cl    Cl    0.604775 0.710990 0.674517 -0.253138
Cl16  Cl    Cl    0.571960 0.699842 0.416675 -0.323664
Cl17  Cl    Cl    0.009822 0.653285 0.158568 -0.262291
Cl18  Cl    Cl    0.964279 0.652862 0.861645 -0.275176
Cl19  Cl    Cl    0.965105 0.346999 0.138850 -0.275147
Cl20  Cl    Cl    0.010358 0.346703 0.841596 -0.262096
Cl21  Cl    Cl    0.509827 0.153291 0.158557 -0.262289
Cl22  Cl    Cl    0.464259 0.152861 0.861639 -0.275180
Cl23  Cl    Cl    0.465099 0.846997 0.138848 -0.275118
Cl24  Cl    Cl    0.510337 0.846696 0.841588 -0.262103
Br33  Br    Br    0.167864 0.511311 0.180366 -0.178367
Br34  Br    Br    0.125413 0.608102 0.931375 -0.122268
Br35  Br    Br    0.126000 0.392297 0.068429 -0.122110
Br36  Br    Br    0.167714 0.488998 0.819470 -0.178510
Br37  Br    Br    0.667876 0.011312 0.180353 -0.178342
Br38  Br    Br    0.625394 0.108116 0.931384 -0.122267
Br39  Br    Br    0.625994 0.892285 0.068420 -0.122098
Br40  Br    Br    0.667708 0.988995 0.819477 -0.178517

loop_
_geom_bond_atom_site_label_1
_geom_bond_atom_site_label_2
_geom_bond_distance
_ccdc_geom_bond_type
C25   Br26  1.923114 S    
C8    C32   1.660520 S    
C9    Br1   1.936189 S    
C44   Cl20  1.793403 S    
C39   Cl14  1.794014 S    
C47   N3    1.525335 S    
C25   C39   1.635362 S    
C35   C39   1.616903 S    
C52   N4    1.511187 S    
C40   Cl16  1.745093 S    
C28   Br31  1.923604 S    
C5    C29   1.660135 S    
C41   Cl17  1.794016 S    
C51   Br37  1.829530 S    
C9    C29   1.604264 S    
C49   C50   1.554729 S    
C38   Cl12  1.745155 S    
C27   C31   1.609086 S    
C14   C31   1.601840 S    
O13   C7    1.367454 A    
C26   C40   1.635068 S    
C11   C23   1.626347 S    
C43   N1    1.525330 S    
O10   C5    1.384652 A    
Cu3   N4    2.123814 S    
O5    C3    1.376789 A    
C28   C32   1.610017 S    
C50   Br36  1.829361 S    
C50   Br34  1.850005 S    
C37   Cl9   1.746011 S    
C45   N3    1.490938 S    
C19   C34   1.622219 S    
C20   Br12  1.927601 S    
C41   H1    1.105544 S    
C46   H6    1.115593 S    
O7    Cu3   2.233731 S    
C42   H2    1.115571 S    
C2    C33   1.720687 S    
C24   C36   1.623915 S    
C21   C35   1.624114 S    
C23   Br23  1.920580 S    
O5    Cu3   2.217758 S    
C22   Br22  1.921492 S    
O11   C6    1.384919 A    
O6    Cu4   2.233237 S    
O16   C8    1.367447 A    
C51   N3    1.512208 S    
C49   N1    1.512191 S    
C10   Cl2   1.823545 S    
C47   Cl23  1.754201 S    
O13   Cu3   2.218450 S    
C9    Cl1   1.785139 S    
C16   C32   1.604096 S    
C6    C30   1.660476 S    
C17   C33   1.624115 S    
C16   Cl8   1.785063 S    
C19   Br19  1.920576 S    
C42   N2    1.525676 S    
C38   Cl11  1.793656 S    
Cu4   N3    2.123826 S    
O1    Cu1   2.217758 S    
O9    Cu1   2.218450 S    
C15   Br7   1.922176 S    
C40   Cl15  1.793700 S    
C24   Br16  1.927538 S    
O12   Cu2   2.218126 S    
O7    C4    1.405342 A    
C11   Cl3   1.823522 S    
C26   Br28  1.966625 S    
O14   C7    1.384664 A    
C48   N4    1.491662 S    
C16   C20   1.615398 S    
O14   Cu4   2.234102 S    
C51   C52   1.554752 S    
C16   Br8   1.936853 S    
C45   H5    1.105544 S    
O6    C3    1.404910 A    
C33   C37   1.616826 S    
C27   Br30  1.923074 S    
C51   Br39  1.851055 S    
O16   Cu4   2.218126 S    
Cu1   Cu2   2.827338 S    
C13   C17   1.615316 S    
C13   C31   1.604258 S    
C47   C48   1.629652 S    
C43   Cl19  1.754173 S    
C15   C19   1.626351 S    
C49   Br35  1.850980 S    
C13   Cl5   1.785167 S    
C22   C35   1.622776 S    
C27   C37   1.635309 S    
C50   N2    1.511206 S    
C7    C31   1.660161 S    
C14   Cl6   1.823493 S    
C46   Cl22  1.752895 S    
C25   C29   1.609015 S    
O8    C4    1.376982 A    
C12   C30   1.604115 S    
C12   C24   1.615391 S    
O1    C1    1.376799 A    
O2    Cu2   2.233237 S    
C23   Br15  1.973174 S    
O10   Cu2   2.234102 S    
C28   C38   1.635058 S    
C22   Br14  1.973234 S    
C44   N2    1.491657 S    
C21   Br13  1.927676 S    
C12   Br4   1.936790 S    
C10   C29   1.601892 S    
C43   H3    1.115658 S    
Cu2   N1    2.123826 S    
C20   C34   1.623937 S    
Cu1   N2    2.123814 S    
O8    Cu4   2.218079 S    
C48   Cl24  1.793418 S    
C18   Br18  1.921324 S    
C11   C30   1.601261 S    
O4    C2    1.376966 A    
C37   Cl10  1.793837 S    
O15   Cu3   2.233606 S    
C34   C38   1.615665 S    
C25   Br25  1.967008 S    
C39   Cl13  1.746163 S    
O12   C6    1.367421 A    
C9    C21   1.615292 S    
C14   C18   1.626835 S    
C17   Br17  1.962041 S    
C21   Br21  1.962091 S    
C28   Br32  1.966573 S    
O4    Cu2   2.218079 S    
C19   Br11  1.973203 S    
C48   H8    1.105548 S    
C26   C30   1.609985 S    
C42   Cl18  1.752883 S    
O15   C8    1.384919 A    
C45   Cl21  1.794072 S    
C10   Br2   1.923212 S    
O3    C2    1.405332 A    
C41   N1    1.490927 S    
O9    C5    1.367459 A    
C17   Br9   1.927642 S    
C20   Br20  1.961831 S    
C18   C33   1.622742 S    
C11   Br3   1.922200 S    
C52   Br38  1.850057 S    
C14   Br6   1.923104 S    
C26   Br27  1.923682 S    
C13   Br5   1.936245 S    
C44   H4    1.105570 S    
C41   C42   1.629261 S    
C49   Br33  1.829415 S    
C4    C35   1.720728 S    
C27   Br29  1.966907 S    
C46   N4    1.525701 S    
C43   C44   1.629655 S    
C36   C40   1.615734 S    
C23   C36   1.622234 S    
C52   Br40  1.829293 S    
O3    Cu1   2.233731 S    
C47   H7    1.115663 S    
C24   Br24  1.961834 S    
O11   Cu1   2.233606 S    
C18   Br10  1.973192 S    
C45   C46   1.629270 S    
C15   C32   1.601243 S    
C10   C22   1.626873 S    
C1    C34   1.719498 S    
O2    C1    1.404873 A    
C3    C36   1.719556 S    
C15   Cl7   1.823539 S    
Cu3   Cu4   2.827338 S    
C12   Cl4   1.785050 S    
