data_mof_unit_47749.cif
_audit_creation_date              2012-12-10T17:37:18-0500
_audit_creation_method            fapswitch 2.2
_symmetry_space_group_name_H-M    P1
_symmetry_Int_Tables_number       1
_space_group_crystal_system       triclinic
_cell_length_a                    12.37532
_cell_length_b                    13.230523
_cell_length_c                    15.860721
_cell_angle_alpha                 76.213682
_cell_angle_beta                  102.01985
_cell_angle_gamma                 116.914986
_cell_volume                      2233.73906573

loop_
_atom_site_label
_atom_site_type_symbol
_atom_type_description
_atom_site_fract_x
_atom_site_fract_y
_atom_site_fract_z
_atom_type_partial_charge
C1    C     C_R   0.855649 0.287354 0.500699 0.807635
C2    C     C_3   0.000358 0.496462 0.917926 0.048139
C3    C     C_3   0.055421 0.605040 0.016477 -0.199267
C4    C     C_3   0.998249 0.496174 0.083568 0.043048
C5    C     C_3   0.940171 0.557294 0.950435 -0.200740
C6    C     C_3   0.882868 0.448352 0.018975 -0.260101
C7    C     C_1   0.000881 0.497220 0.826086 0.048015
C8    C     C_1   0.997928 0.497070 0.175032 0.024666
C9    C     C_R   0.271064 0.034102 0.402507 -0.242477
C10   C     C_R   0.228490 0.837892 0.472052 -0.134155
C11   C     C_R   0.823079 0.080739 0.507220 -0.090026
C12   C     C_R   0.000189 0.499312 0.660163 0.844612
C13   C     C_R   0.741412 0.963528 0.516121 0.398032
C14   C     C_R   0.616547 0.930670 0.504812 -0.249447
C15   C     C_R   0.567682 0.012377 0.475928 0.040684
C16   C     C_R   0.649217 0.130108 0.458483 0.074576
C17   C     C_R   0.439880 0.980329 0.460430 0.108612
C18   C     C_R   0.396183 0.063406 0.416639 0.095269
C19   C     C_R   0.477862 0.175354 0.387962 -0.225941
C20   C     C_R   0.602394 0.208097 0.407961 -0.167917
C21   C     C_R   0.354138 0.868332 0.487874 -0.310702
C22   C     C_R   0.187665 0.924258 0.434128 0.374923
C23   C     C_R   0.145327 0.714299 0.488416 0.823763
C24   C     C_R   0.775802 0.165352 0.487730 -0.216816
C25   C     C_R   0.356855 0.340816 0.648992 -0.328097
C26   C     C_R   0.747215 0.638173 0.376200 0.249424
C27   C     C_R   0.663397 0.685544 0.363541 -0.177561
C28   C     C_R   0.570315 0.639603 0.415662 -0.171714
C29   C     C_R   0.559262 0.544941 0.481361 0.022363
C30   C     C_R   0.658310 0.511034 0.502055 0.269290
C31   C     C_R   0.453464 0.483375 0.527196 -0.021479
C32   C     C_R   0.455250 0.398430 0.599920 0.094235
C33   C     C_R   0.554110 0.369706 0.622486 -0.243549
C34   C     C_R   0.999523 0.500004 0.339958 0.788528
C35   C     C_R   0.651659 0.422339 0.573111 -0.155770
C36   C     C_R   0.344024 0.499914 0.502583 -0.059087
C37   C     C_R   0.253509 0.362077 0.623519 0.572429
C38   C     C_3   0.057827 0.435926 0.050596 0.395601
C39   C     C_3   0.943754 0.388673 0.985230 0.403925
C40   C     C_1   0.000852 0.498128 0.750291 -0.112368
C41   C     C_1   0.998080 0.498473 0.250340 -0.141264
C42   C     C_3   0.115759 0.544231 0.982579 -0.228682
Cu1   Cu    Cu3+1 0.098270 0.475420 0.519690 0.993665
Cu2   Cu    Cu3+1 0.901730 0.524580 0.480310 0.981944
H1    H     H_    0.383124 0.803184 0.523819 0.176559
H2    H     H_    0.560056 0.839513 0.511970 0.166075
H3    H     H_    0.660809 0.293787 0.379262 0.165674
H4    H     H_    0.554192 0.302689 0.677344 0.166760
H5    H     H_    0.359008 0.277426 0.706245 0.176157
H6    H     H_    0.334410 0.560585 0.446079 0.142164
H7    H     H_    0.505305 0.676551 0.400803 0.138605
H8    H     H_    0.661568 0.749660 0.306751 0.154489
H9    H     H_    0.718899 0.389244 0.592151 0.204844
H10   H     H_    0.787457 0.408552 0.034808 0.169564
H11   H     H_    0.891896 0.607638 0.908010 0.171338
H12   H     H_    0.100979 0.694264 0.030614 0.165041
H13   H     H_    0.211181 0.583047 0.966892 0.179134
H14   H     H_    0.445415 0.238480 0.350880 0.149199
H15   H     H_    0.238175 0.097997 0.368793 0.178259
N1    N     N_R   0.246280 0.438200 0.549540 -0.209523
N2    N     N_R   0.754330 0.561180 0.450980 -0.217429
O1    O     O_R   0.972510 0.318130 0.524770 -0.536100
O2    O     O_R   0.806530 0.359650 0.491510 -0.620847
O3    O     O_R   0.082970 0.479240 0.637550 -0.516221
O4    O     O_R   0.916990 0.520750 0.604290 -0.588387
O5    O     O_R   0.193470 0.640350 0.508490 -0.600573
O6    O     O_R   0.027490 0.681870 0.475230 -0.511976
O7    O     O_R   0.083010 0.479250 0.395710 -0.587672
O8    O     O_R   0.917030 0.520760 0.362450 -0.586070
Cl1   Cl    Cl    0.869736 0.245053 0.963527 -0.538430
C43   C     C_R   0.954810 0.112527 0.507646 0.167955
C44   C     C_R   0.020969 0.072757 0.580058 0.040007
C45   C     C_R   0.143959 0.101031 0.578523 -0.072920
C46   C     C_R   0.202785 0.172207 0.506047 -0.152135
C47   C     C_R   0.137950 0.212210 0.433750 -0.104863
C48   C     C_R   0.013946 0.180815 0.433737 -0.033263
H16   H     H_    0.977620 0.020640 0.637860 0.161941
H17   H     H_    0.194489 0.070160 0.634394 0.139404
H18   H     H_    0.298891 0.196640 0.506044 0.144264
H19   H     H_    0.183674 0.267001 0.377531 0.151620
H20   H     H_    0.964372 0.211274 0.376816 0.119413
Cl2   Cl    Cl    0.790258 0.852487 0.538014 -0.586295
Cl3   Cl    Cl    0.134015 0.285952 0.689353 -0.598573
C49   C     C_R   0.791430 0.644652 0.294725 0.112996
C50   C     C_R   0.727050 0.552496 0.247741 -0.122810
C51   C     C_R   0.754676 0.561322 0.164462 -0.120346
C52   C     C_R   0.845327 0.662701 0.126691 -0.105061
C53   C     C_R   0.907771 0.755573 0.171896 -0.136588
C54   C     C_R   0.879412 0.747426 0.254827 -0.131594
H21   H     H_    0.654562 0.474371 0.275400 0.110546
H22   H     H_    0.705239 0.489853 0.129009 0.136490
H23   H     H_    0.866297 0.669720 0.062064 0.142672
H24   H     H_    0.976250 0.834884 0.141814 0.159401
H25   H     H_    0.923103 0.822318 0.285972 0.199816
Cl4   Cl    Cl    0.135617 0.355255 0.118440 -0.580721
Cl5   Cl    Cl    0.036410 0.903870 0.430946 -0.598205

loop_
_geom_bond_atom_site_label_1
_geom_bond_atom_site_label_2
_ccdc_geom_bond_type
C52   C53   A    
C3    C42   S    
C35   H9    S    
C45   C46   A    
C19   C20   A    
C4    C8    S    
C1    O1    A    
C14   H2    S    
C50   C51   A    
C10   C22   A    
C26   C27   A    
C44   H16   S    
C30   C35   A    
C5    C6    S    
C23   O5    A    
C28   C29   A    
C26   N2    A    
C38   C42   S    
C51   H22   S    
C38   C39   S    
C12   O3    A    
C28   H7    S    
C11   C43   S    
C9    C22   A    
C15   C16   A    
C11   C24   A    
C18   C19   A    
C23   O6    A    
C54   H25   S    
C47   C48   A    
C25   C37   A    
C7    C40   T    
C2    C39   S    
C2    C7    S    
Cu1   O7    S    
C38   Cl4   S    
C45   H17   S    
C47   H19   S    
C25   C32   A    
C10   C21   A    
C52   H23   S    
Cu2   O4    S    
C34   C41   S    
C6    H10   S    
C1    O2    A    
C42   H13   S    
Cu1   O3    S    
C21   H1    S    
C19   H14   S    
C46   C47   A    
C20   H3    S    
C49   C50   A    
C4    C6    S    
C34   O7    A    
C51   C52   A    
C36   N1    A    
C13   Cl2   S    
C17   C21   A    
C9    H15   S    
C12   C40   S    
Cu1   Cu2   S    
C29   C30   A    
C3    H12   S    
C31   C32   A    
C14   C15   A    
C16   C20   A    
C17   C18   A    
Cu2   O8    S    
C8    C41   T    
C34   O8    A    
Cu1   N1    S    
C4    C38   S    
C46   H18   S    
Cu2   N2    S    
C2    C5    S    
C49   C54   A    
C3    C4    S    
C36   H6    S    
C27   H8    S    
C15   C17   A    
C53   H24   S    
C26   C49   S    
C31   C36   A    
C22   Cl5   S    
C5    H11   S    
C44   C45   A    
C3    C5    S    
C48   H20   S    
C50   H21   S    
C10   C23   S    
C12   O4    A    
C32   C33   A    
C43   C44   A    
C29   C31   A    
C11   C13   A    
C43   C48   A    
C2    C42   S    
Cu1   O5    S    
C33   C35   A    
C39   Cl1   S    
C25   H5    S    
C37   N1    A    
C9    C18   A    
C53   C54   A    
C1    C24   S    
C16   C24   A    
Cu2   O2    S    
C30   N2    A    
C27   C28   A    
C33   H4    S    
C6    C39   S    
C37   Cl3   S    
Cu2   O6    S    
C13   C14   A    
Cu1   O1    S    
