data_mof_unit_5656.cif
_audit_creation_date              2012-12-11T20:17:21-0500
_audit_creation_method            fapswitch 2.2
_symmetry_space_group_name_H-M    P1
_symmetry_Int_Tables_number       1
_space_group_crystal_system       triclinic
_cell_length_a                    8.269474
_cell_length_b                    17.472909
_cell_length_c                    18.708592
_cell_angle_alpha                 99.590438
_cell_angle_beta                  93.259065
_cell_angle_gamma                 98.657255
_cell_volume                      2625.76409298

loop_
_atom_site_label
_atom_site_type_symbol
_atom_type_description
_atom_site_fract_x
_atom_site_fract_y
_atom_site_fract_z
_atom_type_partial_charge
Ba1   Ba    Ba6+2 0.852650 0.537180 0.468240 1.621774
Ba2   Ba    Ba6+2 0.337190 0.462880 0.531770 1.619745
C1    C     C_3   0.569162 0.808060 0.293419 -0.371561
C2    C     C_3   0.437447 0.513496 0.244758 -0.012515
C3    C     C_2   0.373649 0.524061 0.169727 -0.124832
C4    C     C_3   0.078448 0.705874 0.283352 0.343437
C5    C     C_2   0.210248 0.505910 0.148488 -0.082140
C6    C     C_2   0.095934 0.480699 0.203303 -0.142097
C7    C     C_1   0.153319 0.481418 0.271486 0.075954
C8    C     C_R   0.031499 0.511700 0.932625 0.448160
C9    C     C_R   0.145977 0.509534 0.072525 0.458023
C10   C     C_R   0.078159 0.536749 0.804712 -0.142283
C11   C     C_R   0.025669 0.526724 0.730232 0.076373
C12   C     C_3   0.574411 0.728099 0.314752 0.297358
C13   C     C_R   0.755976 0.465964 0.754390 0.027878
C14   C     C_R   0.809284 0.473284 0.828270 -0.155831
C15   C     C_R   0.971522 0.508714 0.854720 -0.072269
C16   C     C_3   0.131721 0.712791 0.207309 -0.216384
C17   C     C_R   0.864499 0.492287 0.706052 -0.274929
C18   C     C_2   0.437187 0.722399 0.485833 -0.255750
C19   C     C_3   0.315208 0.778974 0.492186 -0.011868
C20   C     C_2   0.397533 0.862856 0.492610 -0.123266
C21   C     C_2   0.563460 0.882159 0.505091 -0.004381
C22   C     C_2   0.662350 0.817985 0.509841 -0.145352
C23   C     C_3   0.439935 0.337829 0.306495 0.313721
C24   C     C_1   0.587656 0.747432 0.515811 0.070929
C25   C     C_R   0.826579 0.137136 0.521568 -0.136946
C26   C     C_R   0.868708 0.218029 0.542433 0.005039
C27   C     C_R   0.619672 0.236554 0.477584 0.036513
C28   C     C_3   0.207217 0.709329 0.629160 0.333859
C29   C     C_R   0.571163 0.154169 0.461413 -0.144788
C30   C     C_R   0.670382 0.103593 0.487855 0.020070
C31   C     C_2   0.646903 0.965978 0.522629 0.039796
C32   C     C_2   0.609103 0.016812 0.477953 -0.096697
C33   C     C_R   0.764376 0.267715 0.521558 -0.258816
C34   C     C_3   0.395858 0.307633 0.225595 -0.405822
C35   C     C_3   0.144840 0.787260 0.649333 -0.363854
C36   C     C_3   0.954819 0.294126 0.370165 0.312583
C37   C     C_3   0.963364 0.206163 0.351249 -0.223826
C38   C     C_3   0.633866 0.675123 0.706114 0.289477
C39   C     C_3   0.666777 0.724410 0.784879 -0.075448
C40   C     C_3   0.830727 0.161067 0.291607 -0.182047
C41   C     C_3   0.887235 0.160489 0.214556 -0.175394
C42   C     C_3   0.754284 0.114776 0.156723 -0.447563
C43   C     C_3   0.700982 0.675475 0.844148 -0.269818
C44   C     C_3   0.548539 0.622276 0.861878 -0.202186
C45   C     C_3   0.994338 0.251738 0.720765 0.385435
C46   C     C_3   0.585213 0.585327 0.928817 -0.360448
C47   C     C_3   0.531590 0.774555 0.806040 -0.218641
C48   C     C_3   0.539498 0.846003 0.769118 -0.419579
C49   C     C_3   0.022230 0.329417 0.774944 -0.154117
C50   C     C_3   0.167314 0.337419 0.832049 -0.336325
C51   C     C_3   0.586959 0.147120 0.753405 -0.200900
C52   C     C_3   0.551674 0.100241 0.814654 -0.441380
C53   C     C_3   0.314079 0.110168 0.673870 -0.245449
C54   C     C_3   0.371469 0.079050 0.600746 -0.418166
C55   C     C_3   0.775901 0.990439 0.588313 -0.193277
C56   C     C_3   0.986425 0.181663 0.760689 -0.398147
C57   C     C_3   0.752189 0.946073 0.652902 -0.207781
C58   C     C_3   0.914782 0.949712 0.697633 -0.437208
C59   C     C_3   0.113797 0.792325 0.185454 -0.199787
C60   C     C_3   0.937674 0.794417 0.156697 -0.415042
C61   C     C_3   0.495562 0.251258 0.687663 0.313299
C62   C     C_3   0.437285 0.177558 0.722512 -0.012851
C63   C     C_2   0.303507 0.516002 0.296225 -0.262370
H1    H     H_    0.661220 0.737798 0.364095 0.075935
H2    H     H_    0.503612 0.668394 0.687574 0.063867
H3    H     H_    0.695667 0.838583 0.290361 0.100462
H4    H     H_    0.783412 0.766248 0.786663 0.122536
H5    H     H_    0.449508 0.703141 0.327014 0.010467
H6    H     H_    0.509852 0.844833 0.335068 0.103013
H7    H     H_    0.327696 0.353589 0.331039 0.029133
H8    H     H_    0.536261 0.390828 0.313700 0.038963
H9    H     H_    0.303142 0.253214 0.217531 0.120816
H10   H     H_    0.343320 0.352287 0.200041 0.065988
H11   H     H_    0.507221 0.294461 0.198591 0.120291
H12   H     H_    0.232881 0.828863 0.689515 0.085206
H13   H     H_    0.498755 0.801486 0.239896 0.125291
H14   H     H_    0.262068 0.704186 0.205849 0.097693
H15   H     H_    0.873635 0.246437 0.689544 -0.047098
H16   H     H_    0.109298 0.171869 0.779225 0.112706
H17   H     H_    0.922819 0.191011 0.811163 0.090508
H18   H     H_    0.924164 0.128652 0.723155 0.084707
H19   H     H_    0.603433 0.241982 0.656260 -0.048447
H20   H     H_    0.399706 0.262383 0.649507 0.132890
H21   H     H_    0.949143 0.714904 0.286742 0.090604
H22   H     H_    0.372712 0.198927 0.770398 0.112865
H23   H     H_    0.126852 0.814470 0.600707 0.067802
H24   H     H_    0.461641 0.540584 0.131834 0.102164
H25   H     H_    0.966277 0.461336 0.186913 0.116113
H26   H     H_    0.202506 0.564669 0.822976 0.083298
H27   H     H_    0.726268 0.448044 0.864005 0.102147
H28   H     H_    0.329121 0.547565 0.351807 0.061844
H29   H     H_    0.823531 0.485171 0.648984 0.080388
H30   H     H_    0.516043 0.993914 0.432955 0.068855
H31   H     H_    0.794893 0.833423 0.521703 0.125412
H32   H     H_    0.918809 0.101415 0.530509 0.063822
H33   H     H_    0.089119 0.645031 0.290302 0.041742
H34   H     H_    0.026306 0.777842 0.673716 0.160738
H35   H     H_    0.321302 0.908289 0.492436 0.063739
H36   H     H_    0.456450 0.129769 0.429205 0.068718
H37   H     H_    0.398509 0.660859 0.461774 0.066644
H38   H     H_    0.802303 0.330823 0.534398 0.063697
H39   H     H_    0.059062 0.663992 0.166852 0.095410
H40   H     H_    0.336820 0.721924 0.617532 -0.076454
H41   H     H_    0.135254 0.675700 0.579289 0.089521
H42   H     H_    0.722151 0.053245 0.165180 0.134088
H43   H     H_    0.642659 0.143153 0.158993 0.139517
H44   H     H_    0.799862 0.113968 0.101822 0.125693
H45   H     H_    0.829928 0.302976 0.383526 -0.010786
H46   H     H_    0.916918 0.221253 0.204010 0.161361
H47   H     H_    0.999464 0.132629 0.209344 0.108050
H48   H     H_    0.802766 0.099220 0.300306 0.099910
H49   H     H_    0.715160 0.186164 0.296479 0.140308
H50   H     H_    0.512119 0.524776 0.922149 0.150746
H51   H     H_    0.717460 0.581345 0.936479 0.133000
H52   H     H_    0.551626 0.621829 0.979411 0.147107
H53   H     H_    0.446115 0.656078 0.873702 0.116819
H54   H     H_    0.506265 0.575691 0.813625 0.149924
H55   H     H_    0.796357 0.639295 0.827036 0.102888
H56   H     H_    0.041518 0.318786 0.418806 0.069858
H57   H     H_    0.753835 0.716840 0.894824 0.118143
H58   H     H_    0.657554 0.885970 0.786433 0.130847
H59   H     H_    0.525110 0.827349 0.709142 0.133475
H60   H     H_    0.439120 0.878950 0.786062 0.116518
H61   H     H_    0.408068 0.738408 0.792738 0.143155
H62   H     H_    0.545389 0.796669 0.865744 0.112509
H63   H     H_    0.130272 0.304054 0.876460 0.099295
H64   H     H_    0.274114 0.314766 0.806955 0.181794
H65   H     H_    0.206934 0.400497 0.856574 0.138367
H66   H     H_    0.045884 0.377742 0.743258 0.107833
H67   H     H_    0.088470 0.197997 0.335454 0.112731
H68   H     H_    0.908502 0.334943 0.803168 0.070292
H69   H     H_    0.522295 0.139540 0.863913 0.134004
H70   H     H_    0.448730 0.050607 0.798359 0.128346
H71   H     H_    0.663055 0.075367 0.829159 0.127448
H72   H     H_    0.640094 0.111055 0.709440 0.108071
H73   H     H_    0.677693 0.199000 0.776261 0.131519
H74   H     H_    0.415670 0.128374 0.573427 0.153551
H75   H     H_    0.468697 0.043693 0.608912 0.138486
H76   H     H_    0.267099 0.040767 0.565714 0.120192
H77   H     H_    0.284755 0.060255 0.703096 0.108934
H78   H     H_    0.946280 0.180476 0.401116 0.052986
H79   H     H_    0.194796 0.128271 0.662729 0.160465
H80   H     H_    0.012198 0.935459 0.661796 0.131804
H81   H     H_    0.954443 0.008315 0.731125 0.128027
H82   H     H_    0.901586 0.906310 0.734676 0.127252
H83   H     H_    0.663476 0.971683 0.688308 0.116457
H84   H     H_    0.702414 0.883581 0.636107 0.126366
H85   H     H_    0.897577 0.984561 0.567344 0.101838
H86   H     H_    0.775795 0.052411 0.613342 0.090295
H87   H     H_    0.901445 0.749493 0.106486 0.140375
H88   H     H_    0.850967 0.782773 0.198044 0.160509
H89   H     H_    0.669563 0.616201 0.703946 0.002781
H90   H     H_    0.929061 0.853347 0.143376 0.115311
H91   H     H_    0.153568 0.841451 0.232213 0.148545
H92   H     H_    0.195665 0.802049 0.141479 0.111321
N1    N     N_R   0.189885 0.541713 0.957451 -0.265668
N2    N     N_R   0.245753 0.540597 0.025638 -0.263119
N3    N     N_R   0.987015 0.480351 0.048034 -0.247987
N4    N     N_R   0.931332 0.481208 0.979731 -0.254384
O1    O     O_2   0.865200 0.455450 0.325860 -0.463380
O2    O     O_2   0.203963 0.224955 0.541333 -0.503452
O3    O     O_3   0.126434 0.250930 0.676480 -0.617962
O4    O     O_3   0.117880 0.456770 0.413320 -0.490833
O5    O     O_3   0.582730 0.595670 0.541910 -0.483012
O6    O     O_2   0.334130 0.306180 0.453490 -0.464071
O7    O     O_3   0.498949 0.278478 0.337299 -0.650664
O8    O     O_2   0.410950 0.443929 0.748285 -0.490927
O9    O     O_3   0.539763 0.315928 0.745220 -0.642862
O10   O     O_3   0.657770 0.599920 0.378120 -0.481864
O11   O     O_2   0.781649 0.558390 0.252910 -0.496048
O12   O     O_3   0.728921 0.715791 0.660935 -0.657872
O13   O     O_3   0.995409 0.329563 0.310359 -0.650829
O14   O     O_3   0.628577 0.677693 0.257788 -0.614474
O15   O     O_2   0.855570 0.693850 0.546560 -0.473097
O16   O     O_3   0.082050 0.640900 0.416060 -0.487002
O17   O     O_2   0.982433 0.778678 0.440927 -0.512140
O18   O     O_3   0.181079 0.761194 0.336426 -0.634104
O19   O     O_2   0.324510 0.544570 0.674190 -0.481114
O20   O     O_3   0.071830 0.543290 0.586690 -0.490967
O21   O     O_3   0.531950 0.400150 0.621890 -0.476147
O22   O     O_3   0.199133 0.670886 0.689144 -0.655318
O23   O     O_3   0.606980 0.404400 0.458100 -0.472091
O24   O     O_3   0.107660 0.359170 0.583950 -0.459880
P1    P     P_3+3 0.032830 0.432130 0.335280 0.977214
P2    P     P_3+3 0.680690 0.682340 0.566920 0.965642
P3    P     P_3+3 0.137659 0.742163 0.423133 0.924965
P4    P     P_3+3 0.156880 0.567940 0.664730 0.976561
P5    P     P_3+3 0.072829 0.260030 0.586428 0.921184
P6    P     P_3+3 0.625316 0.585326 0.283244 0.944719
P7    P     P_3+3 0.515416 0.304660 0.432143 0.946182
P8    P     P_3+3 0.556723 0.407671 0.716448 0.943184

loop_
_geom_bond_atom_site_label_1
_geom_bond_atom_site_label_2
_ccdc_geom_bond_type
C6    C7    D    
C35   H23   S    
C53   C54   S    
Ba1   O15   S    
C4    O18   S    
C28   O22   S    
C10   H26   S    
C1    H6    S    
C1    H3    S    
Ba2   P4    S    
C50   H63   S    
C57   H84   S    
C9    N2    A    
O24   P5    S    
Ba1   P1    S    
C5    C9    S    
O6    P7    D    
O16   P3    S    
C60   H87   S    
O15   P2    D    
C51   H72   S    
C50   H64   S    
C29   H36   S    
C22   C24   D    
C33   H38   S    
O19   P4    D    
C56   H17   S    
O14   P6    S    
C2    C63   S    
C54   H75   S    
C51   C62   S    
C36   O13   S    
C18   H37   S    
C37   H67   S    
O13   P1    S    
C8    C15   S    
C13   C14   A    
C52   H69   S    
C11   P4    S    
C60   H90   S    
C44   H53   S    
Ba1   Ba2   S    
Ba2   O21   S    
C38   O12   S    
C34   H11   S    
O20   P4    S    
C40   H49   S    
O12   P2    S    
C26   C33   A    
C16   H14   S    
C21   C31   S    
C38   H2    S    
C10   C15   A    
C31   C55   S    
C21   C22   S    
O23   P7    S    
C58   H82   S    
C36   H45   S    
C8    N1    A    
C42   H43   S    
C48   H60   S    
C46   H51   S    
O17   P3    D    
C57   H83   S    
C63   H28   S    
C57   C58   S    
C23   O7    S    
C53   H77   S    
C19   C20   S    
C28   H41   S    
C12   H5    S    
C2    P6    S    
C38   H89   S    
Ba1   O16   S    
C45   H15   S    
O3    P5    S    
O22   P4    S    
C39   C47   S    
Ba1   O23   S    
C9    N3    A    
C37   C40   S    
Ba1   P2    S    
O11   P6    D    
C3    H24   S    
C47   H62   S    
C4    C16   S    
C44   C46   S    
C20   H35   S    
C11   C17   A    
C51   H73   S    
C5    C6    S    
C48   H59   S    
C32   H30   S    
C7    P1    S    
C56   H16   S    
C3    C5    D    
C54   H74   S    
Ba1   O20   S    
C14   C15   A    
C61   O9    S    
C45   C49   S    
O18   P3    S    
C51   C52   S    
C35   H12   S    
Ba1   O10   S    
O5    P2    S    
C28   C35   S    
Ba2   O20   S    
C30   C32   S    
C13   C17   A    
C41   C42   S    
C58   H81   S    
C12   O14   S    
C47   H61   S    
C34   H10   S    
C59   H92   S    
C24   P2    S    
C40   H48   S    
O1    P1    D    
C29   C30   A    
Ba1   O4    S    
C52   H71   S    
C53   C62   S    
C31   C32   D    
C12   H1    S    
C27   P7    S    
O10   P6    S    
O21   P8    S    
C16   H39   S    
C10   C11   A    
C17   H29   S    
Ba2   O4    S    
C1    C12   S    
C34   H9    S    
C46   H50   S    
C54   H76   S    
C43   H55   S    
C38   C39   S    
C37   H78   S    
Ba1   O1    S    
C14   H27   S    
C8    N4    A    
C28   H40   S    
N1    N2    A    
C6    H25   S    
C40   C41   S    
C45   O3    S    
C59   H91   S    
C4    H33   S    
C4    H21   S    
C35   H34   S    
C19   P3    S    
C39   H4    S    
C42   H42   S    
Ba2   O5    S    
C25   H32   S    
C49   H66   S    
C53   H79   S    
C62   H22   S    
C25   C30   A    
C48   H58   S    
C2    C3    S    
C26   P5    S    
O9    P8    S    
O8    P8    D    
C16   C59   S    
C46   H52   S    
C43   H57   S    
C41   H46   S    
C27   C33   A    
O4    P1    S    
O7    P7    S    
C60   H88   S    
C61   H19   S    
C50   H65   S    
N3    N4    A    
C22   H31   S    
Ba2   O24   S    
C49   C50   S    
C27   C29   A    
C56   H18   S    
C42   H44   S    
C45   C56   S    
C49   H68   S    
C36   C37   S    
C18   C24   D    
Ba1   O5    S    
C52   H70   S    
C55   H86   S    
C41   H47   S    
Ba2   O19   S    
C44   H54   S    
Ba2   O23   S    
O2    P5    D    
C23   H8    S    
C55   H85   S    
C59   C60   S    
C7    C63   D    
C36   H56   S    
C55   C57   S    
C23   C34   S    
C61   C62   S    
C13   P8    S    
C43   C44   S    
C18   C19   S    
C47   C48   S    
C58   H80   S    
C25   C26   A    
C39   C43   S    
C20   C21   D    
C23   H7    S    
C1    H13   S    
Ba2   O6    S    
C61   H20   S    
