data_mof_unit_6129.cif
_audit_creation_date              2012-12-10T17:51:26-0500
_audit_creation_method            fapswitch 2.2
_symmetry_space_group_name_H-M    P1
_symmetry_Int_Tables_number       1
_space_group_crystal_system       triclinic
_cell_length_a                    9.927477
_cell_length_b                    10.612533
_cell_length_c                    16.811414
_cell_angle_alpha                 89.763354
_cell_angle_beta                  84.508459
_cell_angle_gamma                 90.692787
_cell_volume                      1762.89504676

loop_
_atom_site_label
_atom_site_type_symbol
_atom_type_description
_atom_site_fract_x
_atom_site_fract_y
_atom_site_fract_z
_atom_type_partial_charge
C1    C     C_R   0.499856 0.739193 0.502439 0.876154
C2    C     C_R   0.533196 0.505900 0.260815 -0.193811
C3    C     C_R   0.599641 0.868546 0.637198 -0.212294
C4    C     C_R   0.480518 0.494317 0.652835 0.852925
C5    C     C_R   0.650703 0.934491 0.699545 -0.092432
C6    C     C_R   0.652274 0.065616 0.698990 -0.086274
C7    C     C_R   0.602208 0.131118 0.636264 -0.187109
C8    C     C_R   0.550955 0.065782 0.572289 0.115588
C9    C     C_R   0.550559 0.933776 0.572524 0.114211
C10   C     C_R   0.497770 0.871316 0.508352 -0.050023
C11   C     C_R   0.439010 0.935080 0.448276 -0.105501
C12   C     C_R   0.344863 0.473624 0.784398 -0.146864
C13   C     C_R   0.438058 0.063714 0.448486 -0.167933
C14   C     C_R   0.496393 0.128119 0.508565 -0.087443
C15   C     C_R   0.880573 0.731263 0.513532 0.391936
C16   C     C_R   0.498974 0.260614 0.502505 0.861644
C17   C     C_R   0.929637 0.822182 0.564240 -0.338009
C18   C     C_R   0.047263 0.799128 0.601092 0.612625
C19   C     C_R   0.120805 0.690253 0.581629 -0.250881
C20   C     C_R   0.067249 0.598249 0.533346 0.075369
C21   C     C_R   0.929652 0.607816 0.518426 0.039218
C22   C     C_R   0.930676 0.396993 0.477633 -0.063324
C23   C     C_R   0.436952 0.553873 0.138545 0.704734
C24   C     C_R   0.074611 0.399591 0.473515 -0.046050
C25   C     C_R   0.519608 0.502085 0.347196 0.952424
C26   C     C_R   0.468183 0.461170 0.737165 -0.114919
C27   C     C_R   0.578787 0.405712 0.769156 -0.301360
C28   C     C_R   0.568311 0.367436 0.848106 0.653054
C29   C     C_R   0.448409 0.388535 0.896779 -0.109763
C30   C     C_R   0.335399 0.438234 0.864524 -0.199641
C31   C     C_R   0.430246 0.558938 0.220926 -0.231579
C32   C     C_R   0.646797 0.453699 0.217957 -0.231703
C33   C     C_R   0.653707 0.446433 0.134976 0.352439
C34   C     C_R   0.545014 0.492722 0.095972 -0.113769
C35   C     C_2   0.452730 0.389041 0.982804 0.434575
C36   C     C_2   0.538712 0.472562 0.011378 -0.120173
F1    F     F_    0.098518 0.888717 0.647376 -0.633714
F2    F     F_    0.335877 0.604678 0.100283 -0.603004
F3    F     F_    0.678062 0.318202 0.878716 -0.607872
H1    H     H_    0.673983 0.391995 0.733265 0.185126
H2    H     H_    0.343881 0.602745 0.253586 0.205033
H3    H     H_    0.215385 0.677323 0.606718 0.211748
H4    H     H_    0.130702 0.318456 0.450916 0.156364
H5    H     H_    0.726716 0.414042 0.249420 0.213164
H6    H     H_    0.604842 0.531256 0.970894 0.169199
H7    H     H_    0.243165 0.456537 0.902325 0.217969
H8    H     H_    0.257791 0.514148 0.760140 0.180009
H9    H     H_    0.699912 0.186872 0.086544 0.371639
H10   H     H_    0.000435 0.870670 0.322357 0.401589
H11   H     H_    0.223864 0.202603 0.955654 0.372804
H12   H     H_    0.396743 0.884928 0.400149 0.170006
H13   H     H_    0.598059 0.766798 0.640623 0.143187
H14   H     H_    0.688506 0.883690 0.748586 0.171368
H15   H     H_    0.691135 0.116742 0.747661 0.191472
H16   H     H_    0.602365 0.232629 0.638937 0.146686
H17   H     H_    0.395167 0.113398 0.400530 0.165757
H18   H     H_    0.879285 0.313295 0.459032 0.163265
H19   H     H_    0.889257 0.916583 0.565886 0.213827
N1    N     N_R   0.857140 0.501200 0.500750 -0.108301
N2    N     N_R   0.142740 0.501280 0.500770 -0.096056
O1    O     O_R   0.385310 0.683220 0.500000 -0.631783
O2    O     O_2   0.899913 0.341006 0.136669 -0.233249
O3    O     O_3   0.740263 0.238367 0.040873 -0.432114
O4    O     O_2   0.807816 0.690886 0.364491 -0.254680
O5    O     O_2   0.770490 0.902417 0.421049 -0.319640
O6    O     O_3   0.015769 0.836576 0.375638 -0.542177
O7    O     O_2   0.411558 0.237427 0.111904 -0.271840
O8    O     O_2   0.219375 0.360393 0.075990 -0.197019
O9    O     O_3   0.291926 0.167011 0.988561 -0.471805
O10   O     O_R   0.614640 0.683250 0.500010 -0.585662
O11   O     O_R   0.371780 0.500010 0.615800 -0.630258
O12   O     O_R   0.601110 0.500030 0.615800 -0.640662
O13   O     O_R   0.385360 0.316750 0.499990 -0.615817
O14   O     O_R   0.614690 0.316780 0.500000 -0.631145
O15   O     O_R   0.398890 0.499970 0.384200 -0.610145
O16   O     O_R   0.628220 0.499990 0.384200 -0.563754
O17   O     O_2   0.853926 0.457920 0.016607 -0.206303
S1    S     S_3+6 0.793374 0.371886 0.082068 0.115718
S2    S     S_3+6 0.861799 0.790355 0.416565 0.053934
S3    S     S_3+6 0.341636 0.288270 0.043351 0.102305
Zn1   Zn    Zn3+2 0.346870 0.499980 0.499990 0.977235
Zn2   Zn    Zn3+2 0.653130 0.500020 0.500010 1.001556

loop_
_geom_bond_atom_site_label_1
_geom_bond_atom_site_label_2
_ccdc_geom_bond_type
O8    S3    D    
O5    S2    D    
C35   C36   D    
N1    Zn2   S    
C7    H16   S    
C22   H18   S    
C7    C8    A    
O17   S1    D    
O6    S2    S    
C26   C27   A    
C16   O14   A    
C5    H14   S    
C28   C29   A    
H11   O9    S    
C6    H15   S    
C21   N1    A    
C5    C6    A    
C33   S1    S    
C35   S3    S    
C2    C32   A    
C18   C19   A    
C15   S2    S    
C19   C20   A    
C8    C9    A    
C14   C16   S    
C20   N2    A    
C9    C10   A    
C19   H3    S    
C17   H19   S    
C13   H17   S    
C13   C14   A    
O14   Zn2   S    
C12   H8    S    
O13   Zn1   S    
C30   H7    S    
C33   C34   A    
H10   O6    S    
O7    S3    D    
C16   O13   A    
O16   Zn2   S    
C22   N1    A    
O15   Zn1   S    
H9    O3    S    
C28   F3    S    
C12   C26   A    
C2    C31   A    
C25   O15   A    
C23   C31   A    
C29   C30   A    
C3    C9    A    
N2    Zn1   S    
C27   H1    S    
C24   N2    A    
C23   C34   A    
C17   C18   A    
C32   H5    S    
C36   H6    S    
O4    S2    D    
C22   C24   A    
C4    O12   A    
C15   C17   A    
C8    C14   A    
C31   H2    S    
C12   C30   A    
O2    S1    D    
C1    C10   S    
C18   F1    S    
C3    C5    A    
C1    O1    A    
C4    C26   S    
C3    H13   S    
C6    C7    A    
C23   F2    S    
C29   C35   S    
C1    O10   A    
C25   O16   A    
C32   C33   A    
O1    Zn1   S    
C11   C13   A    
C2    C25   S    
C34   C36   S    
O10   Zn2   S    
C11   H12   S    
C10   C11   A    
C15   C21   A    
C20   C21   A    
C27   C28   A    
C24   H4    S    
O9    S3    S    
C4    O11   A    
O12   Zn2   S    
O11   Zn1   S    
O3    S1    S    
