data_mof_unit_43481.cif
_audit_creation_date              2012-10-26T20:58:18-0400
_audit_creation_method            fapswitch 2.2
_symmetry_space_group_name_H-M    P1
_symmetry_Int_Tables_number       1
_space_group_crystal_system       triclinic
_cell_length_a                    10.642494
_cell_length_b                    14.914007
_cell_length_c                    15.212709
_cell_angle_alpha                 63.180308
_cell_angle_beta                  107.301663
_cell_angle_gamma                 102.878341
_cell_volume                      2046.17843315

loop_
_atom_site_label
_atom_site_type_symbol
_atom_type_description
_atom_site_fract_x
_atom_site_fract_y
_atom_site_fract_z
_atom_type_partial_charge
C1    C     C_R   0.485157 0.119880 0.313542 0.557364
C2    C     C_R   0.493890 0.533695 0.949863 0.010551
C3    C     C_R   0.463211 0.490793 0.878058 0.078624
C4    C     C_R   0.547482 0.510801 0.126304 0.078481
C5    C     C_R   0.489795 0.391005 0.909378 0.088255
C6    C     C_R   0.525870 0.611818 0.095041 0.092023
C7    C     C_R   0.745239 0.291780 0.653634 0.061214
C8    C     C_R   0.247578 0.705766 0.352111 0.046735
C9    C     C_R   0.696820 0.205052 0.634808 0.183879
C10   C     C_R   0.300495 0.794006 0.367663 0.184323
C11   C     C_R   0.508754 0.284281 0.513115 0.213436
C12   C     C_R   0.515349 0.880190 0.686512 0.559533
C13   C     C_R   0.490284 0.715283 0.486773 0.210891
C14   C     C_R   0.549488 0.371088 0.535742 -0.034885
C15   C     C_R   0.448023 0.628062 0.464764 -0.030145
C16   C     C_R   0.259823 0.000126 0.499310 0.595268
C17   C     C_R   0.740248 0.999731 0.500884 0.593589
C18   C     C_R   0.680067 0.380140 0.592629 -0.010608
C19   C     C_R   0.315514 0.618019 0.410355 -0.005870
C20   C     C_R   0.469227 0.451694 0.501046 0.023886
C21   C     C_R   0.528494 0.547463 0.499212 0.025099
C22   C     C_R   0.666876 0.560670 0.525813 -0.076695
C23   C     C_R   0.485093 0.290667 0.175012 -0.099072
C24   C     C_R   0.331159 0.437702 0.475757 -0.076609
C25   C     C_R   0.740487 0.478026 0.582557 0.106279
C26   C     C_R   0.256298 0.519561 0.420760 0.104641
C27   C     C_3   0.014966 0.046918 0.404686 0.101620
C28   C     C_3   0.985213 0.952573 0.595820 0.101172
C29   C     C_3   0.971318 0.094802 0.460437 0.086844
C30   C     C_3   0.028938 0.904684 0.540079 0.088238
C31   C     C_3   0.877419 0.999535 0.501156 -0.009055
C32   C     C_3   0.122752 0.000020 0.499320 -0.008363
C33   C     C_3   0.919275 0.951061 0.445135 -0.094853
C34   C     C_R   0.520086 0.710288 0.826833 -0.100611
C35   C     C_3   0.080940 0.048422 0.555392 -0.095769
C36   C     C_R   0.498876 0.188444 0.209195 -0.026324
C37   C     C_R   0.504699 0.812212 0.791583 -0.024029
C38   C     C_R   0.559809 0.228387 0.051679 0.048262
C39   C     C_R   0.457870 0.775696 0.952963 0.042045
C40   C     C_R   0.544336 0.157733 0.149577 0.044512
C41   C     C_R   0.464210 0.844136 0.852425 0.041748
C42   C     C_2   0.226965 0.883526 0.308237 0.654120
C43   C     C_2   0.772339 0.116625 0.693431 0.653370
C44   C     C_2   0.457181 0.348165 0.833348 0.627767
C45   C     C_R   0.512134 0.362882 0.082760 0.000749
C46   C     C_2   0.564374 0.654886 0.171263 0.625946
C47   C     C_2   0.414799 0.944327 0.807650 0.649175
C48   C     C_2   0.588077 0.055944 0.193141 0.652334
C49   C     C_2   0.632720 0.204073 0.996530 0.612739
C50   C     C_2   0.398818 0.804327 0.012723 0.612205
C51   C     C_2   0.881760 0.499542 0.623360 0.624737
C52   C     C_2   0.115500 0.495694 0.381288 0.622532
C53   C     C_R   0.497584 0.639033 0.920908 0.001831
C54   C     C_R   0.524351 0.328061 0.013866 -0.023755
C55   C     C_R   0.490418 0.675063 0.990502 -0.019894
C56   C     C_R   0.515760 0.468133 0.054256 0.010073
Cu1   Cu    Cu3+1 0.465750 0.918270 0.475680 1.083709
Cu2   Cu    Cu3+1 0.534250 0.081730 0.524320 1.084588
H1    H     H_    0.719144 0.635631 0.503609 0.146718
H2    H     H_    0.535849 0.651532 0.297199 0.331843
H3    H     H_    0.446767 0.087013 0.796659 0.358207
H4    H     H_    0.547663 0.914019 0.201777 0.358463
H5    H     H_    0.666203 0.102726 0.954693 0.385364
H6    H     H_    0.272422 0.764181 0.102712 0.369557
H7    H     H_    0.017561 0.533021 0.731698 0.375692
H8    H     H_    0.979161 0.467624 0.269794 0.375851
H9    H     H_    0.279920 0.362355 0.497844 0.147001
H10   H     H_    0.852564 0.909147 0.401507 0.206372
H11   H     H_    0.147861 0.090069 0.599228 0.204787
H12   H     H_    0.552418 0.686261 0.781005 0.189258
H13   H     H_    0.450073 0.314218 0.219952 0.189617
H14   H     H_    0.199219 0.012710 0.181889 0.360243
H15   H     H_    0.802421 0.986986 0.818990 0.358554
H16   H     H_    0.486915 0.356679 0.705871 0.333126
I1    I     I_    0.925515 0.245209 0.402131 -0.159841
I2    I     I_    0.669119 0.438933 0.275498 -0.217530
I3    I     I_    0.075888 0.754502 0.597951 -0.158785
I4    I     I_    0.652552 0.710149 0.613610 -0.222173
I5    I     I_    0.346895 0.289776 0.385955 -0.224967
I6    I     I_    0.899013 0.276154 0.788028 -0.074280
I7    I     I_    0.074955 0.718153 0.229394 -0.113890
I8    I     I_    0.038462 0.123808 0.252190 -0.149396
I9    I     I_    0.961208 0.875994 0.748148 -0.151637
I10   I     I_    0.334393 0.558344 0.731121 -0.216864
N1    N     N_R   0.585750 0.204560 0.560800 -0.275240
N2    N     N_R   0.414250 0.795440 0.439200 -0.276004
O1    O     O_R   0.454850 0.022100 0.338110 -0.474413
O2    O     O_R   0.260326 0.957195 0.218742 -0.634136
O3    O     O_2   0.871825 0.114982 0.669944 -0.469947
O4    O     O_R   0.740006 0.041608 0.782752 -0.646518
O5    O     O_2   0.379949 0.271716 0.843798 -0.468886
O6    O     O_R   0.515131 0.395110 0.750119 -0.640348
O7    O     O_2   0.648897 0.727133 0.162255 -0.466994
O8    O     O_R   0.503615 0.613068 0.252896 -0.645362
O9    O     O_2   0.308393 0.958946 0.746857 -0.517104
O10   O     O_R   0.490418 0.021892 0.833575 -0.594643
O11   O     O_2   0.693802 0.037900 0.254230 -0.521859
O12   O     O_R   0.545150 0.977900 0.661890 -0.473873
O13   O     O_R   0.507935 0.980809 0.165294 -0.556982
O14   O     O_2   0.716066 0.267200 0.955029 -0.455638
O15   O     O_R   0.607517 0.109868 0.992379 -0.582269
O16   O     O_2   0.434080 0.885725 0.018362 -0.392625
O17   O     O_R   0.303104 0.736995 0.063330 -0.642815
O18   O     O_2   0.965553 0.487067 0.590905 -0.414841
O19   O     O_R   0.918633 0.530365 0.702462 -0.619332
O20   O     O_2   0.032077 0.497188 0.420941 -0.411778
O21   O     O_R   0.078517 0.473561 0.296480 -0.622917
O22   O     O_R   0.512700 0.160150 0.379180 -0.481335
O23   O     O_R   0.487300 0.839850 0.620820 -0.481339
O24   O     O_R   0.287930 0.931000 0.479440 -0.466195
O25   O     O_R   0.712070 0.069000 0.520560 -0.465339
O26   O     O_R   0.345780 0.069050 0.520520 -0.489996
O27   O     O_R   0.654220 0.930950 0.479480 -0.489938
O28   O     O_2   0.127820 0.887047 0.330984 -0.470475

loop_
_geom_bond_atom_site_label_1
_geom_bond_atom_site_label_2
_ccdc_geom_bond_type
C1    O1    A    
H6    O17   S    
C30   C32   S    
C23   C45   A    
C27   C29   S    
C34   C37   A    
C14   C18   A    
Cu2   O12   S    
H8    O21   S    
H5    O15   S    
H3    O10   S    
C17   O27   A    
C39   C41   A    
C38   C49   S    
C27   C33   S    
C15   C19   A    
C48   O11   D    
C43   O3    D    
Cu2   O26   S    
C24   C26   A    
H15   O4    S    
C49   O15   S    
C11   C14   A    
C10   C42   S    
Cu1   N2    S    
C14   C20   A    
C7    C9    A    
H16   O6    S    
C12   C37   S    
C19   C26   A    
C24   H9    S    
C9    N1    A    
C30   I3    S    
C42   O28   D    
Cu1   O23   S    
C20   C24   A    
C45   C56   A    
C22   C25   A    
C38   C54   A    
C13   N2    A    
C47   O10   S    
C31   C33   S    
C6    C55   A    
C12   O12   A    
C44   O6    S    
C52   O20   D    
C50   O17   S    
C21   C22   A    
C4    C56   A    
C28   I9    S    
C18   C25   A    
C17   O25   A    
H7    O19   S    
C12   O23   A    
H14   O2    S    
C53   C55   A    
C39   C55   A    
C9    C43   S    
C43   O4    S    
C16   O24   A    
C8    I7    S    
C8    C19   A    
C32   C35   S    
C23   H13   S    
C5    C54   A    
C36   C40   A    
C28   C35   S    
C4    C6    A    
C22   H1    S    
Cu1   O27   S    
C51   O18   D    
Cu2   O25   S    
C25   C51   S    
C26   C52   S    
Cu1   O24   S    
C46   O8    S    
C51   O19   S    
C7    C18   A    
C41   C47   S    
C44   O5    D    
C11   I5    S    
C5    C44   S    
C45   C54   A    
C50   O16   D    
C13   C15   A    
C17   C31   S    
C42   O2    S    
Cu2   N1    S    
C16   O26   A    
C40   C48   S    
C48   O13   S    
C34   H12   S    
C13   I4    S    
C10   N2    A    
C6    C46   S    
C30   C33   S    
C27   C32   S    
C27   I8    S    
C28   C31   S    
C52   O21   S    
C33   H10   S    
C3    C5    A    
C2    C53   A    
C29   I1    S    
C16   C32   S    
C29   C35   S    
C28   C30   S    
C2    C3    A    
C29   C31   S    
C2    C56   A    
C49   O14   D    
C38   C40   A    
Cu1   Cu2   S    
C46   O7    D    
C11   N1    A    
Cu2   O22   S    
C37   C41   A    
C4    I2    S    
C1    O22   A    
H4    O13   S    
Cu1   O1    S    
C15   C21   A    
C39   C50   S    
C20   C21   A    
C35   H11   S    
C34   C53   A    
C8    C10   A    
C23   C36   A    
C3    I10   S    
C47   O9    D    
C1    C36   S    
C7    I6    S    
H2    O8    S    
