data_mof_unit_66113.cif
_audit_creation_date              2012-12-10T18:44:17-0500
_audit_creation_method            fapswitch 2.2
_symmetry_space_group_name_H-M    P1
_symmetry_Int_Tables_number       1
_space_group_crystal_system       triclinic
_cell_length_a                    18.156952
_cell_length_b                    18.111868
_cell_length_c                    22.098616
_cell_angle_alpha                 114.226114
_cell_angle_beta                  114.144098
_cell_angle_gamma                 90.038661
_cell_volume                      5922.21049249

loop_
_atom_site_label
_atom_site_type_symbol
_atom_type_description
_atom_site_fract_x
_atom_site_fract_y
_atom_site_fract_z
_atom_type_partial_charge
C1    C     C_R   0.349762 0.349784 0.699524 0.511087
C2    C     C_1   0.889240 0.889366 0.778737 0.045339
C3    C     C_3   0.081339 0.000104 0.025031 -0.132672
C4    C     C_3   0.918661 0.999895 0.974969 -0.132672
C5    C     C_3   0.036459 0.036315 0.073381 0.045487
C6    C     C_3   0.963541 0.963685 0.926619 0.045487
C7    C     C_1   0.077303 0.077146 0.154511 0.010327
C8    C     C_1   0.922697 0.922854 0.845489 0.010327
C9    C     C_3   0.075987 0.543313 0.548771 -0.033770
C10   C     C_3   0.924013 0.456687 0.451229 -0.033770
C11   C     C_3   0.003771 0.540627 0.568412 -0.174720
C12   C     C_R   0.650238 0.650215 0.300476 0.511086
C13   C     C_3   0.996229 0.459373 0.431588 -0.174720
C14   C     C_3   0.948023 0.550911 0.498853 0.039992
C15   C     C_3   0.051976 0.449089 0.501147 0.039992
C16   C     C_R   0.150355 0.150354 0.300633 0.511607
C17   C     C_R   0.849645 0.849646 0.699367 0.511607
C18   C     C_3   0.020263 0.554259 0.480116 -0.002064
C19   C     C_3   0.979737 0.445741 0.519884 -0.002064
C20   C     C_3   0.572740 0.547414 0.024685 -0.096976
C21   C     C_3   0.427260 0.452586 0.975315 -0.096977
C22   C     C_3   0.548006 0.452686 0.975072 -0.098995
C23   C     C_3   0.563924 0.536666 0.566561 -0.009880
C24   C     C_3   0.451994 0.547314 0.024928 -0.098995
C25   C     C_1   0.389502 0.389603 0.779021 0.011776
C26   C     C_1   0.610498 0.610397 0.220979 0.011776
C27   C     C_3   0.487606 0.557664 0.975374 -0.096423
C28   C     C_3   0.512394 0.442336 0.024626 -0.096423
C29   C     C_3   0.463514 0.463579 0.927045 0.045474
C30   C     C_3   0.536485 0.536421 0.072954 0.045474
C31   C     C_1   0.422912 0.423020 0.845848 -0.045857
C32   C     C_1   0.577088 0.576980 0.154152 -0.045857
C33   C     C_3   0.077407 0.005772 0.549314 -0.123711
C34   C     C_3   0.436076 0.463334 0.433439 -0.009880
C35   C     C_3   0.922593 0.994228 0.450686 -0.123711
C36   C     C_3   0.020303 0.924752 0.480483 -0.134847
C37   C     C_3   0.979697 0.075247 0.519517 -0.134847
C38   C     C_3   0.948410 0.948842 0.499611 0.037904
C39   C     C_3   0.051590 0.051158 0.500389 0.037903
C40   C     C_R   0.391849 0.108322 0.500021 0.506957
C41   C     C_R   0.608151 0.891678 0.499979 0.506957
C42   C     C_3   0.004534 0.028560 0.567303 -0.018552
C43   C     C_3   0.995466 0.971440 0.432697 -0.018552
C44   C     C_3   0.527349 0.062301 0.568899 -0.121752
C45   C     C_3   0.032516 0.041107 0.976118 0.042061
C46   C     C_3   0.472651 0.937698 0.431101 -0.121752
C47   C     C_3   0.575213 0.040607 0.521777 -0.123050
C48   C     C_3   0.424787 0.959393 0.478223 -0.123050
C49   C     C_3   0.550827 0.948932 0.500116 0.062820
C50   C     C_3   0.449173 0.051068 0.499884 0.062820
C51   C     C_3   0.503813 0.969738 0.547273 -0.106429
C52   C     C_3   0.496187 0.030262 0.452727 -0.106429
C53   C     C_R   0.108573 0.391708 0.500395 0.550280
C54   C     C_R   0.891427 0.608292 0.499605 0.550280
C55   C     C_R   0.108490 0.108362 0.500154 0.525755
C56   C     C_3   0.967484 0.958892 0.023882 0.042061
C57   C     C_R   0.891510 0.891638 0.499845 0.525755
C58   C     C_R   0.391660 0.391767 0.500073 0.511342
C59   C     C_R   0.608340 0.608233 0.499927 0.511344
C60   C     C_3   0.474040 0.543135 0.551215 -0.122892
C61   C     C_3   0.525960 0.456865 0.448785 -0.122892
C62   C     C_3   0.461120 0.557484 0.483184 -0.141201
C63   C     C_3   0.538880 0.442516 0.516816 -0.141200
C64   C     C_3   0.551192 0.550816 0.499665 0.040228
C65   C     C_3   0.448808 0.449184 0.500335 0.040227
C66   C     C_1   0.008859 0.059314 0.641597 0.213986
C67   C     C_3   0.988684 0.078480 0.025369 -0.133267
C68   C     C_1   0.991141 0.940686 0.358403 0.213986
C69   C     C_1   0.635321 0.577736 0.639959 0.206758
C70   C     C_1   0.364679 0.422264 0.360040 0.206758
C71   C     C_2   0.070875 0.089326 0.951576 0.236029
C72   C     C_2   0.929125 0.910674 0.048424 0.236029
C73   C     C_1   0.159463 0.592001 0.603006 0.233454
C74   C     C_1   0.840537 0.407999 0.396994 0.233454
C75   C     C_2   0.045256 0.613540 0.457332 0.236561
C76   C     C_2   0.954744 0.386460 0.542668 0.236561
C77   C     C_3   0.011316 0.921520 0.974631 -0.133267
C78   C     C_1   0.110760 0.110634 0.221262 0.045338
H1    H     H_    0.429995 0.604841 0.468829 0.122276
H2    H     H_    0.964410 0.137715 0.536089 0.154181
H3    H     H_    0.141282 0.011683 0.590153 0.144000
H4    H     H_    0.858718 0.988317 0.409847 0.144000
H5    H     H_    0.637903 0.072891 0.539620 0.120862
H6    H     H_    0.362097 0.927109 0.460380 0.120862
H7    H     H_    0.548715 0.114347 0.625381 0.120257
H8    H     H_    0.451285 0.885653 0.374619 0.120257
H9    H     H_    0.507670 0.943990 0.586035 0.135603
H10   H     H_    0.492330 0.056010 0.413965 0.135603
H11   H     H_    0.452740 0.577680 0.593566 0.144908
H12   H     H_    0.570005 0.395159 0.531171 0.122276
H13   H     H_    0.547260 0.422320 0.406434 0.144908
H14   H     H_    0.980039 0.143294 0.046645 0.118770
H15   H     H_    0.019961 0.856706 0.953355 0.118770
H16   H     H_    0.851574 0.999129 0.953947 0.119619
H17   H     H_    0.148426 0.000871 0.046053 0.119619
H18   H     H_    0.006588 0.574418 0.624373 0.123217
H19   H     H_    0.993412 0.425582 0.375627 0.123217
H20   H     H_    0.119546 0.143260 0.992827 0.105268
H21   H     H_    0.880454 0.856740 0.007173 0.105268
H22   H     H_    0.099150 0.609464 0.447443 0.104180
H23   H     H_    0.586978 0.413302 0.953598 0.117318
H24   H     H_    0.900850 0.390536 0.552557 0.104180
H25   H     H_    0.413022 0.586697 0.046402 0.117318
H26   H     H_    0.633027 0.586875 0.045958 0.122789
H27   H     H_    0.366973 0.413125 0.954042 0.122789
H28   H     H_    0.523072 0.395426 0.045849 0.122777
H29   H     H_    0.476928 0.604574 0.954151 0.122777
H30   H     H_    0.035590 0.862285 0.463911 0.154181
N1    N     N_1   0.012252 0.083469 0.700181 -0.241343
N2    N     N_1   0.987748 0.916530 0.299819 -0.241343
N3    N     N_1   0.691708 0.610140 0.697820 -0.297435
N4    N     N_1   0.308292 0.389860 0.302180 -0.297435
N5    N     N_1   0.225268 0.630345 0.645721 -0.275143
N6    N     N_1   0.774732 0.369655 0.354278 -0.275143
O1    O     O_3   0.250010 0.250010 0.500010 -0.455712
O2    O     O_R   0.893710 0.832180 0.664370 -0.525931
O3    O     O_R   0.332200 0.393690 0.664400 -0.528315
O4    O     O_R   0.667800 0.606310 0.335600 -0.528315
O5    O     O_R   0.229300 0.167820 0.335610 -0.538882
O6    O     O_R   0.770700 0.832180 0.664390 -0.538883
O7    O     O_R   0.358130 0.123520 0.543120 -0.543554
O8    O     O_R   0.641870 0.876480 0.456880 -0.543554
O9    O     O_R   0.080390 0.314990 0.456920 -0.506039
O10   O     O_R   0.919610 0.685010 0.543080 -0.506039
O11   O     O_R   0.185040 0.123520 0.543150 -0.546856
O12   O     O_3   0.749990 0.749990 0.499990 -0.455712
O13   O     O_R   0.814960 0.876480 0.456850 -0.546856
O14   O     O_R   0.358080 0.419590 0.543080 -0.544863
O15   O     O_R   0.641920 0.580410 0.456920 -0.544863
O16   O     O_R   0.080420 0.141920 0.456950 -0.513054
O17   O     O_R   0.919580 0.858080 0.543050 -0.513054
O18   O     O_R   0.376490 0.315000 0.456880 -0.537142
O19   O     O_R   0.623510 0.685000 0.543120 -0.537142
O20   O     O_2   0.047942 0.068576 0.885712 -0.470734
O21   O     O_2   0.952058 0.931424 0.114287 -0.470734
O22   O     O_2   0.005611 0.666117 0.449610 -0.495382
O23   O     O_R   0.376520 0.141930 0.456900 -0.546271
O24   O     O_2   0.994389 0.333883 0.550390 -0.495382
O25   O     O_R   0.623480 0.858070 0.543100 -0.546271
O26   O     O_R   0.184990 0.419580 0.543110 -0.540190
O27   O     O_R   0.815010 0.580420 0.456890 -0.540190
O28   O     O_R   0.332220 0.270690 0.664420 -0.536750
O29   O     O_R   0.667780 0.729310 0.335580 -0.536750
O30   O     O_R   0.106290 0.167820 0.335630 -0.525932
Zn1   Zn    Zn3+2 0.307090 0.219220 0.438420 0.945806
Zn2   Zn    Zn3+2 0.692910 0.780780 0.561580 0.945806
Zn3   Zn    Zn3+2 0.280820 0.192930 0.561610 0.949824
Zn4   Zn    Zn3+2 0.719180 0.807070 0.438390 0.949824
Zn5   Zn    Zn3+2 0.131340 0.219220 0.438450 0.998931
Zn6   Zn    Zn3+2 0.868660 0.780780 0.561550 0.998931
Zn7   Zn    Zn3+2 0.280790 0.368660 0.561580 0.964848
Zn8   Zn    Zn3+2 0.719210 0.631340 0.438420 0.964848

loop_
_geom_bond_atom_site_label_1
_geom_bond_atom_site_label_2
_ccdc_geom_bond_type
C11   H18   S    
C25   C31   T    
O9    Zn5   S    
O25   Zn2   S    
C26   C32   T    
C18   C75   S    
C6    C45   S    
O1    Zn3   S    
C36   H30   S    
C53   O26   A    
C69   N3    T    
C14   C18   S    
C5    C56   S    
C24   C27   S    
C5    C67   S    
C71   O20   D    
C63   C65   S    
O12   Zn2   S    
C47   C49   S    
C20   C30   S    
C60   H11   S    
C58   O14   A    
C40   O7    A    
C46   C49   S    
C11   C19   S    
C59   C64   S    
C33   C39   S    
C22   H23   S    
C13   C18   S    
O18   Zn1   S    
C15   C53   S    
O23   Zn1   S    
C19   C76   S    
C22   C29   S    
C38   C42   S    
C11   C14   S    
C45   C71   S    
C74   N6    T    
C46   C52   S    
O6    Zn2   S    
C34   C62   S    
C33   C36   S    
C73   N5    T    
C27   C29   S    
C60   C62   S    
C77   H15   S    
C37   C42   S    
C61   C63   S    
C23   C69   S    
C75   H22   S    
C62   C64   S    
C1    O28   A    
C58   C65   S    
C17   O6    A    
O12   Zn8   S    
C48   C51   S    
C39   C55   S    
C55   O11   A    
C28   H28   S    
C43   C68   S    
C49   C51   S    
C45   C67   S    
C50   C52   S    
O7    Zn3   S    
O8    Zn4   S    
C35   C43   S    
C34   C70   S    
C44   C47   S    
O13   Zn4   S    
C23   C63   S    
C22   C28   S    
C4    C56   S    
C2    C17   S    
C1    C25   S    
O29   Zn4   S    
C9    C73   S    
C34   C65   S    
C41   C49   S    
C71   H20   S    
C35   H4    S    
C76   H24   S    
C23   C60   S    
C37   H2    S    
C46   C48   S    
C62   H1    S    
C52   H10   S    
C35   C38   S    
O15   Zn8   S    
C4    C6    S    
O11   Zn3   S    
C16   O5    A    
C51   H9    S    
C5    C7    S    
O12   Zn4   S    
C75   O22   D    
C6    C77   S    
C39   C43   S    
C56   C72   S    
C21   C29   S    
C3    C45   S    
C34   C61   S    
C56   C77   S    
C48   H6    S    
C12   C26   S    
C41   O8    A    
C61   C64   S    
C15   C19   S    
O30   Zn5   S    
C38   C57   S    
C9    C18   S    
O14   Zn7   S    
C27   H29   S    
C10   C19   S    
C55   O16   A    
C40   O23   A    
O1    Zn5   S    
O16   Zn5   S    
C36   C43   S    
O3    Zn7   S    
C68   N2    T    
O4    Zn8   S    
C9    C11   S    
O26   Zn7   S    
C70   N4    T    
C7    C78   T    
C4    H16   S    
C44   C51   S    
C23   C64   S    
C14   C54   S    
C21   C28   S    
C20   C22   S    
C60   C65   S    
C47   H5    S    
C13   C15   S    
C53   O9    A    
C12   O4    A    
C33   C42   S    
C44   H7    S    
C3    C77   S    
C3    C5    S    
C35   C37   S    
C44   C50   S    
C54   O10   A    
O12   Zn6   S    
C59   O15   A    
C16   O30   A    
O28   Zn3   S    
C57   O17   A    
C2    C8    T    
C72   O21   D    
C10   C13   S    
C57   O13   A    
C4    C67   S    
C6    C8    S    
C47   C52   S    
C20   H26   S    
C20   C27   S    
C76   O24   D    
O5    Zn1   S    
O1    Zn1   S    
C12   O29   A    
C24   H25   S    
C28   C30   S    
C9    C15   S    
O10   Zn6   S    
C37   C39   S    
C36   C38   S    
C30   C32   S    
C10   C74   S    
C40   C50   S    
C63   H12   S    
C48   C50   S    
C67   H14   S    
C59   O19   A    
C16   C78   S    
C66   N1    T    
C13   H19   S    
C24   C30   S    
C41   O25   A    
C58   O18   A    
O2    Zn6   S    
C54   O27   A    
O27   Zn8   S    
C29   C31   S    
C21   C24   S    
O1    Zn7   S    
C42   C66   S    
O17   Zn6   S    
C3    H17   S    
O19   Zn2   S    
C1    O3    A    
C33   H3    S    
C21   H27   S    
C61   H13   S    
C17   O2    A    
C10   C14   S    
C46   H8    S    
C72   H21   S    
