data_mof_unit_29589.cif
_audit_creation_date              2012-12-11T14:14:13-0500
_audit_creation_method            fapswitch 2.2
_symmetry_space_group_name_H-M    P1
_symmetry_Int_Tables_number       1
_space_group_crystal_system       triclinic
_cell_length_a                    17.015408
_cell_length_b                    7.244699
_cell_length_c                    17.029099
_cell_angle_alpha                 91.000744
_cell_angle_beta                  99.792108
_cell_angle_gamma                 88.898557
_cell_volume                      2068.02322605

loop_
_atom_site_label
_atom_site_type_symbol
_atom_type_description
_atom_site_fract_x
_atom_site_fract_y
_atom_site_fract_z
_atom_type_partial_charge
O1    O     O_R   0.414560 0.494370 0.416770 -0.537561
O2    O     O_R   0.585440 0.994370 0.583230 -0.541247
O3    O     O_R   0.578370 0.819590 0.429320 -0.535643
O4    O     O_R   0.421630 0.319590 0.570680 -0.535237
C1    C     C_R   0.604530 0.652807 0.413715 0.696149
C2    C     C_R   0.394917 0.158304 0.586074 0.695813
O5    O     O_R   0.414740 0.823790 0.407360 -0.539925
O6    O     O_R   0.585260 0.323790 0.592640 -0.535730
O7    O     O_R   0.420650 0.998510 0.561120 -0.532453
O8    O     O_R   0.579350 0.498510 0.438880 -0.536837
C3    C     C_R   0.387946 0.655076 0.385225 0.759070
C4    C     C_R   0.611983 0.154884 0.614935 0.756319
O9    O     O_3   0.502130 0.662240 0.550470 -0.369632
O10   O     O_3   0.497870 0.162240 0.449530 -0.377683
V1    V     V_3+5 0.499600 0.935390 0.490640 1.497940
V2    V     V_3+5 0.500400 0.435390 0.509360 1.509032
C5    C     C_2   0.785122 0.272215 0.788146 -0.122919
C6    C     C_2   0.213738 0.771879 0.212700 -0.092792
C7    C     C_2   0.821009 0.113577 0.816927 -0.277729
C8    C     C_2   0.178820 0.613457 0.183238 -0.282545
H1    H     H_    0.806419 0.402751 0.815217 0.149631
H2    H     H_    0.191547 0.902099 0.186221 0.150007
H3    H     H_    0.801761 0.981625 0.790401 0.140363
H4    H     H_    0.198918 0.481863 0.209170 0.129219
C9    C     C_2   0.717340 0.284729 0.719983 -0.094719
C10   C     C_2   0.281791 0.784824 0.280588 -0.114345
C11   C     C_2   0.678662 0.138517 0.682909 -0.264353
C12   C     C_2   0.321025 0.638696 0.317494 -0.262265
H5    H     H_    0.698543 0.422877 0.700290 0.147352
H6    H     H_    0.300287 0.923126 0.300217 0.141911
H7    H     H_    0.695853 0.999564 0.701968 0.133368
H8    H     H_    0.303968 0.499559 0.298593 0.132617
C13   C     C_R   0.332062 0.163341 0.638494 -0.143538
C14   C     C_R   0.666787 0.632547 0.361312 -0.142513
C15   C     C_R   0.166414 0.107184 0.862626 -0.101574
C16   C     C_R   0.833771 0.632887 0.136772 -0.101084
C17   C     C_R   0.294559 0.981755 0.836710 -0.091254
C18   C     C_R   0.700333 0.744231 0.152141 -0.098234
C19   C     C_R   0.237934 0.007574 0.887867 -0.118126
C20   C     C_R   0.759218 0.710746 0.104098 -0.123652
C21   C     C_R   0.153510 0.191031 0.787014 0.088982
C22   C     C_R   0.848621 0.580496 0.217616 0.084316
C23   C     C_R   0.218010 0.197270 0.743065 0.067017
C24   C     C_R   0.783676 0.579523 0.261132 0.064704
C25   C     C_R   0.283483 0.070486 0.761141 0.043018
C26   C     C_R   0.713200 0.685508 0.233241 0.034292
C27   C     C_R   0.336463 0.044046 0.704358 -0.104822
C28   C     C_R   0.657851 0.722366 0.286889 -0.104988
C29   C     C_R   0.273555 0.306657 0.628926 -0.081202
C30   C     C_R   0.730552 0.505077 0.381750 -0.084995
C31   C     C_R   0.220048 0.328988 0.682963 -0.087753
C32   C     C_R   0.786024 0.472272 0.330426 -0.082983
O11   O     O_R   0.920750 0.773600 0.061260 -0.536258
O12   O     O_R   0.079250 0.273600 0.938740 -0.536410
O13   O     O_R   0.085340 0.439850 0.092570 -0.544113
O14   O     O_R   0.914660 0.939850 0.907430 -0.538153
C33   C     C_R   0.112065 0.608255 0.114831 0.746356
C34   C     C_R   0.887797 0.108395 0.885239 0.745318
O15   O     O_R   0.921720 0.444130 0.070790 -0.540786
O16   O     O_R   0.078280 0.944130 0.929210 -0.539197
O17   O     O_R   0.914480 0.269530 0.916840 -0.538371
O18   O     O_R   0.085520 0.769530 0.083160 -0.534753
C35   C     C_R   0.896916 0.614877 0.086457 0.704075
C36   C     C_R   0.103422 0.109950 0.913585 0.702910
O19   O     O_3   0.997840 0.601520 0.949550 -0.380032
O20   O     O_3   0.002160 0.101520 0.050450 -0.381472
V3    V     V_3+5 0.000400 0.328340 0.009360 1.429391
V4    V     V_3+5 0.999600 0.828340 0.990640 1.450025
C37   C     C_3   0.068128 0.243801 0.748667 -0.372924
C38   C     C_3   0.016478 0.073365 0.727895 -0.717955
H9    H     H_    0.043193 0.980723 0.686538 0.256298
H10   H     H_    0.009791 0.995086 0.781485 0.218323
H11   H     H_    0.955962 0.116935 0.697995 0.220312
H12   H     H_    0.040616 0.339052 0.788393 0.193417
H13   H     H_    0.064859 0.314316 0.691303 0.200015
C39   C     C_3   0.935250 0.555131 0.259347 -0.375607
C40   C     C_3   0.980519 0.736878 0.266263 -0.728513
H14   H     H_    0.987281 0.789869 0.207337 0.223570
H15   H     H_    0.948865 0.842785 0.297691 0.259084
H16   H     H_    0.041270 0.714825 0.301078 0.220809
H17   H     H_    0.940362 0.509992 0.321534 0.203249
H18   H     H_    0.966514 0.449268 0.227518 0.186617
C41   C     C_1   0.393235 0.890975 0.710142 0.325554
N1    N     N_1   0.438447 0.768596 0.714001 -0.312577
C42   C     C_1   0.593108 0.856343 0.268788 0.319274
N2    N     N_1   0.541391 0.963488 0.255287 -0.317101
C43   C     C_1   0.266181 0.431091 0.561909 0.337920
N3    N     N_1   0.259993 0.530466 0.508644 -0.365528
C44   C     C_1   0.741180 0.409393 0.457219 0.329786
N4    N     N_1   0.750025 0.333109 0.517305 -0.366557
C45   C     C_1   0.367080 0.879143 0.867646 0.336413
N5    N     N_1   0.424649 0.797556 0.893260 -0.281693
C46   C     C_1   0.624597 0.822126 0.113436 0.340268
N6    N     N_1   0.564509 0.883699 0.081599 -0.279016
C47   C     C_1   0.179019 0.506334 0.685865 0.291289
N7    N     N_1   0.146807 0.647989 0.688326 -0.356952
C48   C     C_1   0.835092 0.305233 0.341762 0.292658
N8    N     N_1   0.873819 0.171717 0.350799 -0.358731
C49   C     C_1   0.252817 0.928031 0.966972 0.328558
N9    N     N_1   0.264765 0.864711 0.029892 -0.339940
C50   C     C_1   0.743533 0.759647 0.020298 0.326238
N10   N     N_1   0.731104 0.798506 0.953638 -0.345876

loop_
_geom_bond_atom_site_label_1
_geom_bond_atom_site_label_2
_ccdc_geom_bond_type
C43   N3    T    
C46   N6    T    
C29   C43   S    
C16   C22   A    
C47   N7    T    
O1    C3    A    
O2    C4    A    
C2    O7    A    
C48   N8    T    
C33   O18   A    
C42   N2    T    
O5    C3    A    
C50   N10   T    
C13   C29   A    
C32   C48   S    
C25   C27   A    
O11   V4    S    
O15   V3    S    
C20   C50   S    
C49   N9    T    
C29   C31   A    
C6    C10   S    
C30   C32   A    
C15   C36   S    
C27   C41   S    
C16   C35   S    
C40   H14   S    
C24   C32   A    
C34   O17   A    
O5    V1    S    
O20   V3    S    
O6    V2    S    
C21   C23   A    
C22   C24   A    
C24   C26   A    
C40   H15   S    
C7    C34   S    
C9    H5    S    
C26   C28   A    
C14   C30   A    
C17   C45   S    
C4    C11   S    
C11   H7    S    
C8    H4    S    
C12   H8    S    
C39   C40   S    
O4    C2    A    
C39   H18   S    
C45   N5    T    
C7    H3    S    
O12   V3    S    
O14   V4    S    
C5    H1    S    
O4    V2    S    
C15   C19   A    
O17   V3    S    
C30   C44   S    
C19   C49   S    
C41   N1    T    
O10   V1    S    
C16   C20   A    
O6    C4    A    
O19   V4    S    
C1    C14   S    
C38   H11   S    
C37   H12   S    
O1    V2    S    
O2    V1    S    
C23   C25   A    
C38   H9    S    
C10   H6    S    
O13   C33   A    
C13   C27   A    
O15   C35   A    
C14   C28   A    
C17   C25   A    
C44   N4    T    
O3    V1    S    
C21   C37   S    
C40   H16   S    
C6    H2    S    
C22   C39   S    
O3    C1    A    
C39   H17   S    
O13   V3    S    
C9    C11   D    
C10   C12   D    
C2    C13   S    
O18   V4    S    
O16   C36   A    
C5    C9    S    
O7    V1    S    
C1    O8    A    
C17   C19   A    
O8    V2    S    
C18   C20   A    
O11   C35   A    
C23   C31   A    
O12   C36   A    
C3    C12   S    
C18   C46   S    
C5    C7    D    
O14   C34   A    
C37   H13   S    
C6    C8    D    
C37   C38   S    
C15   C21   A    
C18   C26   A    
O16   V4    S    
O9    V2    S    
C28   C42   S    
C38   H10   S    
C8    C33   S    
C31   C47   S    
