data_mof_unit_26605.cif
_audit_creation_date              2012-12-10T21:07:40-0500
_audit_creation_method            fapswitch 2.2
_symmetry_space_group_name_H-M    P1
_symmetry_Int_Tables_number       1
_space_group_crystal_system       triclinic
_cell_length_a                    8.547276
_cell_length_b                    17.530382
_cell_length_c                    16.778235
_cell_angle_alpha                 89.573735
_cell_angle_beta                  98.151197
_cell_angle_gamma                 90.969936
_cell_volume                      2488.21374266

loop_
_atom_site_label
_atom_site_type_symbol
_atom_type_description
_atom_site_fract_x
_atom_site_fract_y
_atom_site_fract_z
_atom_type_partial_charge
C1    C     C_R   0.501500 0.353084 0.500367 0.912324
C2    C     C_R   0.495779 0.646867 0.499444 0.911464
C3    C     C_1   0.424064 0.965617 0.487636 0.053827
C4    C     C_1   0.431701 0.033233 0.490048 0.061410
C5    C     C_R   0.419696 0.446374 0.828842 -0.349955
C6    C     C_R   0.622268 0.536275 0.176199 -0.380239
C7    C     C_R   0.415229 0.446430 0.744239 0.621543
C8    C     C_R   0.619706 0.536937 0.260782 0.634768
C9    C     C_R   0.585028 0.555132 0.752552 -0.086664
C10   C     C_R   0.379165 0.465575 0.243077 -0.070200
C11   C     C_R   0.587761 0.557882 0.836888 -0.277564
C12   C     C_R   0.376082 0.466220 0.158722 -0.268933
C13   C     C_R   0.504165 0.502874 0.876049 0.095452
C14   C     C_R   0.499006 0.501820 0.124307 0.105393
C15   C     C_1   0.503458 0.503483 0.963775 -0.022678
C16   C     C_1   0.500833 0.502702 0.036644 -0.021654
C17   C     C_R   0.200866 0.501237 0.479132 0.947512
C18   C     C_R   0.799040 0.502923 0.520590 0.965094
C19   C     C_2   0.036175 0.501413 0.467300 -0.380702
C20   C     C_2   0.963266 0.510462 0.530960 -0.428730
C21   C     C_R   0.394335 0.845504 0.554836 -0.347604
C22   C     C_R   0.518298 0.150370 0.434089 -0.355030
C23   C     C_R   0.413442 0.766840 0.559700 0.472046
C24   C     C_R   0.547159 0.228590 0.438114 0.505732
C25   C     C_R   0.473295 0.729083 0.496740 -0.194596
C26   C     C_R   0.494334 0.270063 0.500341 -0.196242
C27   C     C_R   0.502531 0.769626 0.427838 -0.398700
C28   C     C_R   0.429285 0.232114 0.562207 -0.432440
C29   C     C_R   0.475033 0.848003 0.421167 0.521388
C30   C     C_R   0.408482 0.152151 0.560941 0.531285
C31   C     C_R   0.426335 0.885218 0.486631 -0.025925
C32   C     C_R   0.449783 0.113328 0.494482 -0.016872
H1    H     H_    0.975507 0.490761 0.406843 0.212214
H2    H     H_    0.024044 0.522944 0.590634 0.171256
H3    H     H_    0.357889 0.875771 0.605078 0.178829
H4    H     H_    0.551588 0.118291 0.384244 0.176980
H5    H     H_    0.548654 0.740517 0.379772 0.175397
H6    H     H_    0.394226 0.266144 0.609720 0.222435
H7    H     H_    0.357528 0.402238 0.857685 0.148700
H8    H     H_    0.720347 0.562063 0.150977 0.150933
H9    H     H_    0.651001 0.597524 0.723300 0.177080
H10   H     H_    0.284293 0.437399 0.268784 0.151596
H11   H     H_    0.655269 0.602491 0.871169 0.158744
H12   H     H_    0.278712 0.438649 0.120748 0.152893
N1    N     N_R   0.500040 0.500030 0.707230 -0.132930
N2    N     N_R   0.499960 0.499970 0.292770 -0.118223
O1    O     O_R   0.500000 0.389130 0.566570 -0.590157
O2    O     O_R   0.500000 0.610870 0.433430 -0.621083
O3    O     O_R   0.499990 0.389100 0.433480 -0.573414
O4    O     O_R   0.500010 0.610900 0.566520 -0.582418
O5    O     O_R   0.271750 0.500010 0.550980 -0.620222
O6    O     O_R   0.728250 0.499990 0.449020 -0.564048
O7    O     O_R   0.271740 0.499980 0.417890 -0.641860
O8    O     O_R   0.728260 0.500020 0.582110 -0.641200
Zn1   Zn    Zn3+2 0.500010 0.500020 0.588860 0.956917
Zn2   Zn    Zn3+2 0.499990 0.499980 0.411140 0.980285
O9    O     O_3   0.383800 0.727743 0.628111 -0.625901
C33   C     C_3   0.218710 0.720299 0.627257 0.093500
H13   H     H_    0.159150 0.698321 0.568129 0.124366
H14   H     H_    0.168358 0.776446 0.639621 0.141796
C34   C     C_3   0.186082 0.663547 0.692770 -0.301745
H15   H     H_    0.228021 0.606334 0.678240 0.225654
H16   H     H_    0.252348 0.681557 0.751634 0.230857
C35   C     C_3   0.010066 0.658338 0.699946 -0.998202
H17   H     H_    0.969250 0.713501 0.721036 0.273174
H18   H     H_    0.989248 0.613101 0.744107 0.262359
H19   H     H_    0.939751 0.644133 0.640957 0.268552
O10   O     O_3   0.617794 0.265249 0.378636 -0.624807
C36   C     C_3   0.780627 0.247669 0.387072 0.082748
H20   H     H_    0.820594 0.257385 0.327582 0.171458
H21   H     H_    0.805075 0.186732 0.402939 0.128165
C37   C     C_3   0.877497 0.300318 0.448703 -0.378155
H22   H     H_    0.852701 0.360476 0.431134 0.245589
H23   H     H_    0.842663 0.290292 0.509289 0.198996
C38   C     C_3   0.054487 0.286808 0.453125 -0.935167
H24   H     H_    0.082253 0.226909 0.471169 0.271550
H25   H     H_    0.120850 0.325413 0.498500 0.259957
H26   H     H_    0.093778 0.298768 0.393887 0.264842
O11   O     O_3   0.512367 0.891040 0.356238 -0.650053
C39   C     C_3   0.445455 0.859432 0.281341 0.076749
H27   H     H_    0.374440 0.904306 0.246703 0.160383
H28   H     H_    0.362290 0.810378 0.286091 0.128807
C40   C     C_3   0.577745 0.836742 0.234031 -0.340436
H29   H     H_    0.642433 0.888882 0.217947 0.229459
H30   H     H_    0.663206 0.800120 0.272049 0.213845
C41   C     C_3   0.512738 0.793866 0.157299 -0.984210
H31   H     H_    0.451620 0.740309 0.172294 0.262261
H32   H     H_    0.611573 0.778954 0.124197 0.265512
H33   H     H_    0.428425 0.830001 0.117791 0.271550
O12   O     O_3   0.349149 0.107935 0.620254 -0.656215
C42   C     C_3   0.317144 0.147651 0.688959 0.089492
H34   H     H_    0.242113 0.109324 0.721214 0.164334
H35   H     H_    0.243550 0.198374 0.672890 0.130440
C43   C     C_3   0.469347 0.165121 0.746849 -0.351801
H36   H     H_    0.527307 0.110600 0.766819 0.226201
H37   H     H_    0.553867 0.199544 0.716452 0.225939
C44   C     C_3   0.434102 0.208575 0.820522 -0.954073
H38   H     H_    0.380292 0.264254 0.802058 0.285860
H39   H     H_    0.545729 0.219354 0.861732 0.266702
H40   H     H_    0.352082 0.174869 0.853310 0.259159
O13   O     O_3   0.330018 0.389921 0.699295 -0.652149
C45   C     C_3   0.166253 0.405833 0.690083 0.087110
H41   H     H_    0.119497 0.397404 0.625652 0.186373
H42   H     H_    0.139269 0.465516 0.705976 0.115164
C46   C     C_3   0.076733 0.350051 0.738669 -0.431510
H43   H     H_    0.102263 0.290636 0.723338 0.225172
H44   H     H_    0.114456 0.358290 0.804042 0.217458
C47   C     C_3   0.898421 0.361864 0.720580 -0.876908
H45   H     H_    0.868759 0.420798 0.736464 0.270558
H46   H     H_    0.836273 0.320961 0.756597 0.258240
H47   H     H_    0.855907 0.351959 0.655728 0.259296
O14   O     O_3   0.744745 0.567387 0.313242 -0.632437
C48   C     C_3   0.789803 0.641798 0.291187 0.032737
H48   H     H_    0.785132 0.679430 0.343719 0.165987
H49   H     H_    0.710241 0.667337 0.239895 0.128991
C49   C     C_3   0.960400 0.641484 0.273202 -0.331380
H50   H     H_    0.039276 0.620247 0.326897 0.234683
H51   H     H_    0.969754 0.602494 0.222288 0.215198
C50   C     C_3   0.016144 0.721230 0.251879 -0.978668
H52   H     H_    0.939344 0.743684 0.198148 0.268372
H53   H     H_    0.139199 0.718673 0.238084 0.262270
H54   H     H_    0.013650 0.760599 0.303253 0.262740

loop_
_geom_bond_atom_site_label_1
_geom_bond_atom_site_label_2
_ccdc_geom_bond_type
C9    N1    A    
O13   C45   S    
C27   C29   A    
C19   C20   D    
O2    Zn2   S    
C30   O12   S    
C17   O5    A    
C44   H38   S    
O9    C33   S    
C18   O6    A    
C47   H45   S    
C46   H44   S    
C22   C32   A    
C7    N1    A    
C22   C24   A    
C24   C26   A    
C36   H20   S    
C8    O14   S    
C41   H32   S    
O7    Zn2   S    
C10   H10   S    
C33   H14   S    
C15   C16   T    
C49   H50   S    
C45   C46   S    
C34   H16   S    
C36   H21   S    
C2    O4    A    
C49   H51   S    
O10   C36   S    
C10   N2    A    
C11   H11   S    
C5    C13   A    
C34   H15   S    
C43   H37   S    
C48   C49   S    
C20   H2    S    
C33   C34   S    
C45   H41   S    
C39   C40   S    
O14   C48   S    
C44   H39   S    
C50   H53   S    
C46   C47   S    
C35   H19   S    
C6    H8    S    
C37   H22   S    
C37   H23   S    
C19   H1    S    
C42   H34   S    
C5    C7    A    
C18   O8    A    
C41   H31   S    
C1    O1    A    
C6    C8    A    
O5    Zn1   S    
C2    O2    A    
C33   H13   S    
C42   H35   S    
C35   H18   S    
C34   C35   S    
C45   H42   S    
C38   H24   S    
C6    C14   A    
C21   C31   A    
C40   H29   S    
C29   O11   S    
C28   H6    S    
C3    C31   S    
C9    C11   A    
C4    C32   S    
C10   C12   A    
C39   H28   S    
C40   H30   S    
C12   C14   A    
C13   C15   S    
C1    C26   S    
C14   C16   S    
C3    C4    T    
C17   O7    A    
C36   C37   S    
O1    Zn1   S    
C48   H48   S    
C50   H54   S    
C23   O9    S    
C5    H7    S    
O8    Zn1   S    
C44   H40   S    
C9    H9    S    
C39   H27   S    
C41   H33   S    
C50   H52   S    
C47   H47   S    
C21   H3    S    
C25   C27   A    
O3    Zn2   S    
C22   H4    S    
C46   H43   S    
C26   C28   A    
O4    Zn1   S    
C43   C44   S    
C49   C50   S    
C35   H17   S    
C21   C23   A    
C29   C31   A    
C42   C43   S    
C30   C32   A    
C11   C13   A    
C37   C38   S    
O12   C42   S    
C27   H5    S    
C28   C30   A    
C17   C19   S    
C47   H46   S    
C2    C25   S    
C18   C20   S    
C23   C25   A    
C43   H36   S    
C38   H26   S    
C8    N2    A    
C24   O10   S    
O11   C39   S    
C40   C41   S    
N1    Zn1   S    
C12   H12   S    
C7    O13   S    
C38   H25   S    
N2    Zn2   S    
C1    O3    A    
O6    Zn2   S    
C48   H49   S    
