data_mof_unit_13776.cif
_audit_creation_date              2012-10-26T19:59:06-0400
_audit_creation_method            fapswitch 2.2
_symmetry_space_group_name_H-M    P1
_symmetry_Int_Tables_number       1
_space_group_crystal_system       triclinic
_cell_length_a                    7.416356
_cell_length_b                    8.73519
_cell_length_c                    15.942048
_cell_angle_alpha                 94.434837
_cell_angle_beta                  75.369478
_cell_angle_gamma                 103.02927
_cell_volume                      973.335793317

loop_
_atom_site_label
_atom_site_type_symbol
_atom_type_description
_atom_site_fract_x
_atom_site_fract_y
_atom_site_fract_z
_atom_type_partial_charge
C1    C     C_R   0.544745 0.799829 0.502565 0.577055
C2    C     C_R   0.614918 0.508977 0.333798 0.555370
C3    C     C_R   0.317876 0.479888 0.761204 0.018601
C4    C     C_R   0.682123 0.520111 0.238796 0.018601
C5    C     C_R   0.073069 0.376190 0.886683 -0.143009
C6    C     C_R   0.926931 0.623809 0.113317 -0.143009
C7    C     C_R   0.126857 0.415528 0.799668 -0.172662
C8    C     C_R   0.873142 0.584471 0.200332 -0.172662
C9    C     C_R   0.451429 0.519917 0.812866 0.350509
C10   C     C_R   0.548570 0.480080 0.187134 0.350509
C11   C     C_R   0.396544 0.491412 0.902665 0.039068
C12   C     C_R   0.455255 0.200171 0.497435 0.577055
C13   C     C_R   0.603456 0.508586 0.097334 0.039068
C14   C     C_R   0.207941 0.406954 0.937030 -0.009607
C15   C     C_R   0.792059 0.593044 0.062970 -0.009606
C16   C     C_R   0.526551 0.531885 0.957745 0.029068
C17   C     C_R   0.473449 0.468113 0.042254 0.029067
C18   C     C_R   0.293646 0.364399 0.067977 -0.090799
C19   C     C_R   0.706354 0.635598 0.932023 -0.090799
C20   C     C_R   0.159608 0.343206 0.018947 -0.141765
C21   C     C_R   0.840392 0.656792 0.981053 -0.141765
C22   C     C_2   0.570521 0.966824 0.503711 0.332894
C23   C     C_2   0.429478 0.033176 0.496289 0.332894
C24   C     C_R   0.385082 0.491022 0.666202 0.555371
Cu1   Cu    Cu3+1 0.322120 0.483240 0.490330 1.111403
Cu2   Cu    Cu3+1 0.677880 0.516760 0.509670 1.111403
F1    F     F_    0.361710 0.431601 0.227158 -0.652741
F2    F     F_    0.638289 0.568395 0.772842 -0.652741
F3    F     F_    0.742915 0.052965 0.512437 -0.608163
F4    F     F_    0.257084 0.947034 0.487563 -0.608163
H1    H     H_    0.020183 0.268793 0.043389 0.124225
H2    H     H_    0.995440 0.385359 0.431367 0.273557
H3    H     H_    0.979817 0.731205 0.956611 0.124225
H4    H     H_    0.977944 0.615012 0.238797 0.182412
H5    H     H_    0.022056 0.384988 0.761203 0.182412
H6    H     H_    0.927338 0.315839 0.913837 0.142444
H7    H     H_    0.072661 0.684160 0.086162 0.142444
H8    H     H_    0.253240 0.293048 0.124505 0.205577
H9    H     H_    0.746760 0.706949 0.875494 0.205577
H10   H     H_    0.004560 0.614641 0.568633 0.273557
N1    N     N_2   0.945180 0.542040 0.524240 -0.220010
N2    N     N_2   0.054820 0.457960 0.475760 -0.220010
O1    O     O_R   0.384450 0.714270 0.493720 -0.490438
O2    O     O_R   0.615550 0.285730 0.506280 -0.490437
O3    O     O_R   0.684880 0.742590 0.510050 -0.448489
O4    O     O_R   0.315120 0.257410 0.489950 -0.448489
O5    O     O_R   0.265540 0.477900 0.617090 -0.538294
O6    O     O_R   0.734460 0.522100 0.382910 -0.538294
O7    O     O_R   0.565970 0.506210 0.633420 -0.426205
O8    O     O_R   0.434030 0.493790 0.366580 -0.426205

loop_
_geom_bond_atom_site_label_1
_geom_bond_atom_site_label_2
_ccdc_geom_bond_type
C10   F1    S    
Cu1   N2    S    
C2    C4    S    
C23   F4    S    
C3    C9    A    
C22   F3    S    
Cu2   O6    S    
N1    N2    D    
Cu1   O5    S    
C18   C20   A    
C13   C17   A    
C4    C8    A    
Cu1   O1    S    
C17   C18   A    
C5    C14   A    
C6    H7    S    
Cu2   O2    S    
C1    C22   S    
C12   O2    A    
Cu1   Cu2   S    
C8    H4    S    
C9    C11   A    
C12   C23   S    
C1    O3    A    
C3    C24   S    
C19   H9    S    
C16   C19   A    
H10   N1    S    
C19   C21   A    
C10   C13   A    
C3    C7    A    
C13   C15   A    
C18   H8    S    
C11   C14   A    
C21   H3    S    
C4    C10   A    
C5    H6    S    
C14   C20   A    
C15   C21   A    
Cu2   N1    S    
C12   O4    A    
C11   C16   A    
Cu2   O7    S    
C24   O7    A    
C5    C7    A    
H2    N2    S    
C22   C23   D    
C6    C8    A    
C2    O8    A    
Cu2   O3    S    
C2    O6    A    
C6    C15   A    
Cu1   O8    S    
C24   O5    A    
C7    H5    S    
Cu1   O4    S    
C1    O1    A    
C9    F2    S    
C16   C17   A    
C20   H1    S    
