data_mof_unit_48062.cif
_audit_creation_date              2012-12-10T17:06:04-0500
_audit_creation_method            fapswitch 2.2
_symmetry_space_group_name_H-M    P1
_symmetry_Int_Tables_number       1
_space_group_crystal_system       triclinic
_cell_length_a                    11.520911
_cell_length_b                    10.780987
_cell_length_c                    10.143664
_cell_angle_alpha                 94.113945
_cell_angle_beta                  89.996312
_cell_angle_gamma                 91.289155
_cell_volume                      1256.34601483

loop_
_atom_site_label
_atom_site_type_symbol
_atom_type_description
_atom_site_fract_x
_atom_site_fract_y
_atom_site_fract_z
_atom_type_partial_charge
C1    C     C_R   0.494981 0.263648 0.494583 0.742316
C2    C     C_1   0.161713 0.499150 0.499514 -0.174954
C3    C     C_1   0.059393 0.499422 0.499373 -0.009005
C4    C     C_1   0.940615 0.499938 0.499680 -0.011765
C5    C     C_1   0.838303 0.500257 0.499958 -0.200361
C6    C     C_2   0.574749 0.933242 0.469681 -0.213669
C7    C     C_3   0.318232 0.862236 0.659004 0.086469
C8    C     C_3   0.230177 0.833067 0.546364 -0.382637
C9    C     C_3   0.109362 0.805581 0.600551 -0.962767
C10   C     C_3   0.284150 0.146061 0.412755 0.044003
C11   C     C_3   0.230003 0.173504 0.550489 -0.382340
C12   C     C_2   0.489322 0.869092 0.524727 0.444083
C13   C     C_3   0.097660 0.176395 0.543892 -0.949702
C14   C     C_3   0.658992 0.738064 0.841803 0.123909
C15   C     C_3   0.677107 0.878916 0.840969 -0.337224
C16   C     C_3   0.792886 0.912397 0.777767 -0.988125
C17   C     C_3   0.651228 0.664114 0.141636 -0.833929
C18   C     C_3   0.402385 0.428210 0.093802 -0.678495
C19   C     C_2   0.578993 0.067763 0.489896 -0.209536
C20   C     C_2   0.482323 0.131659 0.476177 0.463493
C21   C     C_2   0.536937 0.593713 0.931265 0.445012
C22   C     C_2   0.558790 0.579046 0.076923 0.230697
C23   C     C_R   0.282318 0.499446 0.499872 0.865980
C24   C     C_R   0.494493 0.736500 0.505740 0.727793
C25   C     C_R   0.717690 0.500317 0.500026 0.887719
H1    H     H_    0.644041 0.887033 0.413824 0.100173
H2    H     H_    0.075778 0.889235 0.657143 0.268169
H3    H     H_    0.220365 0.092083 0.348122 0.177379
H4    H     H_    0.300464 0.232909 0.362596 0.135019
H5    H     H_    0.254640 0.102712 0.618282 0.265340
H6    H     H_    0.263610 0.264105 0.594625 0.216231
H7    H     H_    0.069593 0.240265 0.469671 0.270460
H8    H     H_    0.062508 0.208551 0.642080 0.269907
H9    H     H_    0.061464 0.081850 0.515822 0.268384
H10   H     H_    0.672198 0.696580 0.740671 0.195172
H11   H     H_    0.727893 0.701085 0.903180 0.103789
H12   H     H_    0.661912 0.114160 0.514138 0.098763
H13   H     H_    0.605798 0.918468 0.784724 0.264452
H14   H     H_    0.674831 0.921234 0.944089 0.219992
H15   H     H_    0.865992 0.875008 0.833048 0.269199
H16   H     H_    0.803555 0.015125 0.779643 0.273101
H17   H     H_    0.795468 0.873825 0.673259 0.262048
H18   H     H_    0.737568 0.637773 0.101992 0.188817
H19   H     H_    0.633725 0.762447 0.124363 0.235893
H20   H     H_    0.658140 0.659118 0.248294 0.284224
H21   H     H_    0.346782 0.398708 0.174780 0.247361
H22   H     H_    0.346797 0.482514 0.030597 0.191553
H23   H     H_    0.517486 0.414600 0.882256 0.138459
H24   H     H_    0.431267 0.339596 0.043494 0.179563
H25   H     H_    0.275614 0.922060 0.737640 0.165668
H26   H     H_    0.339947 0.777592 0.708637 0.190170
H27   H     H_    0.224328 0.912266 0.483715 0.270556
H28   H     H_    0.258516 0.752051 0.482072 0.205672
H29   H     H_    0.112277 0.727924 0.666619 0.274254
H30   H     H_    0.048822 0.779538 0.517482 0.272033
N1    N     N_2   0.501210 0.501330 0.852150 -0.242551
N2    N     N_2   0.501250 0.501360 0.147810 -0.059998
O1    O     O_R   0.499980 0.319060 0.613040 -0.623139
O2    O     O_3   0.384089 0.071816 0.416953 -0.632459
O3    O     O_3   0.544635 0.711888 0.885471 -0.620918
O4    O     O_R   0.500020 0.319100 0.386900 -0.611138
O5    O     O_R   0.334430 0.499990 0.613070 -0.605971
O6    O     O_R   0.334470 0.500030 0.386930 -0.617522
O7    O     O_R   0.499980 0.680900 0.613100 -0.599874
O8    O     O_R   0.500020 0.680940 0.386960 -0.616508
O9    O     O_R   0.665530 0.499970 0.613070 -0.630498
O10   O     O_R   0.665570 0.500010 0.386930 -0.608199
O11   O     O_3   0.417844 0.930348 0.619751 -0.644114
Zn1   Zn    Zn3+2 0.499980 0.499970 0.650990 0.940396
Zn2   Zn    Zn3+2 0.500020 0.500030 0.349010 0.943728

loop_
_geom_bond_atom_site_label_1
_geom_bond_atom_site_label_2
_ccdc_geom_bond_type
C8    H28   S    
O4    Zn2   S    
C21   N1    D    
C17   H18   S    
O1    Zn1   S    
C13   H8    S    
C9    H30   S    
N2    Zn2   S    
O8    Zn2   S    
C14   O3    S    
C8    H27   S    
C13   H7    S    
C17   C22   S    
C25   O10   A    
O6    Zn2   S    
O10   Zn2   S    
C18   H22   S    
C2    C23   S    
C22   N2    D    
C23   O6    A    
C10   O2    S    
C17   H19   S    
C11   H6    S    
C7    C8    S    
C24   O7    A    
C21   C22   S    
C11   H5    S    
C20   O2    S    
C6    C12   D    
C6    C19   S    
C12   O11   S    
C10   H4    S    
C15   H14   S    
C6    H1    S    
C15   H13   S    
C24   O8    A    
C16   H15   S    
C5    C25   S    
C18   H21   S    
C17   H20   S    
C2    C3    T    
O5    Zn1   S    
C14   H11   S    
O9    Zn1   S    
C19   H12   S    
C10   C11   S    
C25   O9    A    
C7    H26   S    
C15   C16   S    
C16   H17   S    
C11   C13   S    
C9    H2    S    
C21   O3    S    
N1    Zn1   S    
C10   H3    S    
C14   H10   S    
H23   N1    S    
C12   C24   S    
C14   C15   S    
C8    C9    S    
C1    C20   S    
C13   H9    S    
C9    H29   S    
C18   N2    S    
C7    O11   S    
C1    O1    A    
C7    H25   S    
C16   H16   S    
O7    Zn1   S    
C23   O5    A    
C3    C4    S    
C19   C20   D    
C18   H24   S    
C4    C5    T    
C1    O4    A    
