data_mof_unit_50926.cif
_audit_creation_date              2012-12-11T15:21:55-0500
_audit_creation_method            fapswitch 2.2
_symmetry_space_group_name_H-M    P1
_symmetry_Int_Tables_number       1
_space_group_crystal_system       triclinic
_cell_length_a                    8.440807
_cell_length_b                    12.757367
_cell_length_c                    18.955716
_cell_angle_alpha                 94.323961
_cell_angle_beta                  94.30785
_cell_angle_gamma                 98.747975
_cell_volume                      2003.93250458

loop_
_atom_site_label
_atom_site_type_symbol
_atom_type_description
_atom_site_fract_x
_atom_site_fract_y
_atom_site_fract_z
_atom_type_partial_charge
Ba1   Ba    Ba6+2 0.160910 0.552960 0.466220 1.814303
Ba2   Ba    Ba6+2 0.649260 0.447030 0.533730 1.788053
C1    C     C_3   0.291001 0.859633 0.204754 -0.343077
C2    C     C_R   0.741741 0.816796 0.469995 0.120835
C3    C     C_R   0.700626 0.998071 0.457867 -0.029235
C4    C     C_3   0.924150 0.829177 0.293658 0.219157
C5    C     C_R   0.642044 0.888943 0.449223 0.077322
C6    C     C_R   0.889898 0.851346 0.509773 0.032439
C7    C     C_R   0.948592 0.964481 0.520315 -0.100190
C8    C     C_R   0.854226 0.038922 0.491407 -0.015243
C9    C     C_R   0.916033 0.151685 0.497123 0.137915
C10   C     C_R   0.163339 0.114125 0.559394 -0.023038
C11   C     C_R   0.101409 0.005215 0.555434 -0.086816
C12   C     C_3   0.357536 0.813204 0.271755 0.246959
C13   C     C_R   0.631276 0.511785 0.296125 -0.124065
C14   C     C_R   0.467547 0.479739 0.276128 0.131506
C15   C     C_R   0.410733 0.477874 0.204530 -0.028030
C16   C     C_3   0.886606 0.922378 0.252130 0.166647
C17   C     C_R   0.516676 0.509590 0.153261 -0.007424
C18   C     C_R   0.680458 0.544723 0.175092 -0.124568
C19   C     C_R   0.735960 0.549248 0.246908 0.055965
C20   C     C_R   0.456779 0.597051 0.040071 -0.086118
C21   C     C_R   0.392141 0.588070 0.969046 0.067859
C22   C     C_R   0.337565 0.488614 0.931889 -0.001063
C23   C     C_3   0.428053 0.793862 0.675398 0.585271
C24   C     C_R   0.332736 0.397117 0.968600 -0.080023
C25   C     C_R   0.390511 0.404060 0.040301 0.430366
C26   C     C_R   0.455762 0.503922 0.076914 -0.076576
C27   C     C_R   0.139496 0.425760 0.826666 -0.076988
C28   C     C_3   0.792149 0.289515 0.304114 0.603446
C29   C     C_R   0.089263 0.423617 0.754371 0.045809
C30   C     C_R   0.346069 0.529264 0.734720 -0.047447
C31   C     C_R   0.395832 0.532809 0.807431 0.301695
C32   C     C_R   0.291558 0.481225 0.854127 -0.015590
C33   C     C_R   0.194658 0.472203 0.708760 -0.300099
C34   C     C_3   0.415265 0.841982 0.750208 -0.287740
C35   C     C_3   0.905980 0.267889 0.246533 -0.168178
C36   C     C_3   0.996454 0.697847 0.687904 0.150988
C37   C     C_3   0.994448 0.742699 0.765496 0.158318
C38   C     C_3   0.282083 0.214445 0.375428 0.584604
C39   C     C_3   0.384449 0.127698 0.366723 -0.144407
C40   C     C_2   0.886369 0.328608 0.181980 0.452872
C41   C     C_2   0.857262 0.802920 0.775021 0.719931
C42   C     C_2   0.506886 0.770977 0.256051 0.428233
C43   C     C_2   0.397756 0.955394 0.183138 0.687567
C44   C     C_2   0.463813 0.110263 0.831763 0.620385
C45   C     C_3   0.876794 0.163631 0.697441 0.459490
C46   C     C_2   0.529451 0.704247 0.072922 0.530212
C47   C     C_3   0.870154 0.057093 0.728785 0.221992
C48   C     C_3   0.327977 0.174046 0.724887 0.225203
C49   C     C_3   0.411186 0.204266 0.799466 -0.232609
C50   C     C_R   0.068841 0.186118 0.532866 -0.239905
Cl1   Cl    Cl    0.988703 0.640689 0.824475 -0.619917
Cl2   Cl    Cl    0.089210 0.139257 0.364131 -0.777042
Cl3   Cl    Cl    0.487517 0.898177 0.621332 -0.733696
Cl4   Cl    Cl    0.745148 0.990992 0.292572 -0.720513
Cl5   Cl    Cl    0.972151 0.072824 0.815852 -0.613462
Cl6   Cl    Cl    0.683908 0.681739 0.441632 -0.642297
Cl7   Cl    Cl    0.590572 0.597428 0.838789 -0.589866
Cl8   Cl    Cl    0.387409 0.284341 0.081299 -0.519629
Cl9   Cl    Cl    0.596559 0.264940 0.258373 -0.703401
H1    H     H_    0.266045 0.746803 0.284071 0.097980
H2    H     H_    0.372068 0.077180 0.411643 0.079643
H3    H     H_    0.509760 0.160048 0.363506 0.159708
H4    H     H_    0.311066 0.750509 0.651789 0.020250
H5    H     H_    0.534465 0.883940 0.773625 0.159778
H6    H     H_    0.329988 0.900158 0.748928 0.103083
H7    H     H_    0.374013 0.778022 0.784312 0.094958
H8    H     H_    0.174103 0.882871 0.213854 0.139113
H9    H     H_    0.797542 0.151925 0.646971 0.017839
H10   H     H_    0.002622 0.190509 0.685669 -0.210528
H11   H     H_    0.927838 0.002777 0.694030 -0.021543
H12   H     H_    0.883384 0.181827 0.227976 0.178738
H13   H     H_    0.743063 0.021114 0.731647 0.081782
H14   H     H_    0.224430 0.109711 0.726586 0.070531
H15   H     H_    0.282963 0.246859 0.708081 -0.016105
H16   H     H_    0.325338 0.237740 0.832832 0.092021
H17   H     H_    0.517390 0.266897 0.797743 0.113776
H18   H     H_    0.030116 0.856818 0.332651 0.065226
H19   H     H_    0.625534 0.049988 0.436522 0.114724
H20   H     H_    0.176651 0.952911 0.577814 0.154970
H21   H     H_    0.120024 0.269537 0.535464 0.044938
H22   H     H_    0.390547 0.659086 0.941159 0.174801
H23   H     H_    0.031058 0.286245 0.269313 0.159743
H24   H     H_    0.285920 0.448802 0.188345 0.166598
H25   H     H_    0.287217 0.319712 0.941259 0.136303
H26   H     H_    0.821072 0.801041 0.323677 0.107161
H27   H     H_    0.057410 0.388409 0.862011 0.130187
H28   H     H_    0.763302 0.571640 0.136849 0.105601
H29   H     H_    0.155390 0.469002 0.652858 0.058519
H30   H     H_    0.676976 0.509730 0.350614 0.100096
H31   H     H_    0.996908 0.980506 0.248836 0.140556
H32   H     H_    0.835832 0.893493 0.197116 0.101092
H33   H     H_    0.824845 0.371762 0.329544 -0.087402
H34   H     H_    0.094244 0.650080 0.683825 -0.031905
H35   H     H_    0.771603 0.319034 0.150483 0.120746
H36   H     H_    0.800404 0.833845 0.729810 -0.036704
H37   H     H_    0.578278 0.799697 0.214823 -0.022671
H38   H     H_    0.516604 0.948979 0.167024 0.062467
H39   H     H_    0.558795 0.073361 0.809930 0.039106
H40   H     H_    0.620453 0.713291 0.116824 -0.023296
H41   H     H_    0.882618 0.646861 0.670094 0.108150
H42   H     H_    0.105851 0.799266 0.781532 0.063259
H43   H     H_    0.306676 0.258496 0.428896 -0.023155
H44   H     H_    0.269568 0.797015 0.159512 0.077424
H45   H     H_    0.346248 0.077840 0.316124 0.203609
O1    O     O_2   0.160820 0.763040 0.533820 -0.438371
O2    O     O_2   0.756640 0.428253 0.749850 -0.385781
O3    O     O_3   0.822907 0.236967 0.745503 -0.580803
O4    O     O_3   0.890970 0.628600 0.535400 -0.430030
O5    O     O_3   0.427530 0.446070 0.416950 -0.473639
O6    O     O_2   0.637430 0.550200 0.669460 -0.418391
O7    O     O_3   0.549270 0.730839 0.677171 -0.627260
O8    O     O_2   0.493878 0.115098 0.546592 -0.453655
O9    O     O_3   0.435284 0.137333 0.679116 -0.567943
O10   O     O_3   0.385950 0.698560 0.408070 -0.389225
O11   O     O_2   0.316959 0.885607 0.460245 -0.460203
O12   O     O_3   0.298288 0.278336 0.318506 -0.567387
O13   O     O_3   0.023187 0.783543 0.646317 -0.688149
O14   O     O_3   0.387668 0.891776 0.329532 -0.621047
O15   O     O_2   0.172860 0.449730 0.330520 -0.484707
O16   O     O_3   0.962080 0.644700 0.373110 -0.458319
O17   O     O_2   0.071882 0.573477 0.251968 -0.465257
O18   O     O_2   0.000508 0.385929 0.162346 -0.553325
O19   O     O_2   0.816495 0.824594 0.834141 -0.440130
O20   O     O_2   0.554419 0.707237 0.292977 -0.635705
O21   O     O_2   0.349179 0.040548 0.180890 -0.456419
O22   O     O_2   0.401928 0.075690 0.883210 -0.472561
O23   O     O_3   0.959113 0.748824 0.244993 -0.642582
O24   O     O_2   0.491735 0.784487 0.049557 -0.541568
O25   O     O_2   0.649470 0.236890 0.466160 -0.512470
O26   O     O_3   0.919320 0.371390 0.464540 -0.498342
O27   O     O_3   0.424350 0.301430 0.591880 -0.474047
O28   O     O_3   0.794905 0.212039 0.353124 -0.527641
O29   O     O_3   0.382770 0.553920 0.582990 -0.459770
O30   O     O_3   0.848220 0.355290 0.626830 -0.508086
P1    P     P_3+3 0.986780 0.745970 0.554690 1.045401
P2    P     P_3+3 0.341450 0.417130 0.341310 1.070349
P3    P     P_3+3 0.932559 0.625156 0.280238 1.002942
P4    P     P_3+3 0.823520 0.254020 0.445250 1.050384
P5    P     P_3+3 0.881452 0.364449 0.719366 1.041890
P6    P     P_3+3 0.432016 0.839326 0.411264 1.106872
P7    P     P_3+3 0.472868 0.594996 0.669545 1.021867
P8    P     P_3+3 0.376098 0.163990 0.592773 1.014850

loop_
_geom_bond_atom_site_label_1
_geom_bond_atom_site_label_2
_ccdc_geom_bond_type
C38   O12   S    
O1    P1    D    
C11   H20   S    
C20   C46   S    
C17   C18   A    
C2    C6    A    
Ba1   O26   S    
C41   O19   D    
C34   H6    S    
C40   O18   D    
C45   C47   S    
C1    H44   S    
Ba2   O6    S    
C24   C25   A    
C21   H22   S    
C40   H35   S    
O6    P7    D    
C44   O22   D    
C1    H8    S    
C22   C24   A    
O16   P3    S    
C48   O9    S    
C23   O7    S    
C25   Cl8   S    
C4    O23   S    
O28   P4    S    
C36   C37   S    
C34   H5    S    
C13   C14   A    
C12   H1    S    
O17   P3    D    
C47   Cl5   S    
Ba1   Ba2   S    
C35   C40   S    
C7    C11   A    
Ba1   O16   S    
C27   H27   S    
C44   H39   S    
O25   P4    D    
C42   H37   S    
C14   C15   A    
C30   P7    S    
C47   H11   S    
C36   H34   S    
Ba2   O26   S    
C21   C22   A    
C35   H23   S    
C9    C50   A    
Ba1   O10   S    
C7    C8    A    
C16   Cl4   S    
C36   H41   S    
O29   P7    S    
C31   Cl7   S    
C20   C26   A    
C46   O24   D    
C2    C5    A    
O2    P5    D    
C10   C50   A    
C48   C49   S    
Ba1   O15   S    
C4    C16   S    
Ba2   O5    S    
Ba2   O27   S    
C39   H45   S    
O13   P1    S    
C30   C33   A    
C23   Cl3   S    
C23   H4    S    
C43   H38   S    
C3    C5    A    
C6    C7    A    
C37   C41   S    
C28   O28   S    
C45   O3    S    
C44   C49   S    
C1    C43   S    
C22   C32   S    
C4    H26   S    
C10   P8    S    
C28   C35   S    
C6    P1    S    
O8    P8    D    
O15   P2    D    
C29   P5    S    
C9    P4    S    
C49   H16   S    
C45   H9    S    
O30   P5    S    
C48   H15   S    
Ba1   O4    S    
C38   H43   S    
O23   P3    S    
C24   H25   S    
C42   O20   D    
Ba2   O25   S    
O14   P6    S    
C18   C19   A    
C3    H19   S    
C50   H21   S    
C17   C26   S    
C45   H10   S    
C1    C12   S    
Ba1   O1    S    
O10   P6    S    
C36   O13   S    
C38   C39   S    
C38   Cl2   S    
C15   H24   S    
C39   H2    S    
Ba1   P1    S    
C12   C42   S    
C35   H12   S    
O9    P8    S    
Ba2   O4    S    
O27   P8    S    
C47   H13   S    
O4    P1    S    
C14   P2    S    
C41   H36   S    
C34   H7    S    
C37   H42   S    
O26   P4    S    
C18   H28   S    
C12   O14   S    
Ba2   O29   S    
Ba2   P4    S    
C30   C31   A    
O11   P6    D    
C49   H17   S    
C16   H31   S    
C3    C8    A    
C27   C29   A    
Ba1   O29   S    
C48   H14   S    
Ba1   O5    S    
C4    H18   S    
C37   Cl1   S    
C43   O21   D    
C46   H40   S    
C27   C32   A    
C15   C17   A    
C31   C32   A    
C29   C33   A    
Ba2   O30   S    
C8    C9    A    
C23   C34   S    
C13   H30   S    
C33   H29   S    
O7    P7    S    
C13   C19   A    
C10   C11   A    
C28   H33   S    
C28   Cl9   S    
C2    Cl6   S    
C25   C26   A    
C16   H32   S    
C19   P3    S    
C20   C21   A    
O3    P5    S    
C39   H3    S    
O12   P2    S    
C5    P6    S    
Ba1   P2    S    
O5    P2    S    
