data_mof_unit_35677.cif
_audit_creation_date              2013-03-05T15:41:27-0500
_audit_creation_method            fapswitch 2.2
_symmetry_space_group_name_H-M    P1
_symmetry_Int_Tables_number       1
_space_group_crystal_system       triclinic
_cell_length_a                    12.086644
_cell_length_b                    18.442189
_cell_length_c                    10.549311
_cell_angle_alpha                 89.996495
_cell_angle_beta                  109.516863
_cell_angle_gamma                 89.99984
_cell_volume                      2216.3766247

loop_
_atom_site_label
_atom_site_type_symbol
_atom_site_description
_atom_site_fract_x
_atom_site_fract_y
_atom_site_fract_z
_atom_type_partial_charge
O1    O     O_R   0.267710 0.668200 0.902110 -0.530941
O2    O     O_R   0.732290 0.331800 0.097890 -0.539372
O3    O     O_R   0.732290 0.168200 0.097890 -0.530927
O4    O     O_R   0.267710 0.831800 0.902110 -0.539346
O5    O     O_R   0.099480 0.674460 0.038850 -0.513400
O6    O     O_R   0.900520 0.325540 0.961150 -0.522332
O7    O     O_R   0.900520 0.174460 0.961150 -0.513427
O8    O     O_R   0.099480 0.825540 0.038850 -0.522358
C1    C     C_R   0.090239 0.640953 0.144994 0.539892
C2    C     C_R   0.920178 0.355340 0.854910 0.531161
C3    C     C_R   0.909745 0.140943 0.855023 0.539886
C4    C     C_R   0.079814 0.855350 0.145089 0.530945
O9    O     O_R   0.116720 0.669210 0.267660 -0.526773
O10   O     O_R   0.883280 0.330790 0.732340 -0.524028
O11   O     O_R   0.883280 0.169210 0.732340 -0.526803
O12   O     O_R   0.116720 0.830790 0.267660 -0.523939
O13   O     O_R   0.366710 0.675440 0.427590 -0.528058
O14   O     O_R   0.633290 0.324560 0.572410 -0.514777
O15   O     O_R   0.633290 0.175440 0.572410 -0.528077
O16   O     O_R   0.366710 0.824560 0.427590 -0.514803
C5    C     C_R   0.464963 0.644445 0.431839 0.526486
C6    C     C_R   0.529420 0.349702 0.556373 0.534982
C7    C     C_R   0.535037 0.144447 0.568147 0.526553
C8    C     C_R   0.470574 0.849705 0.443620 0.534973
O17   O     O_R   0.534870 0.669390 0.371760 -0.527461
O18   O     O_R   0.465130 0.330610 0.628240 -0.518242
O19   O     O_R   0.465130 0.169390 0.628240 -0.527450
O20   O     O_R   0.534870 0.830610 0.371760 -0.518210
O21   O     O_R   0.453080 0.674480 0.075160 -0.516784
O22   O     O_R   0.546920 0.325520 0.924840 -0.505121
O23   O     O_R   0.546920 0.174480 0.924840 -0.516841
O24   O     O_R   0.453080 0.825520 0.075160 -0.505002
C9    C     C_R   0.373187 0.645217 0.968654 0.544308
C10   C     C_R   0.627327 0.356317 0.032023 0.528763
C11   C     C_R   0.626688 0.145292 0.031522 0.544446
C12   C     C_R   0.372707 0.856300 0.967893 0.528533
Cr1   Cr    Cr6+3 0.187610 0.750000 0.979860 0.975395
Cr2   Cr    Cr6+3 0.812390 0.250000 0.020140 0.975402
Cr3   Cr    Cr6+3 0.245810 0.750000 0.341640 0.984896
Cr4   Cr    Cr6+3 0.754190 0.250000 0.658360 0.984863
Cr5   Cr    Cr6+3 0.485760 0.750000 0.219910 0.996900
Cr6   Cr    Cr6+3 0.514240 0.250000 0.780090 0.996741
O25   O     O_3   0.306390 0.750000 0.180470 -0.272022
O26   O     O_3   0.693610 0.250000 0.819530 -0.271933
C13   C     C_R   0.494617 0.415259 0.474083 -0.044166
C14   C     C_R   0.483477 0.567582 0.475168 -0.042810
C15   C     C_R   0.505364 0.915261 0.525902 -0.044104
C16   C     C_R   0.516532 0.067588 0.524778 -0.042967
C17   C     C_R   0.293437 0.405813 0.471668 -0.083981
C18   C     C_R   0.689324 0.568524 0.467062 -0.077530
C19   C     C_R   0.706582 0.905783 0.528468 -0.084007
C20   C     C_R   0.310662 0.068549 0.532796 -0.077504
C21   C     C_R   0.204760 0.434492 0.510825 -0.127398
C22   C     C_R   0.780105 0.532900 0.439273 -0.150605
C23   C     C_R   0.795335 0.934449 0.489425 -0.127410
C24   C     C_R   0.219915 0.032955 0.560715 -0.150469
C25   C     C_R   0.198315 0.508724 0.522580 -0.160344
C26   C     C_R   0.771592 0.459232 0.413361 -0.146062
C27   C     C_R   0.801804 0.008679 0.477648 -0.160287
C28   C     C_R   0.228433 0.959295 0.586737 -0.145917
C29   C     C_R   0.285226 0.553617 0.505290 -0.119213
C30   C     C_R   0.671540 0.421843 0.409968 -0.072824
C31   C     C_R   0.714914 0.053590 0.494950 -0.119190
C32   C     C_R   0.328437 0.921876 0.590018 -0.072859
C33   C     C_R   0.386629 0.524826 0.483946 -0.009825
C34   C     C_R   0.583521 0.455831 0.449360 -0.005301
C35   C     C_R   0.613416 0.024817 0.516115 -0.009827
C36   C     C_R   0.416452 0.955845 0.550579 -0.005289
C37   C     C_R   0.390719 0.448795 0.472910 0.005828
C38   C     C_R   0.585526 0.531521 0.465477 0.000906
C39   C     C_R   0.609289 0.948783 0.527134 0.005866
C40   C     C_R   0.414453 0.031533 0.534406 0.000836
H1    H     H_    0.136370 0.399844 0.522112 0.108857
H2    H     H_    0.859589 0.561733 0.444662 0.101729
H3    H     H_    0.863743 0.899792 0.478211 0.108891
H4    H     H_    0.140457 0.061807 0.555369 0.101648
H5    H     H_    0.122461 0.532434 0.539331 0.108592
H6    H     H_    0.844670 0.429836 0.402282 0.101157
H7    H     H_    0.877691 0.032372 0.460947 0.108535
H8    H     H_    0.155381 0.929932 0.597962 0.101154
H9    H     H_    0.289278 0.348502 0.447783 0.121547
H10   H     H_    0.706789 0.623977 0.500772 0.135998
H11   H     H_    0.710695 0.848468 0.552336 0.121564
H12   H     H_    0.293219 0.124002 0.499056 0.135945
H13   H     H_    0.270513 0.609527 0.520975 0.162596
H14   H     H_    0.665144 0.365470 0.379786 0.137160
H15   H     H_    0.729734 0.109500 0.479390 0.162771
H16   H     H_    0.334823 0.865502 0.620210 0.137155
C41   C     C_2   0.381451 0.934758 0.939597 0.024688
C42   C     C_2   0.598646 0.075206 0.072630 0.025486
C43   C     C_2   0.618447 0.434743 0.060269 0.024796
C44   C     C_2   0.401038 0.575070 0.927687 0.025553
C45   C     C_2   0.482038 0.971163 0.978122 0.023825
C46   C     C_2   0.490778 0.051186 0.021900 0.043544
C47   C     C_2   0.517750 0.471027 0.021692 0.023854
C48   C     C_2   0.508905 0.551081 0.978254 0.043536
H17   H     H_    0.932140 0.066349 0.071292 0.170192
H18   H     H_    0.902739 0.913704 0.953952 0.130480
H19   H     H_    0.067502 0.566346 0.928720 0.170191
H20   H     H_    0.096958 0.413708 0.046302 0.130595
C49   C     C_2   0.036014 0.931135 0.136457 -0.005349
C50   C     C_2   0.941203 0.062010 0.877437 -0.035061
C51   C     C_2   0.964000 0.431100 0.863552 -0.005304
C52   C     C_2   0.058774 0.562028 0.122692 -0.035101
C53   C     C_2   0.952376 0.953673 0.025218 -0.160882
C54   C     C_2   0.936481 0.031297 0.991519 -0.149360
C55   C     C_2   0.047402 0.453668 0.974950 -0.160842
C56   C     C_2   0.063277 0.531299 0.008555 -0.149376
C57   C     C_3   0.401328 0.104355 0.052588 -0.267825
C58   C     C_3   0.424785 0.113033 0.203776 -0.465925
H21   H     H_    0.437308 0.059362 0.253721 0.155302
H22   H     H_    0.504945 0.146038 0.250457 0.146871
H23   H     H_    0.350430 0.141790 0.221158 0.130890
H24   H     H_    0.406818 0.159879 0.016411 0.166371
H25   H     H_    0.307672 0.098069 0.000820 0.133860
C59   C     C_3   0.585460 0.931120 0.955516 -0.267170
C60   C     C_3   0.631382 0.970999 0.855738 -0.435955
H26   H     H_    0.556534 0.990405 0.772245 0.177808
H27   H     H_    0.682361 0.020413 0.895093 0.152194
H28   H     H_    0.686070 0.934097 0.818180 0.128553
H29   H     H_    0.654782 0.918590 0.051500 0.153533
H30   H     H_    0.558549 0.876870 0.909444 0.134940
C61   C     C_3   0.597956 0.604044 0.946474 -0.267970
C62   C     C_3   0.574722 0.611704 0.795258 -0.466247
H31   H     H_    0.562497 0.557767 0.746436 0.155746
H32   H     H_    0.494431 0.644426 0.747707 0.146684
H33   H     H_    0.648934 0.640404 0.777506 0.130932
H34   H     H_    0.591573 0.659810 0.980835 0.166093
H35   H     H_    0.691579 0.598260 0.999045 0.134011
C63   C     C_3   0.414430 0.430890 0.044381 -0.267129
C64   C     C_3   0.368612 0.470654 0.144361 -0.436131
H36   H     H_    0.443499 0.490250 0.227604 0.177811
H37   H     H_    0.317263 0.519946 0.105060 0.152011
H38   H     H_    0.314326 0.433622 0.182251 0.128583
H39   H     H_    0.345024 0.418403 0.948439 0.153508
H40   H     H_    0.441426 0.376617 0.090316 0.135081
C65   C     C_3   0.675094 0.043177 0.200573 -0.271408
C66   C     C_3   0.792256 0.017148 0.196304 -0.437937
H41   H     H_    0.785599 0.004309 0.094620 0.165715
H42   H     H_    0.859475 0.059747 0.237499 0.153067
H43   H     H_    0.819153 0.965669 0.251938 0.138930
H44   H     H_    0.690948 0.089375 0.269539 0.152572
H45   H     H_    0.629957 0.998690 0.235586 0.176175
C67   C     C_3   0.269071 0.975044 0.893921 -0.280747
C68   C     C_3   0.226956 0.980684 0.012568 -0.442721
H46   H     H_    0.202152 0.927449 0.035555 0.201589
H47   H     H_    0.296383 0.995511 0.106481 0.156891
H48   H     H_    0.154025 0.019046 0.986076 0.162704
H49   H     H_    0.275169 0.026737 0.843405 0.149415
H50   H     H_    0.204714 0.944838 0.814256 0.166712
C69   C     C_3   0.324596 0.543093 0.799674 -0.271426
C70   C     C_3   0.207454 0.517059 0.803888 -0.438209
H51   H     H_    0.214121 0.504107 0.905527 0.165803
H52   H     H_    0.140305 0.559712 0.762823 0.153139
H53   H     H_    0.180520 0.465637 0.748085 0.138848
H54   H     H_    0.308708 0.589296 0.730705 0.152678
H55   H     H_    0.369714 0.498615 0.764623 0.176271
C71   C     C_3   0.730755 0.475133 0.106324 -0.280884
C72   C     C_3   0.773360 0.480909 0.988119 -0.442943
H56   H     H_    0.798781 0.427762 0.965553 0.201503
H57   H     H_    0.704137 0.495427 0.893955 0.157178
H58   H     H_    0.845883 0.519560 0.014773 0.162504
H59   H     H_    0.724373 0.526834 0.156660 0.149734
H60   H     H_    0.795068 0.444930 0.186058 0.166767
C73   C     C_3   0.932092 0.017431 0.756642 -0.265163
C74   C     C_3   0.976826 0.938950 0.762438 -0.437328
H61   H     H_    0.045353 0.924188 0.854806 0.192291
H62   H     H_    0.904721 0.899394 0.749189 0.132207
H63   H     H_    0.010749 0.929510 0.679020 0.118973
H64   H     H_    0.836389 0.012425 0.716697 0.186881
H65   H     H_    0.969925 0.049464 0.691894 0.158184
C75   C     C_3   0.089221 0.980557 0.258670 -0.256938
C76   C     C_3   0.147979 0.052527 0.242261 -0.451201
H66   H     H_    0.243928 0.044715 0.274313 0.146094
H67   H     H_    0.122474 0.077428 0.142595 0.152769
H68   H     H_    0.127899 0.094370 0.306807 0.128455
H69   H     H_    0.022551 0.991206 0.306724 0.125402
H70   H     H_    0.158769 0.950050 0.334037 0.199737
C77   C     C_3   0.068033 0.517492 0.243595 -0.264951
C78   C     C_3   0.023280 0.439029 0.238020 -0.437364
H71   H     H_    0.954727 0.424207 0.145776 0.191973
H72   H     H_    0.095353 0.399450 0.251264 0.132169
H73   H     H_    0.989384 0.429673 0.321480 0.119012
H74   H     H_    0.163744 0.512492 0.283468 0.186855
H75   H     H_    0.030278 0.549563 0.308363 0.158301
C79   C     C_3   0.910880 0.480489 0.741287 -0.257049
C80   C     C_3   0.851859 0.552345 0.757595 -0.451332
H76   H     H_    0.755960 0.544347 0.725352 0.146263
H77   H     H_    0.877130 0.577187 0.857282 0.152802
H78   H     H_    0.871911 0.594269 0.693166 0.128502
H79   H     H_    0.977561 0.491219 0.693314 0.125275
H80   H     H_    0.841491 0.449943 0.665831 0.199823

loop_
_geom_bond_atom_site_label_1
_geom_bond_atom_site_label_2
_geom_bond_distance
_ccdc_geom_bond_type
C75   H69   1.103555 S    
C73   H65   1.110540 S    
C65   H44   1.094922 S    
O4    C12   1.306855 A    
C26   C30   1.382104 A    
C45   C46   1.539466 S    
C24   H4    1.082781 S    
O23   Cr6   2.006061 S    
O5    Cr1   1.976239 S    
C47   C48   1.538923 S    
C64   H38   1.109921 S    
C42   C65   1.480210 S    
C68   H46   1.077558 S    
O1    C9    1.303731 A    
C61   C62   1.531073 S    
C34   C38   1.405457 A    
C76   H66   1.103615 S    
C78   H71   1.081426 S    
O7    C3    1.315841 A    
H19   C56   1.076258 S    
C30   H14   1.082511 S    
O18   Cr6   2.119643 S    
C73   C74   1.539105 S    
H18   C53   1.080369 S    
C19   C39   1.414514 A    
C69   H55   1.114335 S    
C2    C51   1.486165 S    
C5    C14   1.483211 S    
C23   C27   1.379162 A    
C60   H27   1.100740 S    
C22   C26   1.382881 A    
C80   H77   1.092946 S    
C33   C37   1.409246 A    
C52   C77   1.489421 S    
O21   C9    1.327119 A    
O20   Cr5   2.119782 S    
C44   C48   1.309694 D    
C59   C60   1.532049 S    
C49   C75   1.533834 S    
O13   Cr3   1.990668 S    
C17   H9    1.083855 S    
C79   H79   1.103342 S    
C20   H12   1.080186 S    
C1    O9    1.331125 A    
C10   C43   1.487840 S    
C80   H78   1.108374 S    
O14   Cr4   1.990666 S    
C22   H2    1.082781 S    
C3    O11   1.331306 A    
C4    O12   1.300243 A    
O3    Cr2   2.101491 S    
C43   C71   1.480830 S    
C47   C63   1.537658 S    
C67   H50   1.088553 S    
C55   C56   1.472028 S    
O6    Cr2   1.976237 S    
C7    O19   1.298204 A    
Cr4   O26   2.063672 S    
C19   C23   1.376612 A    
C78   H73   1.101726 S    
C71   H60   1.088607 S    
C65   C66   1.510094 S    
C23   H3    1.082354 S    
O2    C10   1.306784 A    
C65   H45   1.114341 S    
C69   C70   1.509701 S    
C17   C37   1.414481 A    
C61   H35   1.086327 S    
C74   H62   1.108994 S    
Cr5   O25   2.066530 S    
C51   C79   1.533625 S    
Cr6   O26   2.066530 S    
C16   C40   1.434715 A    
C68   H47   1.097716 S    
C78   H72   1.108966 S    
Cr2   O26   2.123614 S    
C42   C46   1.310070 D    
O15   Cr4   1.990750 S    
C76   H67   1.093046 S    
C49   C53   1.333810 D    
C31   C35   1.421058 A    
C14   C38   1.434700 A    
C59   H29   1.101736 S    
O22   C10   1.345889 A    
C13   C37   1.396158 A    
C79   H80   1.099252 S    
C25   H5    1.082233 S    
C14   C33   1.439775 A    
C2    O10   1.300225 A    
C60   H28   1.109977 S    
O17   Cr5   2.119643 S    
O16   Cr3   1.990749 S    
C30   C34   1.411651 A    
Cr3   O25   2.063671 S    
C43   C47   1.328043 D    
O13   C5    1.305169 A    
C58   H21   1.107658 S    
C36   C40   1.405474 A    
C45   C59   1.537523 S    
Cr1   O25   2.123614 S    
C19   H11   1.083851 S    
O15   C7    1.305115 A    
O5    C1    1.315918 A    
C67   H49   1.106541 S    
C20   C40   1.423303 A    
C29   C33   1.420984 A    
O2    Cr2   2.101558 S    
C72   H56   1.077337 S    
C70   H53   1.106282 S    
O3    C11   1.304128 A    
O8    C4    1.338981 A    
C44   C69   1.480387 S    
C72   H57   1.096870 S    
C72   H58   1.091267 S    
C18   C22   1.391561 A    
C69   H54   1.094921 S    
C70   H51   1.074916 S    
C58   H23   1.110260 S    
C15   C39   1.396152 A    
C29   H13   1.068565 S    
C71   H59   1.106563 S    
C62   H33   1.109962 S    
C77   H75   1.110534 S    
H17   C54   1.076305 S    
C57   H24   1.102489 S    
C26   H6    1.075510 S    
C63   H39   1.101751 S    
C70   H52   1.109136 S    
C50   C73   1.489372 S    
C12   C41   1.488268 S    
C71   C72   1.503505 S    
O23   C11   1.326950 A    
C9    C44   1.439069 S    
O8    Cr1   1.976287 S    
O24   Cr5   2.006059 S    
C27   H7    1.082238 S    
C64   H36   1.090866 S    
C32   C36   1.411708 A    
C15   C36   1.403491 A    
C52   C56   1.348240 D    
C68   H48   1.091336 S    
C75   C76   1.542124 S    
C18   H10   1.080177 S    
C62   H32   1.110084 S    
C77   H74   1.094789 S    
C59   H30   1.112410 S    
C76   H68   1.108389 S    
C75   H70   1.099394 S    
C73   H64   1.094729 S    
C5    O17   1.298090 A    
C28   H8    1.075517 S    
H20   C55   1.080335 S    
C21   C25   1.379160 A    
C7    C16   1.483308 S    
C48   C61   1.570358 S    
C31   H15   1.068560 S    
O14   C6    1.295303 A    
C8    C15   1.465684 S    
C21   H1    1.082353 S    
C63   H40   1.112380 S    
C8    O20   1.302405 A    
C67   C68   1.504081 S    
C64   H37   1.100661 S    
C66   H43   1.106311 S    
O6    C2    1.338821 A    
O24   C12   1.346047 A    
C25   C29   1.396507 A    
C66   H42   1.109170 S    
O1    Cr1   2.101558 S    
C41   C67   1.480474 S    
C53   C54   1.472063 S    
C46   C57   1.571312 S    
C27   C31   1.396548 A    
C28   C32   1.382198 A    
C63   C64   1.532086 S    
C18   C38   1.423348 A    
C4    C49   1.486522 S    
C57   C58   1.532215 S    
O19   Cr6   2.119784 S    
C61   H34   1.101712 S    
C74   H61   1.081815 S    
C1    C52   1.502954 S    
C17   C21   1.376588 A    
O7    Cr2   1.976288 S    
C32   H16   1.082505 S    
C50   C54   1.348428 D    
C3    C50   1.503145 S    
C35   C39   1.409304 A    
C16   C35   1.439893 A    
C41   C45   1.328103 D    
C58   H22   1.110380 S    
O11   Cr4   2.109425 S    
O9    Cr3   2.109499 S    
C66   H41   1.074976 S    
C57   H25   1.086297 S    
O12   Cr3   2.109424 S    
O10   Cr4   2.109498 S    
C77   C78   1.539067 S    
C11   C42   1.439338 S    
C24   C28   1.382900 A    
C80   H76   1.103425 S    
C6    C13   1.465658 S    
O4    Cr1   2.101489 S    
C74   H63   1.101776 S    
C6    O18   1.302371 A    
C13   C34   1.403477 A    
O21   Cr5   2.006192 S    
O22   Cr6   2.006191 S    
C51   C55   1.333777 D    
C79   C80   1.541630 S    
C60   H26   1.090804 S    
O16   C8    1.295280 A    
C20   C24   1.391591 A    
C62   H31   1.107142 S    
