data_mof_unit_24172.cif
_audit_creation_date              2012-12-11T18:13:29-0500
_audit_creation_method            fapswitch 2.2
_symmetry_space_group_name_H-M    P1
_symmetry_Int_Tables_number       1
_space_group_crystal_system       triclinic
_cell_length_a                    8.168943
_cell_length_b                    12.653914
_cell_length_c                    18.702998
_cell_angle_alpha                 99.442136
_cell_angle_beta                  91.12085
_cell_angle_gamma                 98.584529
_cell_volume                      1883.82929578

loop_
_atom_site_label
_atom_site_type_symbol
_atom_type_description
_atom_site_fract_x
_atom_site_fract_y
_atom_site_fract_z
_atom_type_partial_charge
Ba1   Ba    Ba6+2 0.852780 0.548340 0.465070 1.635257
Ba2   Ba    Ba6+2 0.337060 0.451750 0.534940 1.634096
C1    C     C_3   0.580951 0.900472 0.252245 -0.417227
C2    C     C_R   0.891871 0.394046 0.095597 0.013815
C3    C     C_R   0.728796 0.347316 0.073297 -0.075984
C4    C     C_3   0.129491 0.761603 0.264889 0.367248
C5    C     C_R   0.663642 0.351951 0.004038 0.063416
C6    C     C_R   0.765671 0.403011 0.954959 0.033106
C7    C     C_R   0.930121 0.451155 0.977348 -0.003633
C8    C     C_R   0.707919 0.405766 0.883927 -0.112341
C9    C     C_R   0.811286 0.451714 0.833986 -0.046291
C10   C     C_R   0.974193 0.502843 0.857025 -0.003778
C11   C     C_R   0.032645 0.502794 0.929058 -0.003284
C12   C     C_3   0.632784 0.820730 0.297617 0.343237
C13   C     C_R   0.757456 0.445922 0.760987 -0.006058
C14   C     C_R   0.866492 0.486876 0.711848 -0.296711
C15   C     C_R   0.024010 0.543662 0.733997 0.045409
C16   C     C_3   0.109723 0.786319 0.188575 -0.366683
C17   C     C_R   0.078890 0.553536 0.808170 -0.045022
C18   C     C_R   0.155287 0.496452 0.071253 -0.001971
C19   C     C_R   0.215349 0.495889 0.143042 -0.004901
C20   C     C_R   0.111191 0.445328 0.191954 -0.043065
C21   C     C_R   0.953790 0.389363 0.165461 -0.038299
C22   C     C_R   0.235903 0.609993 0.834941 -0.042584
C23   C     C_3   0.460202 0.275178 0.313836 0.311955
C24   C     C_R   0.296823 0.605686 0.905008 0.032949
C25   C     C_R   0.195342 0.551984 0.952310 0.005335
C26   C     C_R   0.256872 0.548266 0.023099 0.008908
C27   C     C_R   0.459766 0.652834 0.928086 -0.084522
C28   C     C_3   0.235730 0.787517 0.619598 0.279376
C29   C     C_R   0.521597 0.647205 0.997327 -0.090252
C30   C     C_R   0.420715 0.596095 0.045461 0.031739
C31   C     C_R   0.379086 0.546586 0.165774 -0.044625
C32   C     C_R   0.481262 0.593385 0.115676 -0.107472
C33   C     C_R   0.434220 0.550948 0.238468 -0.001980
C34   C     C_3   0.433519 0.237526 0.232401 -0.404496
C35   C     C_R   0.326223 0.508672 0.287518 -0.298438
C36   C     C_R   0.166977 0.454533 0.265868 0.042857
C37   C     C_R   0.764975 0.182626 0.528856 -0.277711
C38   C     C_R   0.428508 0.807173 0.469434 -0.286470
C39   C     C_R   0.402272 0.984382 0.444186 -0.105797
C40   C     C_3   0.254095 0.910262 0.635997 -0.351569
C41   C     C_R   0.337676 0.875810 0.440165 -0.012535
C42   C     C_R   0.577945 0.848046 0.508912 0.069066
C43   C     C_R   0.642674 0.960230 0.516633 -0.059340
C44   C     C_R   0.554154 0.028370 0.482374 -0.062288
C45   C     C_3   0.062461 0.239020 0.735696 0.369998
C46   C     C_R   0.617880 0.139457 0.488705 0.045560
C47   C     C_R   0.856764 0.116332 0.559716 -0.013938
C48   C     C_R   0.793703 0.006472 0.556092 -0.094443
C49   C     C_3   0.960668 0.212041 0.380744 0.277626
C50   C     C_3   0.947565 0.089536 0.364383 -0.349267
C51   C     C_3   0.729343 0.707667 0.682947 0.315624
C52   C     C_3   0.751517 0.746242 0.764464 -0.406833
C53   C     C_3   0.486177 0.300860 0.983851 -0.415151
C54   C     C_3   0.082798 0.215491 0.812313 -0.367341
C55   C     C_3   0.559125 0.178420 0.702816 0.347560
C56   C     C_3   0.613802 0.101820 0.750005 -0.420714
C57   C     C_R   0.992313 0.447544 0.048126 0.003906
H1    H     H_    0.723788 0.864871 0.341232 0.076879
H2    H     H_    0.846268 0.683479 0.662228 0.012521
H3    H     H_    0.628368 0.637175 0.672363 0.066475
H4    H     H_    0.526867 0.964936 0.287265 0.105049
H5    H     H_    0.858642 0.812645 0.776691 0.127451
H6    H     H_    0.774002 0.678774 0.792515 0.058006
H7    H     H_    0.521054 0.786170 0.323755 -0.050691
H8    H     H_    0.487119 0.857350 0.209538 0.113672
H9    H     H_    0.343461 0.299075 0.335683 0.018595
H10   H     H_    0.560473 0.346241 0.323611 0.059596
H11   H     H_    0.328162 0.169781 0.220961 0.128799
H12   H     H_    0.344805 0.941499 0.682129 0.113401
H13   H     H_    0.405568 0.305206 0.205627 0.056315
H14   H     H_    0.547081 0.209299 0.209678 0.118202
H15   H     H_    0.689567 0.938014 0.225529 0.130161
H16   H     H_    0.149626 0.721287 0.148592 0.071144
H17   H     H_    0.142993 0.316509 0.731926 0.094536
H18   H     H_    0.931382 0.247790 0.725804 -0.076186
H19   H     H_    0.041562 0.280399 0.851926 0.070260
H20   H     H_    0.006999 0.136754 0.817248 0.111054
H21   H     H_    0.669878 0.213349 0.676139 -0.053605
H22   H     H_    0.469755 0.131585 0.659453 0.077906
H23   H     H_    0.298365 0.945431 0.588214 0.082646
H24   H     H_    0.705421 0.147729 0.792772 0.113478
H25   H     H_    0.671385 0.037748 0.716292 0.096241
H26   H     H_    0.505813 0.063441 0.776701 0.128981
H27   H     H_    0.651163 0.307672 0.110444 0.060216
H28   H     H_    0.824928 0.478881 0.655675 0.070104
H29   H     H_    0.582297 0.370003 0.867165 0.113939
H30   H     H_    0.875188 0.344036 0.199263 0.096477
H31   H     H_    0.315049 0.655081 0.801193 0.096664
H32   H     H_    0.540241 0.693285 0.892295 0.062131
H33   H     H_    0.648217 0.683805 0.013479 0.070733
H34   H     H_    0.132753 0.935430 0.650317 0.143617
H35   H     H_    0.607990 0.629749 0.130809 0.107452
H36   H     H_    0.260156 0.751645 0.274507 -0.075704
H37   H     H_    0.368937 0.514932 0.343394 0.072940
H38   H     H_    0.866066 0.958788 0.582978 0.104029
H39   H     H_    0.813628 0.267784 0.532345 0.064640
H40   H     H_    0.377371 0.722330 0.465304 0.071697
H41   H     H_    0.978110 0.791287 0.175791 0.150149
H42   H     H_    0.356217 0.763307 0.604708 0.007880
H43   H     H_    0.143274 0.758233 0.573735 0.076245
H44   H     H_    0.637937 0.776685 0.785360 0.117943
H45   H     H_    0.840124 0.234284 0.397024 0.002645
H46   H     H_    0.214742 0.211804 0.825386 0.149897
H47   H     H_    0.047747 0.684412 0.268258 0.094296
H48   H     H_    0.482257 0.233443 0.937326 0.119748
H49   H     H_    0.424373 0.267390 0.029483 0.115622
H50   H     H_    0.414263 0.362344 0.968833 0.123793
H51   H     H_    0.329033 0.033527 0.419000 0.101451
H52   H     H_    0.186875 0.864759 0.184010 0.110516
H53   H     H_    0.054695 0.242975 0.425696 0.081947
H54   H     H_    0.854986 0.056480 0.319231 0.115159
H55   H     H_    0.908453 0.053911 0.412649 0.086833
H56   H     H_    0.069651 0.066820 0.348687 0.141565
O1    O     O_2   0.873090 0.425890 0.325140 -0.466872
O2    O     O_2   0.197588 0.121351 0.552637 -0.481788
O3    O     O_3   0.108177 0.153573 0.686117 -0.598026
O4    O     O_3   0.122420 0.434370 0.414380 -0.494621
O5    O     O_3   0.578370 0.633800 0.536380 -0.488762
O6    O     O_2   0.341510 0.231850 0.465510 -0.468037
O7    O     O_3   0.504240 0.189857 0.345556 -0.650908
O8    O     O_2   0.416066 0.453260 0.756715 -0.497937
O9    O     O_3   0.479801 0.255785 0.746094 -0.596735
O10   O     O_3   0.659500 0.627100 0.368810 -0.472143
O11   O     O_2   0.776321 0.546961 0.243602 -0.496205
O12   O     O_3   0.690003 0.793137 0.650508 -0.643028
O13   O     O_3   0.003524 0.253057 0.317673 -0.640563
O14   O     O_3   0.708217 0.742982 0.252768 -0.598045
O15   O     O_2   0.848200 0.768190 0.534530 -0.472993
O16   O     O_3   0.081160 0.685950 0.404810 -0.486727
O17   O     O_2   0.999574 0.879366 0.449553 -0.485261
O18   O     O_3   0.085273 0.847006 0.315000 -0.599011
O19   O     O_2   0.316610 0.574140 0.674900 -0.468884
O20   O     O_3   0.067290 0.565720 0.585630 -0.496185
O21   O     O_3   0.530210 0.372990 0.631200 -0.464632
O22   O     O_3   0.186037 0.747037 0.682145 -0.639434
O23   O     O_3   0.611340 0.366290 0.463630 -0.477150
O24   O     O_3   0.108550 0.314140 0.595200 -0.484438
P1    P     P_3+3 0.041040 0.394770 0.336330 0.971634
P2    P     P_3+3 0.672880 0.754030 0.556100 0.969840
P3    P     P_3+3 0.126535 0.823833 0.402848 0.949528
P4    P     P_3+3 0.148670 0.605320 0.663680 0.971309
P5    P     P_3+3 0.066692 0.175141 0.597890 0.952029
P6    P     P_3+3 0.644060 0.614544 0.274831 0.950256
P7    P     P_3+3 0.522348 0.230210 0.439791 0.933923
P8    P     P_3+3 0.546450 0.384449 0.724929 0.949328

loop_
_geom_bond_atom_site_label_1
_geom_bond_atom_site_label_2
_ccdc_geom_bond_type
C6    C7    A    
C16   H16   S    
C40   H34   S    
C40   H23   S    
C5    C53   S    
C38   H40   S    
C5    C6    A    
C52   H6    S    
C51   C52   S    
C8    H29   S    
O18   P3    S    
C49   H53   S    
C54   H20   S    
O4    P1    S    
C33   C35   A    
Ba1   O10   S    
C45   H17   S    
C4    O18   S    
O3    P5    S    
O12   P2    S    
C50   H56   S    
C19   C31   A    
C13   C14   A    
C20   C36   A    
C47   P5    S    
C54   H19   S    
C2    C57   A    
Ba1   Ba2   S    
Ba1   O4    S    
O15   P2    D    
C1    H15   S    
C7    C11   A    
C51   O12   S    
C31   C33   A    
O19   P4    D    
C51   H2    S    
C38   C41   A    
Ba2   O24   S    
C42   P2    S    
C46   P7    S    
C14   H28   S    
C39   C44   A    
C21   H30   S    
Ba1   O1    S    
C23   O7    S    
O14   P6    S    
O20   P4    S    
O22   P4    S    
C28   O22   S    
C19   C20   A    
C53   H50   S    
Ba2   P4    S    
C39   C41   A    
C55   H21   S    
C23   H9    S    
C16   H41   S    
O11   P6    D    
C34   H11   S    
C45   O3    S    
O17   P3    D    
C4    C16   S    
O9    P8    S    
C44   C46   A    
C49   C50   S    
Ba2   O23   S    
C52   H44   S    
C26   C30   A    
O2    P5    D    
C16   H52   S    
Ba1   O15   S    
C8    C9    A    
C3    C5    A    
C2    C21   A    
Ba2   O5    S    
C14   C15   A    
C37   H39   S    
C18   C26   A    
C49   H45   S    
C43   C44   A    
Ba2   O21   S    
C35   H37   S    
C53   H48   S    
C7    C57   A    
Ba1   O5    S    
C30   C32   A    
C35   C36   A    
C56   H25   S    
O24   P5    S    
C29   C30   A    
Ba2   O4    S    
C28   H43   S    
C31   C32   A    
C12   H7    S    
Ba2   O19   S    
C10   C11   A    
C18   C57   A    
C4    H47   S    
C1    C12   S    
C24   C27   A    
C3    H27   S    
O16   P3    S    
C1    H4    S    
C37   C47   A    
C45   C54   S    
O8    P8    D    
C29   H33   S    
C9    C13   A    
C39   H51   S    
C24   C25   A    
C47   C48   A    
C55   H22   S    
C23   H10   S    
C49   O13   S    
C56   H26   S    
C27   H32   S    
C42   C43   A    
Ba2   O6    S    
C33   P6    S    
C48   H38   S    
C36   P1    S    
O6    P7    D    
C1    H8    S    
O5    P2    S    
C32   H35   S    
C22   C24   A    
C2    C3    A    
Ba1   O16   S    
C22   H31   S    
C10   C17   A    
C9    C10   A    
C50   H55   S    
C12   H1    S    
Ba2   O20   S    
C53   H49   S    
C15   P4    S    
C17   C22   A    
O13   P1    S    
C27   C29   A    
O10   P6    S    
C56   H24   S    
C55   O9    S    
C13   P8    S    
C55   C56   S    
C52   H5    S    
C43   C48   A    
O23   P7    S    
C50   H54   S    
C28   H42   S    
C40   H12   S    
C15   C17   A    
C28   C40   S    
O7    P7    S    
C54   H46   S    
O21   P8    S    
Ba1   P2    S    
C34   H14   S    
C23   C34   S    
C38   C42   A    
C18   C19   A    
C51   H3    S    
C6    C8    A    
C4    H36   S    
C25   C26   A    
C45   H18   S    
C20   C21   A    
C11   C25   A    
C41   P3    S    
Ba1   P1    S    
Ba1   O20   S    
Ba1   O23   S    
C34   H13   S    
C37   C46   A    
O1    P1    D    
C12   O14   S    
