data_mof_unit_28244.cif
_audit_creation_date              2012-12-10T19:46:26-0500
_audit_creation_method            fapswitch 2.2
_symmetry_space_group_name_H-M    P1
_symmetry_Int_Tables_number       1
_space_group_crystal_system       triclinic
_cell_length_a                    10.856561
_cell_length_b                    10.864077
_cell_length_c                    10.427284
_cell_angle_alpha                 90.435544
_cell_angle_beta                  90.273793
_cell_angle_gamma                 90.139365
_cell_volume                      1229.80848194

loop_
_atom_site_label
_atom_site_type_symbol
_atom_type_description
_atom_site_fract_x
_atom_site_fract_y
_atom_site_fract_z
_atom_type_partial_charge
C1    C     C_R   0.495719 0.261511 0.499181 0.793721
C2    C     C_R   0.504296 0.738489 0.500820 0.793627
C3    C     C_R   0.872008 0.493925 0.501611 -0.084529
C4    C     C_R   0.127995 0.506039 0.498385 -0.084486
C5    C     C_R   0.939770 0.455082 0.610047 -0.004055
C6    C     C_R   0.060238 0.544875 0.389951 -0.004063
C7    C     C_R   0.268755 0.219836 0.138683 -0.118175
C8    C     C_R   0.730832 0.779476 0.861302 -0.118013
C9    C     C_R   0.309460 0.170235 0.254696 -0.112955
C10   C     C_R   0.690223 0.829097 0.745262 -0.112002
C11   C     C_R   0.426257 0.115544 0.262990 0.127500
C12   C     C_R   0.573741 0.884469 0.737075 0.127324
C13   C     C_R   0.501316 0.110590 0.153758 -0.157269
C14   C     C_R   0.498951 0.890142 0.846475 -0.157915
C15   C     C_R   0.460436 0.161005 0.038152 -0.149351
C16   C     C_R   0.539745 0.839730 0.962114 -0.149241
C17   C     C_R   0.344212 0.215450 0.030565 -0.120317
C18   C     C_R   0.655625 0.784564 0.969572 -0.120505
C19   C     C_R   0.476859 0.932433 0.388290 -0.253861
C20   C     C_R   0.523205 0.067573 0.611715 -0.253924
C21   C     C_R   0.506693 0.872109 0.502305 -0.083382
C22   C     C_R   0.493373 0.127893 0.497701 -0.083354
C23   C     C_R   0.261557 0.503922 0.499442 0.793979
C24   C     C_R   0.738444 0.496067 0.500558 0.793774
C25   C     C_R   0.532090 0.940498 0.615327 -0.000377
C26   C     C_R   0.467983 0.059505 0.384688 -0.000506
C27   C     C_1   0.500020 0.500010 0.071944 0.091758
C28   C     C_1   0.499981 0.499991 0.928056 0.091550
C29   C     C_R   0.230794 0.761296 0.169009 -0.135725
C30   C     C_R   0.769174 0.238722 0.831031 -0.135842
C31   C     C_R   0.178962 0.711386 0.279725 -0.106642
C32   C     C_R   0.820875 0.288682 0.720276 -0.106225
C33   C     C_R   0.117886 0.597289 0.273868 0.133830
C34   C     C_R   0.882150 0.402668 0.726149 0.133901
C35   C     C_R   0.108911 0.534456 0.156000 -0.149728
C36   C     C_R   0.891460 0.465326 0.844078 -0.150323
C37   C     C_R   0.162739 0.583641 0.046084 -0.145005
C38   C     C_R   0.837740 0.416106 0.954028 -0.144991
C39   C     C_R   0.223422 0.697112 0.052523 -0.118801
C40   C     C_R   0.776863 0.302750 0.947571 -0.118933
C41   C     C_R   0.932804 0.537092 0.392719 -0.248407
C42   C     C_R   0.067204 0.462865 0.607270 -0.248376
Cu1   Cu    Cu3+1 0.500000 0.500000 0.625300 0.978195
Cu2   Cu    Cu3+1 0.500000 0.500000 0.374700 0.978323
H1    H     H_    0.264219 0.735521 0.967141 0.129250
H2    H     H_    0.736173 0.264300 0.032984 0.129067
H3    H     H_    0.591272 0.067950 0.158299 0.126686
H4    H     H_    0.409256 0.933331 0.842038 0.126961
H5    H     H_    0.518537 0.157363 0.954253 0.130263
H6    H     H_    0.481836 0.843921 0.046128 0.130337
H7    H     H_    0.456904 0.880252 0.301689 0.153452
H8    H     H_    0.543127 0.119764 0.698317 0.153460
H9    H     H_    0.276064 0.850036 0.173212 0.120336
H10   H     H_    0.723776 0.150051 0.826819 0.120338
H11   H     H_    0.185598 0.761745 0.369549 0.104373
H12   H     H_    0.814008 0.238432 0.630414 0.104294
H13   H     H_    0.060737 0.447296 0.149646 0.114771
H14   H     H_    0.939838 0.552371 0.850461 0.114855
H15   H     H_    0.156987 0.534059 0.955829 0.126182
H16   H     H_    0.843745 0.465563 0.044326 0.126218
H17   H     H_    0.880720 0.568676 0.310267 0.154042
H18   H     H_    0.119296 0.431276 0.689716 0.154045
H19   H     H_    0.312582 0.254084 0.940901 0.126454
H20   H     H_    0.687185 0.745911 0.059255 0.126540
H21   H     H_    0.178400 0.260890 0.132370 0.120737
H22   H     H_    0.820921 0.737854 0.867512 0.120835
N1    N     N_1   0.500010 0.499990 0.186410 -0.139386
N2    N     N_1   0.499990 0.500010 0.813590 -0.139440
O1    O     O_R   0.499990 0.319650 0.605810 -0.585793
O2    O     O_R   0.500010 0.680350 0.394190 -0.585729
O3    O     O_R   0.499990 0.319640 0.394190 -0.565751
O4    O     O_R   0.500010 0.680360 0.605810 -0.565802
O5    O     O_R   0.319640 0.500010 0.605810 -0.589576
O6    O     O_R   0.680360 0.499990 0.394190 -0.589562
O7    O     O_R   0.319650 0.500010 0.394190 -0.562542
O8    O     O_R   0.680350 0.499990 0.605810 -0.562670
H23   H     H_    0.250009 0.173774 0.337743 0.106371
H24   H     H_    0.749487 0.825004 0.662098 0.106181

loop_
_geom_bond_atom_site_label_1
_geom_bond_atom_site_label_2
_ccdc_geom_bond_type
Cu1   O5    S    
C30   C32   A    
C5    C42   A    
C8    H22   S    
Cu1   O4    S    
C41   H17   S    
C18   H20   S    
C10   H24   S    
C28   N2    T    
C40   H2    S    
C30   H10   S    
C1    O3    A    
C4    C42   A    
C19   C21   A    
C16   H6    S    
C36   H14   S    
C20   C25   A    
Cu2   O3    S    
C15   C17   A    
C19   C26   A    
Cu1   N2    S    
C7    C17   A    
C6    C41   A    
C31   C33   A    
Cu2   O2    S    
C42   H18   S    
C39   H1    S    
C1    C22   S    
Cu1   O1    S    
C3    C24   S    
C23   O5    A    
C2    O4    A    
C4    C6    A    
C23   O7    A    
C13   H3    S    
C4    C23   S    
C24   O8    A    
C14   H4    S    
C11   C26   S    
C8    C18   A    
C32   C34   A    
Cu2   O7    S    
Cu1   Cu2   S    
C7    H21   S    
C29   C31   A    
C5    C34   S    
C29   C39   A    
C2    C21   S    
C30   C40   A    
C9    H23   S    
Cu2   O6    S    
C9    C11   A    
C37   H15   S    
C10   C12   A    
C38   H16   S    
C8    C10   A    
C20   C22   A    
C13   C15   A    
C14   C16   A    
Cu1   O8    S    
C7    C9    A    
C21   C25   A    
C3    C41   A    
C35   C37   A    
C12   C14   A    
C3    C5    A    
C20   H8    S    
C6    C33   S    
C12   C25   S    
C35   H13   S    
C36   C38   A    
C37   C39   A    
C17   H19   S    
C38   C40   A    
C11   C13   A    
C24   O6    A    
C29   H9    S    
C33   C35   A    
C34   C36   A    
C15   H5    S    
C1    O1    A    
C27   N1    T    
C19   H7    S    
C16   C18   A    
C22   C26   A    
C27   C28   S    
Cu2   N1    S    
C31   H11   S    
C2    O2    A    
C32   H12   S    
