data_mof_unit_36632.cif
_audit_creation_date              2012-12-11T14:30:51-0500
_audit_creation_method            fapswitch 2.2
_symmetry_space_group_name_H-M    P1
_symmetry_Int_Tables_number       1
_space_group_crystal_system       triclinic
_cell_length_a                    17.42675
_cell_length_b                    24.386328
_cell_length_c                    14.989958
_cell_angle_alpha                 90.116964
_cell_angle_beta                  125.411187
_cell_angle_gamma                 90.017997
_cell_volume                      5191.90837066

loop_
_atom_site_label
_atom_site_type_symbol
_atom_type_description
_atom_site_fract_x
_atom_site_fract_y
_atom_site_fract_z
_atom_type_partial_charge
C1    C     C_R   0.839925 0.648923 0.907320 -0.162416
C2    C     C_R   0.001632 0.501967 0.678594 0.135939
C3    C     C_R   0.566392 0.002352 0.365841 0.132919
C4    C     C_R   0.481051 0.000404 0.661869 0.138822
C5    C     C_R   0.675386 0.500328 0.713639 0.064713
C6    C     C_R   0.307528 0.501583 0.358073 0.079471
C7    C     C_R   0.175360 0.000945 0.696229 0.073373
C8    C     C_R   0.802736 0.001411 0.361925 0.082651
C9    C     C_3   0.511000 0.448806 0.586719 -0.256658
C10   C     C_3   0.475985 0.465128 0.468485 -0.219048
C11   C     C_3   0.012600 0.949012 0.577375 -0.260553
C12   C     C_R   0.163255 0.647592 0.094276 -0.149938
C13   C     C_3   0.969868 0.966975 0.457839 -0.218140
C14   C     C_3   0.433999 0.485249 0.576185 0.270457
C15   C     C_3   0.540484 0.515254 0.513510 0.268806
C16   C     C_3   0.938773 0.983926 0.576704 0.268177
C17   C     C_3   0.033158 0.017632 0.499791 0.263917
C18   C     C_3   0.399610 0.501333 0.460350 0.126795
C19   C     C_3   0.575670 0.499591 0.629819 0.111989
C20   C     C_3   0.896625 0.001587 0.459642 0.131179
C21   C     C_3   0.075831 0.000365 0.616927 0.116194
C22   C     C_3   0.464980 0.551845 0.504323 -0.293504
C23   C     C_R   0.338188 0.148187 0.907333 -0.159218
C24   C     C_3   0.499928 0.535674 0.622454 -0.277302
C25   C     C_3   0.960683 0.052670 0.500334 -0.293832
C26   C     C_3   0.003550 0.034791 0.619891 -0.272838
C27   C     C_2   0.123712 0.767356 0.926490 -0.115153
C28   C     C_2   0.878724 0.767563 0.079643 -0.115100
C29   C     C_2   0.752102 0.185520 0.916306 -0.112578
C30   C     C_2   0.376919 0.266339 0.079364 -0.118325
C31   C     C_2   0.175316 0.730453 0.005937 -0.198599
C32   C     C_2   0.828618 0.731702 0.997173 -0.197413
C33   C     C_2   0.765362 0.163811 0.006087 -0.192136
C34   C     C_R   0.691602 0.124608 0.093945 -0.152522
C35   C     C_2   0.325563 0.230059 0.998071 -0.196330
C36   C     C_2   0.803428 0.234747 0.923379 -0.119548
C37   C     C_2   0.333025 0.315870 0.085657 -0.113679
C38   C     C_2   0.168008 0.816785 0.920506 -0.114986
C39   C     C_2   0.834053 0.816878 0.085743 -0.113316
C40   C     C_R   0.934644 0.354518 0.094036 -0.145337
C41   C     C_R   0.093878 0.374582 0.907430 -0.146557
C42   C     C_R   0.406944 0.876986 0.095350 -0.151967
C43   C     C_R   0.594784 0.875912 0.907294 -0.146969
C44   C     C_2   0.835428 0.270599 0.005973 -0.196092
C45   C     C_R   0.866894 0.325022 0.003005 0.133199
C46   C     C_2   0.256435 0.336971 0.995305 -0.194285
C47   C     C_2   0.246655 0.836761 0.010387 -0.192184
C48   C     C_2   0.757663 0.838277 0.995439 -0.193199
C49   C     C_2   0.106490 0.457916 0.531704 -0.122498
C50   C     C_2   0.086911 0.461881 0.613512 -0.117478
C51   C     C_2   0.598801 0.958801 0.528223 -0.119731
C52   C     C_2   0.571648 0.961832 0.603193 -0.116538
C53   C     C_2   0.106394 0.503095 0.481518 -0.162004
C54   C     C_2   0.031219 0.501965 0.607048 -0.198208
C55   C     C_2   0.599043 0.004259 0.479102 -0.170436
C56   C     C_R   0.183113 0.362837 0.998504 0.132541
C57   C     C_2   0.508526 0.999196 0.588189 -0.203849
C58   C     C_R   0.049868 0.547053 0.302706 -0.147875
C59   C     C_R   0.990791 0.547721 0.724106 -0.139448
C60   C     C_R   0.548426 0.047458 0.301813 -0.145940
C61   C     C_R   0.474732 0.046482 0.710481 -0.143207
C62   C     C_R   0.731850 0.454763 0.744943 -0.151152
C63   C     C_R   0.258003 0.455826 0.299461 -0.172228
C64   C     C_R   0.231275 0.955438 0.728152 -0.162177
C65   C     C_R   0.755627 0.955758 0.301287 -0.172770
C66   C     C_R   0.050985 0.455814 0.303368 -0.119856
C67   C     C_R   0.319161 0.862358 0.005310 0.132016
C68   C     C_R   0.983741 0.456091 0.717425 -0.132775
C69   C     C_R   0.551969 0.956361 0.304243 -0.132551
C70   C     C_R   0.473068 0.955220 0.710219 -0.135919
C71   C     C_R   0.730122 0.546725 0.742964 -0.099910
C72   C     C_R   0.259447 0.547280 0.299161 -0.131935
C73   C     C_R   0.230114 0.047231 0.733618 -0.109622
C74   C     C_R   0.756025 0.046939 0.302475 -0.143868
C75   C     C_R   0.844520 0.353330 0.911044 -0.125674
C76   C     C_R   0.186523 0.376750 0.090053 -0.112780
C77   C     C_R   0.316296 0.873308 0.912805 -0.109314
C78   C     C_R   0.684029 0.864020 0.998486 0.132354
C79   C     C_R   0.686961 0.877360 0.090026 -0.114703
C80   C     C_R   0.931933 0.648497 0.090508 -0.116455
C81   C     C_R   0.069057 0.648570 0.910897 -0.119920
C82   C     C_R   0.430481 0.147723 0.090722 -0.119375
C83   C     C_R   0.598632 0.126389 0.910878 -0.109396
C84   C     C_R   0.863168 0.677528 0.999315 0.136526
C85   C     C_R   0.139889 0.676540 0.002834 0.134976
C86   C     C_R   0.360644 0.176270 0.999580 0.135300
C87   C     C_R   0.688521 0.137963 0.002549 0.134157
C88   C     C_3   0.319433 0.421685 0.564190 -0.952585
C89   C     C_R   0.067667 0.501628 0.366246 0.128661
C90   C     C_3   0.649093 0.490723 0.465701 -0.933594
C91   C     C_3   0.825301 0.920936 0.568828 -0.957477
C92   C     C_3   0.136929 0.996708 0.443376 -0.934636
H1    H     H_    0.798731 0.664066 0.824205 0.092786
H2    H     H_    0.511178 0.563605 0.687632 0.132182
H3    H     H_    0.939956 0.095049 0.468093 0.123133
H4    H     H_    0.019544 0.061665 0.688598 0.133033
H5    H     H_    0.052349 0.757924 0.857424 0.119130
H6    H     H_    0.948508 0.757145 0.150685 0.117472
H7    H     H_    0.692675 0.173588 0.835147 0.116168
H8    H     H_    0.447559 0.256358 0.149177 0.117828
H9    H     H_    0.247587 0.738337 0.074195 0.131273
H10   H     H_    0.757761 0.740564 0.926830 0.130248
H11   H     H_    0.828779 0.172810 0.086618 0.127893
H12   H     H_    0.207124 0.661480 0.178393 0.091409
H13   H     H_    0.253879 0.238491 0.929096 0.130964
H14   H     H_    0.802623 0.245153 0.852498 0.117910
H15   H     H_    0.354709 0.328340 0.166631 0.114745
H16   H     H_    0.144394 0.830191 0.839404 0.114457
H17   H     H_    0.855170 0.828990 0.166667 0.114130
H18   H     H_    0.834680 0.261633 0.076284 0.131021
H19   H     H_    0.239333 0.327290 0.914898 0.127701
H20   H     H_    0.265284 0.826825 0.091288 0.129786
H21   H     H_    0.740918 0.829021 0.915062 0.127422
H22   H     H_    0.102150 0.417282 0.499582 0.117538
H23   H     H_    0.296281 0.163344 0.824248 0.093739
H24   H     H_    0.108333 0.428100 0.670482 0.121390
H25   H     H_    0.600830 0.918265 0.499831 0.117700
H26   H     H_    0.597239 0.930092 0.665016 0.123199
H27   H     H_    0.116626 0.543261 0.518478 0.127062
H28   H     H_    0.006741 0.535477 0.549112 0.131279
H29   H     H_    0.602944 0.044397 0.513251 0.128156
H30   H     H_    0.480821 0.030737 0.525824 0.133348
H31   H     H_    0.975534 0.340803 0.178161 0.093418
H32   H     H_    0.067628 0.364897 0.824361 0.087823
H33   H     H_    0.432996 0.872901 0.180234 0.099982
H34   H     H_    0.751045 0.129137 0.178255 0.095836
H35   H     H_    0.569385 0.867830 0.823874 0.089225
H36   H     H_    0.067871 0.589021 0.331128 0.088988
H37   H     H_    0.994610 0.590202 0.706688 0.093219
H38   H     H_    0.564375 0.089665 0.329102 0.088072
H39   H     H_    0.467613 0.088266 0.683060 0.087265
H40   H     H_    0.709926 0.412423 0.726424 0.098729
H41   H     H_    0.272679 0.413852 0.327733 0.100708
H42   H     H_    0.209119 0.914390 0.696523 0.092911
H43   H     H_    0.770419 0.913605 0.328480 0.101413
H44   H     H_    0.070308 0.413983 0.331307 0.082420
H45   H     H_    0.530611 0.407064 0.622621 0.125975
H46   H     H_    0.974132 0.414759 0.686774 0.088319
H47   H     H_    0.572216 0.914766 0.333410 0.083337
H48   H     H_    0.462917 0.913329 0.681920 0.088953
H49   H     H_    0.706568 0.588725 0.723118 0.094631
H50   H     H_    0.274398 0.589556 0.325963 0.088076
H51   H     H_    0.207491 0.089412 0.714623 0.095945
H52   H     H_    0.769609 0.089038 0.330458 0.088048
H53   H     H_    0.802587 0.338727 0.827467 0.082154
H54   H     H_    0.245093 0.372215 0.174504 0.087910
H55   H     H_    0.261121 0.861877 0.830425 0.082316
H56   H     H_    0.465217 0.436837 0.403976 0.126938
H57   H     H_    0.745624 0.873062 0.174540 0.088084
H58   H     H_    0.972973 0.661888 0.174941 0.084466
H59   H     H_    0.027419 0.663061 0.827387 0.082971
H60   H     H_    0.471024 0.161018 0.175199 0.085448
H61   H     H_    0.571917 0.134198 0.827132 0.085585
H62   H     H_    0.414420 0.470342 0.697585 0.168395
H63   H     H_    0.288688 0.409928 0.608801 0.251626
H64   H     H_    0.362437 0.386879 0.568193 0.243543
H65   H     H_    0.260543 0.429953 0.478168 0.260191
H66   H     H_    0.565206 0.560164 0.414566 0.162121
H67   H     H_    0.034844 0.906979 0.611159 0.121901
H68   H     H_    0.700679 0.509705 0.454175 0.253296
H69   H     H_    0.598893 0.465494 0.392412 0.242156
H70   H     H_    0.688070 0.463960 0.538756 0.261569
H71   H     H_    0.931340 0.963717 0.705616 0.169487
H72   H     H_    0.797888 0.908323 0.616614 0.251808
H73   H     H_    0.862971 0.885651 0.563785 0.243075
H74   H     H_    0.764165 0.932526 0.485985 0.261674
H75   H     H_    0.045749 0.062764 0.391405 0.162318
H76   H     H_    0.181278 0.017260 0.422266 0.252358
H77   H     H_    0.087347 0.968417 0.375621 0.243800
H78   H     H_    0.955077 0.939723 0.390077 0.126737
H79   H     H_    0.183828 0.972881 0.519398 0.261869
H80   H     H_    0.446839 0.593870 0.469666 0.123785
N1    N     N_R   0.892320 0.603520 0.941090 -0.040690
N2    N     N_R   0.973240 0.529450 0.794410 -0.040682
N3    N     N_R   0.526760 0.029450 0.205590 -0.038253
N4    N     N_R   0.473240 0.029450 0.794410 -0.039635
N5    N     N_R   0.819350 0.473090 0.793940 -0.040724
N6    N     N_R   0.180650 0.473090 0.206060 -0.036040
N7    N     N_R   0.319350 0.973090 0.793940 -0.037700
N8    N     N_R   0.680650 0.973090 0.206060 -0.034555
N9    N     N_R   0.027860 0.473090 0.206590 -0.041351
N10   N     N_R   0.972140 0.473090 0.793410 -0.041180
N11   N     N_R   0.527860 0.973090 0.206590 -0.039663
N12   N     N_R   0.107680 0.603520 0.058910 -0.040751
N13   N     N_R   0.472140 0.973090 0.793410 -0.040192
N14   N     N_R   0.818250 0.529450 0.792940 -0.040800
N15   N     N_R   0.181750 0.529450 0.207060 -0.036203
N16   N     N_R   0.318250 0.029450 0.792940 -0.040122
N17   N     N_R   0.681750 0.029450 0.207060 -0.034856
N18   N     N_R   0.896320 0.399020 0.944720 -0.042016
N19   N     N_R   0.103680 0.399020 0.055280 -0.044311
N20   N     N_R   0.396320 0.899020 0.944720 -0.044596
N21   N     N_R   0.603680 0.899020 0.055280 -0.045249
N22   N     N_R   0.949790 0.603520 0.054810 -0.043377
N23   N     N_R   0.392320 0.103520 0.941090 -0.041194
N24   N     N_R   0.050210 0.603520 0.945190 -0.042816
N25   N     N_R   0.449790 0.103520 0.054810 -0.044095
N26   N     N_R   0.550210 0.103520 0.945190 -0.045477
N27   N     N_2   0.376471 0.470370 0.613391 -0.106128
N28   N     N_2   0.599210 0.533365 0.479637 -0.114729
N29   N     N_2   0.887872 0.967266 0.621575 -0.106421
N30   N     N_2   0.085377 0.037630 0.458541 -0.115251
N31   N     N_R   0.607680 0.103520 0.058910 -0.042715
N32   N     N_R   0.953790 0.399020 0.058440 -0.040568
N33   N     N_R   0.046210 0.399020 0.941560 -0.040497
N34   N     N_R   0.453790 0.899020 0.058440 -0.042269
N35   N     N_R   0.546210 0.899020 0.941560 -0.041750
N36   N     N_R   0.026760 0.529450 0.205590 -0.039889
Ni1   Ni    Ni4+2 0.934100 0.565890 0.869590 0.212378
Ni2   Ni    Ni4+2 0.065900 0.565890 0.130410 0.207719
Ni3   Ni    Ni4+2 0.434100 0.065890 0.869590 0.215016
Ni4   Ni    Ni4+2 0.565900 0.065890 0.130410 0.208930
Ni5   Ni    Ni4+2 0.068420 0.436630 0.132700 0.205850
Ni6   Ni    Ni4+2 0.931580 0.436630 0.867300 0.207152
Ni7   Ni    Ni4+2 0.568420 0.936630 0.132700 0.207175
Ni8   Ni    Ni4+2 0.431580 0.936630 0.867300 0.210023

loop_
_geom_bond_atom_site_label_1
_geom_bond_atom_site_label_2
_ccdc_geom_bond_type
N34   Ni7   S    
C69   H47   S    
C83   C87   A    
C21   C26   S    
C55   H29   S    
C38   H16   S    
C70   H48   S    
C31   C85   S    
C54   H28   S    
N2    Ni1   S    
C11   C13   S    
C14   C18   S    
C91   H74   S    
C68   H46   S    
C67   C77   A    
C80   C84   A    
C59   N2    A    
N2    N10   A    
C62   N5    A    
C4    C70   A    
C11   H67   S    
N4    N13   A    
C7    C73   A    
C75   H53   S    
C1    C84   A    
C15   C19   S    
C29   C36   S    
C1    N1    A    
C50   C54   D    
C63   N6    A    
C12   C85   A    
C90   H70   S    
N21   N35   A    
C31   H9    S    
C41   H32   S    
C3    C69   A    
C37   H15   S    
C2    C68   A    
N8    N17   A    
C35   C86   S    
C15   N28   S    
C90   N28   S    
C20   C25   S    
C27   C38   S    
C48   C78   S    
C47   H20   S    
C30   H8    S    
N19   N33   A    
H75   N30   S    
C14   C24   S    
N13   Ni8   S    
N12   N24   A    
C42   H33   S    
C51   H25   S    
C57   H30   S    
C9    H45   S    
C9    C19   S    
C15   C22   S    
C27   H5    S    
C40   N32   A    
C29   C33   D    
C23   C86   A    
N7    Ni8   S    
H66   N28   S    
C9    C10   S    
C77   H55   S    
C51   C55   D    
C70   N13   A    
C34   H34   S    
C79   H57   S    
N10   Ni6   S    
C3    C60   A    
C82   C86   A    
C49   H22   S    
C76   H54   S    
C8    C65   A    
C33   H11   S    
C46   H19   S    
C90   H68   S    
C61   N4    A    
C3    C55   S    
C32   C84   S    
C47   C67   S    
C13   C20   S    
C81   C85   A    
N21   Ni7   S    
C66   C89   A    
N11   Ni7   S    
C40   C45   A    
C6    C18   S    
C64   H42   S    
C29   H7    S    
C90   H69   S    
C43   N35   A    
C51   C52   S    
C88   H63   S    
C62   H40   S    
C28   C32   D    
C75   N18   A    
C82   N25   A    
C2    C54   S    
C43   H35   S    
N17   Ni4   S    
C64   N7    A    
C2    C59   A    
N7    N16   A    
C28   C39   S    
C25   C26   S    
C81   H59   S    
C36   H14   S    
C4    C61   A    
C11   C21   S    
C17   C21   S    
N5    N14   A    
C30   C37   S    
C43   C78   A    
C6    C63   A    
C4    C57   S    
C80   H58   S    
C9    C14   S    
C41   C56   A    
N23   Ni3   S    
C35   H13   S    
C24   H2    S    
N22   Ni2   S    
C74   N17   A    
C11   C16   S    
C92   H76   S    
N15   Ni2   S    
C58   N36   A    
C92   H77   S    
C16   C20   S    
C68   N10   A    
N9    N36   A    
C8    C74   A    
C6    C72   A    
C12   H12   S    
C8    C20   S    
C88   H65   S    
C83   N26   A    
N26   Ni3   S    
N18   Ni6   S    
N3    Ni4   S    
C38   C47   D    
C65   H43   S    
C69   N11   A    
C66   H44   S    
N6    N15   A    
C30   C35   D    
N36   Ni2   S    
C13   H78   S    
C65   N8    A    
C66   N9    A    
N33   Ni6   S    
C25   H3    S    
C56   C76   A    
C27   C31   D    
C53   C89   S    
C42   C67   A    
C22   C24   S    
C91   H72   S    
C36   C44   D    
C34   N31   A    
N24   Ni1   S    
C71   N14   A    
C60   H38   S    
C16   N29   S    
C88   H64   S    
N26   N31   A    
C73   N16   A    
C92   N30   S    
C44   C45   S    
C88   N27   S    
N3    N11   A    
C73   H51   S    
C28   H6    S    
C40   H31   S    
C74   H52   S    
C63   H41   S    
C59   H37   S    
N6    Ni5   S    
C10   C15   S    
C18   C22   S    
C77   N20   A    
N20   N34   A    
N5    Ni6   S    
C91   H73   S    
N8    Ni7   S    
N1    Ni1   S    
C91   N29   S    
C16   C26   S    
C46   C56   S    
H71   N29   S    
C53   H27   S    
N12   Ni2   S    
C5    C19   S    
C32   H10   S    
C13   C17   S    
C80   N22   A    
C14   N27   S    
C79   N21   A    
N4    Ni3   S    
C71   H49   S    
C45   C75   A    
C17   C25   S    
C26   H4    S    
C19   C24   S    
C33   C87   S    
C5    C71   A    
N25   Ni4   S    
C72   H50   S    
C58   H36   S    
N19   Ni5   S    
C81   N24   A    
C7    C21   S    
H62   N27   S    
C78   C79   A    
N18   N32   A    
C83   H61   S    
C12   N12   A    
C10   C18   S    
C49   C53   D    
N32   Ni5   S    
N35   Ni8   S    
N16   Ni3   S    
C5    C62   A    
C42   N34   A    
C50   H24   S    
C34   C87   A    
C41   N33   A    
C17   N30   S    
N31   Ni4   S    
C58   C89   A    
C22   H80   S    
C7    C64   A    
C52   C57   D    
C61   H39   S    
C72   N15   A    
C23   H23   S    
C39   H17   S    
C1    H1    S    
C49   C50   S    
C44   H18   S    
N14   Ni1   S    
C23   N23   A    
N1    N22   A    
C76   N19   A    
C60   N3    A    
C39   C48   D    
N9    Ni5   S    
C92   H79   S    
C37   C46   D    
N20   Ni8   S    
C82   H60   S    
C10   H56   S    
C48   H21   S    
N23   N25   A    
C52   H26   S    
