data_mof_unit_32647.cif
_audit_creation_date              2012-12-10T16:42:33-0500
_audit_creation_method            fapswitch 2.2
_symmetry_space_group_name_H-M    P1
_symmetry_Int_Tables_number       1
_space_group_crystal_system       triclinic
_cell_length_a                    7.623547
_cell_length_b                    8.71673
_cell_length_c                    11.026906
_cell_angle_alpha                 86.41629
_cell_angle_beta                  72.137944
_cell_angle_gamma                 103.717615
_cell_volume                      670.263133636

loop_
_atom_site_label
_atom_site_type_symbol
_atom_type_description
_atom_site_fract_x
_atom_site_fract_y
_atom_site_fract_z
_atom_type_partial_charge
C1    C     C_R   0.451328 0.199726 0.504306 0.852078
C2    C     C_R   0.548672 0.800274 0.495694 0.852079
C3    C     C_R   0.422577 0.491940 0.742425 0.833756
C4    C     C_R   0.577422 0.508060 0.257575 0.833757
C5    C     C_2   0.379916 0.488110 0.880727 -0.348419
C6    C     C_2   0.620084 0.511890 0.119273 -0.348421
C7    C     C_2   0.520367 0.501359 0.931139 -0.154142
C8    C     C_2   0.479633 0.498641 0.068861 -0.154142
C9    C     C_2   0.425549 0.030696 0.506420 -0.359311
C10   C     C_2   0.574451 0.969304 0.493579 -0.359313
Cu1   Cu    Cu3+1 0.688910 0.517800 0.485820 0.959739
Cu2   Cu    Cu3+1 0.311090 0.482200 0.514180 0.959740
H1    H     H_    0.332741 0.485465 0.129348 0.199160
H2    H     H_    0.667259 0.514535 0.870652 0.199160
H3    H     H_    0.766719 0.525153 0.058359 0.152962
H4    H     H_    0.233281 0.474847 0.941641 0.152962
H5    H     H_    0.283127 0.956519 0.518724 0.174776
H6    H     H_    0.716873 0.043481 0.481275 0.174775
N1    N     N_2   0.027170 0.455360 0.535550 0.026832
N2    N     N_2   0.972830 0.544640 0.464450 0.026831
O1    O     O_R   0.622710 0.286400 0.490790 -0.600140
O2    O     O_R   0.377290 0.713600 0.509210 -0.600140
O3    O     O_R   0.303660 0.256330 0.514730 -0.593823
O4    O     O_R   0.696340 0.743670 0.485270 -0.593824
O5    O     O_R   0.600900 0.509520 0.671740 -0.601096
O6    O     O_R   0.399100 0.490480 0.328260 -0.601096
O7    O     O_R   0.281840 0.479450 0.695690 -0.575990
O8    O     O_R   0.718160 0.520550 0.304310 -0.575990
N3    N     N_2   0.888597 0.358380 0.643383 -0.312592
H7    H     H_    0.754247 0.328032 0.640232 0.295649
C11   C     C_3   0.928206 0.213726 0.685238 -0.592248
H8    H     H_    0.803013 0.142449 0.767425 0.172169
H9    H     H_    0.050272 0.238762 0.721214 0.255479
H10   H     H_    0.950747 0.139620 0.606395 0.215161
N4    N     N_2   0.111403 0.641622 0.356617 -0.312594
H11   H     H_    0.245754 0.671968 0.359768 0.295649
C12   C     C_3   0.071792 0.786276 0.314765 -0.592238
H12   H     H_    0.196994 0.857564 0.232587 0.172164
H13   H     H_    0.049229 0.860372 0.393614 0.215169
H14   H     H_    0.949737 0.761239 0.278776 0.255472

loop_
_geom_bond_atom_site_label_1
_geom_bond_atom_site_label_2
_ccdc_geom_bond_type
C2    O2    A    
C4    O6    A    
Cu1   Cu2   S    
C11   H9    S    
C1    O1    A    
C12   H12   S    
C9    C10   D    
N4    H11   S    
N3    C11   S    
C3    O7    A    
C11   H10   S    
C7    C8    S    
C12   H13   S    
C11   H8    S    
Cu2   O3    S    
N3    H7    S    
Cu1   O8    S    
C10   H6    S    
Cu2   N1    S    
C9    H5    S    
N4    C12   S    
C1    O3    A    
C12   H14   S    
C2    O4    A    
Cu1   N2    S    
Cu1   O5    S    
Cu2   O7    S    
N1    N3    S    
C8    H1    S    
Cu2   O2    S    
Cu1   O4    S    
C3    O5    A    
C1    C9    S    
C4    C6    S    
C5    C7    D    
C5    H4    S    
C6    C8    D    
C4    O8    A    
C6    H3    S    
N2    N4    S    
Cu1   O1    S    
C7    H2    S    
N1    N2    D    
Cu2   O6    S    
C3    C5    S    
C2    C10   S    
