data_mof_unit_57676.cif
_audit_creation_date              2012-12-11T14:23:09-0500
_audit_creation_method            fapswitch 2.2
_symmetry_space_group_name_H-M    P1
_symmetry_Int_Tables_number       1
_space_group_crystal_system       triclinic
_cell_length_a                    11.073827
_cell_length_b                    11.199363
_cell_length_c                    18.691544
_cell_angle_alpha                 90.576195
_cell_angle_beta                  89.327085
_cell_angle_gamma                 60.387461
_cell_volume                      2014.87006103

loop_
_atom_site_label
_atom_site_type_symbol
_atom_type_description
_atom_site_fract_x
_atom_site_fract_y
_atom_site_fract_z
_atom_type_partial_charge
C1    C     C_R   0.234676 0.646185 0.608985 0.527369
C2    C     C_R   0.592758 0.107352 0.698762 -0.148692
C3    C     C_R   0.597485 0.110108 0.772080 0.009023
C4    C     C_R   0.651377 0.618565 0.602267 0.540166
C5    C     C_R   0.959868 0.052460 0.793866 -0.165011
C6    C     C_R   0.061398 0.055549 0.749680 -0.130943
C7    C     C_R   0.049827 0.057755 0.674999 0.060541
C8    C     C_R   0.930151 0.069063 0.645333 -0.082058
C9    C     C_R   0.689816 0.122702 0.658791 0.011254
C10   C     C_R   0.183597 0.656121 0.835271 0.043465
C11   C     C_R   0.171819 0.552177 0.795597 0.051359
C12   C     C_3   0.676652 0.546688 0.807464 -0.105577
C13   C     C_R   0.171877 0.555755 0.719569 0.035809
C14   C     C_R   0.219303 0.744550 0.726695 -0.172571
C15   C     C_R   0.218897 0.742413 0.799833 -0.121945
C16   C     C_R   0.633904 0.216118 0.597051 0.572378
C17   C     C_R   0.158669 0.445460 0.828945 -0.033904
C18   C     C_R   0.144249 0.348041 0.789151 -0.139513
C19   C     C_R   0.144626 0.352669 0.715439 -0.104093
C20   C     C_R   0.151678 0.457927 0.680990 -0.092450
C21   C     C_R   0.194126 0.655826 0.685011 -0.001579
C22   C     C_R   0.697733 0.699616 0.181471 -0.012210
C23   C     C_3   0.692967 0.674878 0.814999 0.048505
C24   C     C_R   0.794157 0.581524 0.218264 0.022911
C25   C     C_R   0.743393 0.532068 0.271152 0.046069
C26   C     C_R   0.534917 0.750238 0.280468 -0.135584
C27   C     C_R   0.565059 0.781484 0.212476 -0.141679
C28   C     C_R   0.223749 0.647650 0.400818 0.591265
C29   C     C_R   0.930682 0.494612 0.194224 -0.057485
C30   C     C_R   0.984192 0.354066 0.195148 -0.094155
C31   C     C_R   0.912634 0.302875 0.233102 -0.141124
C32   C     C_R   0.799374 0.390524 0.276512 -0.083349
C33   C     C_R   0.628650 0.624648 0.311355 -0.000747
C34   C     C_3   0.665983 0.641012 0.679202 0.022151
C35   C     C_R   0.688899 0.061179 0.190979 -0.007369
C36   C     C_R   0.578027 0.072006 0.235813 0.022154
C37   C     C_R   0.595823 0.066156 0.310819 0.044025
C38   C     C_R   0.787605 0.103706 0.296251 -0.135359
C39   C     C_R   0.801190 0.060777 0.225150 -0.153783
C40   C     C_R   0.617536 0.592100 0.385877 0.543534
C41   C     C_R   0.444078 0.107599 0.212794 -0.071771
C42   C     C_R   0.338452 0.138280 0.263830 -0.116713
C43   C     C_R   0.370505 0.095705 0.333844 -0.117673
C44   C     C_R   0.504817 0.046975 0.355911 -0.067019
C45   C     C_3   0.795348 0.655857 0.689480 -0.241463
C46   C     C_R   0.678319 0.117099 0.338626 0.041558
C47   C     C_R   0.171008 0.667901 0.179613 0.037164
C48   C     C_R   0.178090 0.770049 0.219994 -0.023228
C49   C     C_R   0.140651 0.786511 0.292698 0.030879
C50   C     C_R   0.193979 0.547061 0.288566 -0.134845
C51   C     C_R   0.195044 0.549440 0.213723 0.171386
C52   C     C_R   0.623741 0.217570 0.399386 0.537039
C53   C     C_R   0.218116 0.857731 0.188295 -0.084909
C54   C     C_R   0.192076 0.976515 0.222938 -0.163218
C55   C     C_R   0.135792 0.005709 0.292326 -0.183800
C56   C     C_3   0.671733 0.517155 0.725394 0.002713
C57   C     C_R   0.103599 0.914934 0.327091 0.057708
C58   C     C_R   0.165511 0.666438 0.329066 -0.000480
C59   C     C_R   0.725293 0.051370 0.887475 0.545847
C60   C     C_R   0.724252 0.689476 0.889029 0.599176
C61   C     C_R   0.118950 0.703967 0.906321 0.559590
C62   C     C_R   0.699592 0.043340 0.111581 0.549826
C63   C     C_R   0.728104 0.715030 0.106156 0.525043
C64   C     C_3   0.561730 0.802390 0.786392 -0.228523
C65   C     C_R   0.099002 0.707783 0.110665 0.566677
C66   C     C_3   0.542786 0.778881 0.707432 -0.257711
C67   C     C_R   0.720747 0.082427 0.808501 0.002933
C68   C     C_3   0.819356 0.658268 0.769559 -0.261755
C69   C     C_2   0.800245 0.379263 0.711914 0.254467
C70   C     C_2   0.460302 0.172208 0.806816 0.296494
C71   C     C_2   0.161688 0.047091 0.626654 0.232244
C72   C     C_2   0.025375 0.961754 0.396892 0.248006
C73   C     C_2   0.563459 0.546962 0.855201 0.238804
C74   C     C_2   0.549183 0.496926 0.707034 0.207522
C75   C     C_R   0.835896 0.066805 0.765101 -0.023218
C76   C     C_R   0.819469 0.083954 0.689132 0.004037
Cl1   Cl    Cl    0.258725 0.399592 0.161608 -0.676557
Cr1   Cr    Cr6+3 0.392940 0.397950 0.502230 1.020580
Cr2   Cr    Cr6+3 0.398400 0.708500 0.501260 1.015967
Cr3   Cr    Cr6+3 0.708640 0.393530 0.496460 1.025793
Cr4   Cr    Cr6+3 0.937880 0.938320 0.007620 1.010227
Cr5   Cr    Cr6+3 0.625560 0.937220 0.994510 1.042303
Cr6   Cr    Cr6+3 0.938080 0.625010 0.001190 1.026172
H1    H     H_    0.576440 0.892602 0.790976 0.110956
H2    H     H_    0.172743 0.425321 0.885378 0.187802
H3    H     H_    0.235593 0.817164 0.828726 0.157674
H4    H     H_    0.136465 0.266706 0.815796 0.108490
H5    H     H_    0.136353 0.276127 0.684469 0.210062
H6    H     H_    0.134143 0.463287 0.624247 0.144953
H7    H     H_    0.437757 0.820027 0.307274 0.161684
H8    H     H_    0.983135 0.533804 0.163414 0.197950
H9    H     H_    0.485487 0.866625 0.183970 0.136201
H10   H     H_    0.074141 0.286975 0.162440 0.146968
H11   H     H_    0.943952 0.197463 0.227111 0.119380
H12   H     H_    0.909619 0.560265 0.782929 0.164759
H13   H     H_    0.445904 0.776912 0.701900 0.153529
H14   H     H_    0.744702 0.352768 0.308169 0.134824
H15   H     H_    0.857088 0.134780 0.317255 0.111748
H16   H     H_    0.414273 0.124919 0.157835 0.200413
H17   H     H_    0.893140 0.041529 0.195171 0.158890
H18   H     H_    0.231480 0.195560 0.249800 0.140169
H19   H     H_    0.290638 0.109734 0.372286 0.105036
H20   H     H_    0.527518 0.023681 0.411954 0.138872
H21   H     H_    0.225556 0.450082 0.314349 0.174622
H22   H     H_    0.263874 0.837627 0.134869 0.159115
H23   H     H_    0.887549 0.573096 0.661723 0.185940
H24   H     H_    0.533790 0.866203 0.675521 0.173755
H25   H     H_    0.207354 0.048066 0.191930 0.107666
H26   H     H_    0.109087 0.103074 0.317598 0.091039
H27   H     H_    0.843485 0.741702 0.782050 0.104884
H28   H     H_    0.780080 0.752937 0.665479 0.111247
H29   H     H_    0.772512 0.461736 0.831091 0.086284
H30   H     H_    0.812770 0.298395 0.746078 0.134950
H31   H     H_    0.390011 0.133773 0.794949 0.077022
H32   H     H_    0.147103 0.054111 0.569198 0.104722
H33   H     H_    0.020821 0.048386 0.425954 0.075762
H34   H     H_    0.496144 0.126141 0.674828 0.158770
H35   H     H_    0.557891 0.453369 0.859863 0.198140
H36   H     H_    0.477425 0.558475 0.666832 0.136545
H37   H     H_    0.978652 0.046781 0.850195 0.171448
H38   H     H_    0.152964 0.048771 0.773804 0.126212
H39   H     H_    0.922431 0.069086 0.587595 0.119817
H40   H     H_    0.243764 0.815487 0.702238 0.163527
H41   H     H_    0.465901 0.827865 0.817538 0.176647
O1    O     O_R   0.507340 0.255690 0.581430 -0.510154
O2    O     O_R   0.837290 0.593240 0.915240 -0.531582
O3    O     O_R   0.065320 0.635310 0.931580 -0.525007
O4    O     O_R   0.280360 0.527380 0.578910 -0.502597
O5    O     O_R   0.068470 0.828620 0.091850 -0.545360
O6    O     O_R   0.799150 0.057200 0.079350 -0.483327
O7    O     O_R   0.585220 0.080180 0.076770 -0.490241
O8    O     O_R   0.627170 0.809480 0.067050 -0.506381
O9    O     O_R   0.816200 0.596410 0.076500 -0.495739
O10   O     O_R   0.045770 0.638240 0.081070 -0.492305
O11   O     O_3   0.833840 0.833520 0.001110 -0.332663
O12   O     O_R   0.524510 0.695820 0.424050 -0.505982
O13   O     O_R   0.260600 0.739610 0.584580 -0.526446
O14   O     O_R   0.532370 0.695050 0.573830 -0.510865
O15   O     O_R   0.744850 0.503430 0.576380 -0.453891
O16   O     O_R   0.699080 0.276500 0.571950 -0.493052
O17   O     O_R   0.498860 0.256520 0.419860 -0.524452
O18   O     O_R   0.272490 0.528150 0.429140 -0.512448
O19   O     O_R   0.252110 0.740440 0.423010 -0.514119
O20   O     O_2   0.893121 0.358150 0.669675 -0.542692
O21   O     O_2   0.425543 0.269504 0.847888 -0.466623
O22   O     O_2   0.271688 0.029120 0.650073 -0.591822
O23   O     O_R   0.736370 0.504260 0.414810 -0.511166
O24   O     O_2   0.961666 0.907461 0.421001 -0.522309
O25   O     O_2   0.484330 0.646060 0.892283 -0.518082
O26   O     O_2   0.532325 0.407872 0.734675 -0.528151
O27   O     O_R   0.691220 0.277270 0.422180 -0.538138
O28   O     O_3   0.499990 0.499990 0.499980 -0.289948
O29   O     O_R   0.089570 0.825450 0.930590 -0.525349
O30   O     O_R   0.818700 0.054260 0.929860 -0.504714
O31   O     O_R   0.606310 0.077010 0.915520 -0.457163
O32   O     O_R   0.646730 0.806540 0.917560 -0.503772

loop_
_geom_bond_atom_site_label_1
_geom_bond_atom_site_label_2
_ccdc_geom_bond_type
Cr3   O27   S    
C34   C56   S    
C38   C46   A    
C41   C42   A    
C62   O6    A    
C19   C20   A    
C1    O4    A    
C12   H29   S    
C66   H24   S    
C38   H15   S    
Cr1   O4    S    
C34   C66   S    
C51   Cl1   S    
Cr4   O6    S    
Cr1   O28   S    
C7    C8    A    
C53   C54   A    
C70   H31   S    
C69   O20   D    
C1    C21   S    
Cr2   O12   S    
C40   O12   A    
C12   C23   S    
C69   H30   S    
C26   C27   A    
C17   H2    S    
C63   O9    A    
C14   C21   A    
C36   C37   A    
C9    C16   S    
C30   H10   S    
C10   C15   A    
Cr1   O18   S    
C7    C71   S    
C30   C31   A    
C46   C52   S    
C8    C76   A    
C49   C57   A    
C32   H14   S    
C18   C19   A    
Cr5   O11   S    
Cr4   O29   S    
C24   C29   A    
C64   H1    S    
Cr6   O10   S    
C59   C67   S    
C22   C63   S    
C44   H20   S    
Cr3   O23   S    
Cr2   O19   S    
C35   C36   A    
C41   H16   S    
C14   H40   S    
C9    C76   A    
C16   O1    A    
Cr6   O11   S    
C65   O10   A    
C40   O23   A    
Cr5   O32   S    
C25   C32   A    
C12   C73   S    
C55   H26   S    
C23   C60   S    
C36   C41   A    
C16   O16   A    
C72   O24   D    
C2    H34   S    
Cr4   O11   S    
C48   C53   A    
C4    C34   S    
C33   C40   S    
C56   C74   S    
C5    H37   S    
C71   H32   S    
C50   C58   A    
C47   C48   A    
C3    C70   S    
C38   C39   A    
C24   C25   A    
C19   H5    S    
Cr1   O17   S    
C70   O21   D    
C59   O31   A    
C47   C51   A    
C50   C51   A    
Cr3   O16   S    
Cr4   O30   S    
C61   O29   A    
C64   C66   S    
C23   C68   S    
C5    C75   A    
C35   C39   A    
C75   C76   A    
C60   O32   A    
C29   C30   A    
C74   H36   S    
C26   C33   A    
Cr4   O5    S    
C31   C32   A    
C71   O22   D    
C45   C68   S    
C17   C18   A    
C13   C21   A    
C27   H9    S    
C61   O3    A    
C34   C45   S    
C68   H27   S    
C63   O8    A    
C59   O30   A    
C68   H12   S    
C12   C56   S    
C15   H3    S    
Cr5   O31   S    
C23   C64   S    
Cr2   O13   S    
C22   C27   A    
C55   C57   A    
C43   C44   A    
C22   C24   A    
C10   C61   S    
C28   O18   A    
C42   C43   A    
Cr6   O2    S    
Cr5   O8    S    
C31   H11   S    
C42   H18   S    
C29   H8    S    
C1    O13   A    
C45   H23   S    
C66   H13   S    
Cr3   O28   S    
C54   C55   A    
C48   C49   A    
C73   H35   S    
C13   C20   A    
C73   O25   D    
Cr1   O1    S    
C62   O7    A    
C3    C67   A    
C52   O17   A    
Cr6   O3    S    
C11   C17   A    
C65   O5    A    
C45   H28   S    
C6    C7    A    
C28   C58   S    
C26   H7    S    
Cr3   O15   S    
C20   H6    S    
C72   H33   S    
C18   H4    S    
C54   H25   S    
C37   C44   A    
C60   O2    A    
C2    C3    A    
C37   C46   A    
C43   H19   S    
C64   H41   S    
C4    O15   A    
C11   C13   A    
C8    H39   S    
C39   H17   S    
C5    C6    A    
C28   O19   A    
C52   O27   A    
C35   C62   S    
C57   C72   S    
Cr6   O9    S    
C10   C11   A    
C49   C58   A    
C4    O14   A    
C53   H22   S    
Cr2   O14   S    
C67   C75   A    
C56   C69   S    
C14   C15   A    
C74   O26   D    
C6    H38   S    
Cr5   O7    S    
C2    C9    A    
C47   C65   S    
C50   H21   S    
C25   C33   A    
Cr2   O28   S    
