data_mof_unit_59755.cif
_audit_creation_date              2012-12-11T16:53:38-0500
_audit_creation_method            fapswitch 2.2
_symmetry_space_group_name_H-M    P1
_symmetry_Int_Tables_number       1
_space_group_crystal_system       triclinic
_cell_length_a                    14.845509
_cell_length_b                    14.791204
_cell_length_c                    16.984812
_cell_angle_alpha                 108.945799
_cell_angle_beta                  106.235849
_cell_angle_gamma                 108.255743
_cell_volume                      3033.15916522

loop_
_atom_site_label
_atom_site_type_symbol
_atom_type_description
_atom_site_fract_x
_atom_site_fract_y
_atom_site_fract_z
_atom_type_partial_charge
C1    C     C_R   0.087451 0.285618 0.076042 -0.142001
C2    C     C_R   0.063887 0.544505 0.265018 -0.173441
C3    C     C_R   0.278714 0.786504 0.176912 -0.138907
C4    C     C_R   0.935798 0.522730 0.748347 -0.140160
C5    C     C_R   0.697105 0.407187 0.995827 -0.135129
C6    C     C_R   0.334999 0.784016 0.255779 0.065800
C7    C     C_R   0.638878 0.440815 0.943754 0.076845
C8    C     C_R   0.971221 0.520699 0.276127 0.024106
C9    C     C_R   0.995248 0.822439 0.985402 0.055763
C10   C     C_R   0.388714 0.457426 0.868013 0.166533
C11   C     C_R   0.342255 0.411015 0.915511 0.033828
C12   C     C_R   0.027475 0.585757 0.748595 0.073656
C13   C     C_R   0.371963 0.337239 0.936342 -0.199433
C14   C     C_R   0.464222 0.334223 0.933263 -0.203298
C15   C     C_R   0.525799 0.404803 0.908987 0.031517
C16   C     C_R   0.776600 0.201165 0.812445 -0.134044
C17   C     C_R   0.479197 0.453772 0.864408 0.162119
C18   C     C_3   0.523206 0.563743 0.872116 -0.522679
C19   C     C_3   0.424923 0.568471 0.876713 -0.526474
C20   C     C_R   0.965674 0.567484 0.364383 0.123781
C21   C     C_R   0.037936 0.628157 0.683281 0.129332
C22   C     C_R   0.144744 0.683005 0.607697 -0.227538
C23   C     C_R   0.760042 0.195493 0.725785 0.061026
C24   C     C_R   0.137000 0.673719 0.684218 -0.176509
C25   C     C_R   0.948321 0.608926 0.611538 -0.285858
C26   C     C_R   0.955158 0.613871 0.532908 0.191438
C27   C     C_R   0.053462 0.644450 0.529466 0.189375
C28   C     C_R   0.250993 0.527481 0.942912 -0.146172
C29   C     C_R   0.058145 0.622951 0.445636 -0.273427
C30   C     C_R   0.870116 0.554882 0.369860 -0.180288
C31   C     C_R   0.864533 0.576823 0.454087 -0.233150
C32   C     C_R   0.718794 0.099414 0.639099 0.131150
C33   C     C_R   0.443691 0.858270 0.322787 0.129432
C34   C     C_R   0.281661 0.453357 0.957461 0.071690
C35   C     C_R   0.589230 0.034247 0.395551 -0.225111
C36   C     C_R   0.496574 0.954090 0.320801 -0.175779
C37   C     C_R   0.491373 0.838699 0.395227 -0.281709
C38   C     C_R   0.580124 0.920588 0.472443 0.190530
C39   C     C_R   0.626793 0.020516 0.473981 0.187512
C40   C     C_R   0.782574 0.297903 0.735220 -0.126068
C41   C     C_R   0.700453 0.108338 0.556891 -0.278505
C42   C     C_R   0.682468 0.997767 0.635689 -0.171242
C43   C     C_R   0.614674 0.908068 0.552010 -0.227516
C44   C     C_R   0.088460 0.115841 0.141771 0.165255
C45   C     C_R   0.273435 0.689958 0.253233 -0.136834
C46   C     C_R   0.997558 0.113717 0.086386 0.013826
C47   C     C_R   0.901942 0.035306 0.072730 -0.206466
C48   C     C_R   0.901461 0.967113 0.115573 -0.189636
C49   C     C_R   0.995787 0.974427 0.172551 0.016355
C50   C     C_R   0.087094 0.049907 0.182170 0.180217
C51   C     C_3   0.202878 0.096561 0.229778 -0.490607
C52   C     C_R   0.250691 0.434525 0.023240 -0.122579
C53   C     C_3   0.205419 0.171965 0.184805 -0.540971
C54   C     C_R   0.108579 0.607400 0.826338 -0.153491
C55   C     C_R   0.914779 0.201350 0.999731 -0.140785
C56   C     C_R   0.705122 0.502926 0.919385 -0.147016
C57   C     C_R   0.000602 0.191737 0.048668 0.073302
C58   C     C_3   0.789481 0.355068 0.168629 -0.473540
C59   C     C_3   0.808451 0.296709 0.227083 -0.222285
C60   C     C_3   0.707677 0.200375 0.199620 -0.943245
C61   C     C_R   0.889681 0.445229 0.189182 0.153238
C62   C     C_R   0.082873 0.807114 0.020987 -0.122193
C63   C     C_R   0.909927 0.722376 0.944068 -0.120150
H1    H     H_    0.164878 0.314075 0.127886 0.096187
H2    H     H_    0.594207 0.622158 0.937204 0.201792
H3    H     H_    0.856824 0.502837 0.704722 0.084967
H4    H     H_    0.529884 0.563371 0.808441 0.189123
H5    H     H_    0.441239 0.629648 0.944648 0.200807
H6    H     H_    0.375420 0.571724 0.815994 0.191200
H7    H     H_    0.133907 0.639976 0.444663 0.116882
H8    H     H_    0.798989 0.523052 0.309357 0.129644
H9    H     H_    0.220968 0.709584 0.606452 0.125955
H10   H     H_    0.788861 0.557440 0.456291 0.129228
H11   H     H_    0.208185 0.693028 0.739779 0.113569
H12   H     H_    0.683091 0.526795 0.866084 0.099422
H13   H     H_    0.872020 0.578803 0.611870 0.117007
H14   H     H_    0.732683 0.185122 0.557486 0.118800
H15   H     H_    0.766904 0.136752 0.830995 0.093833
H16   H     H_    0.699286 0.987677 0.697588 0.115009
H17   H     H_    0.625407 0.110209 0.395413 0.128785
H18   H     H_    0.581099 0.831130 0.551239 0.124292
H19   H     H_    0.463625 0.970451 0.264713 0.115967
H20   H     H_    0.454541 0.764189 0.396945 0.114768
H21   H     H_    0.827378 0.027038 0.030629 0.127587
H22   H     H_    0.827633 0.908980 0.104872 0.134927
H23   H     H_    0.163626 0.866119 0.052426 0.090451
H24   H     H_    0.232339 0.137936 0.305765 0.195382
H25   H     H_    0.233427 0.039099 0.203547 0.188778
H26   H     H_    0.237004 0.256555 0.235639 0.192369
H27   H     H_    0.256957 0.556806 0.893523 0.111779
H28   H     H_    0.238118 0.158556 0.132982 0.195100
H29   H     H_    0.778401 0.324644 0.682967 0.094676
H30   H     H_    0.261325 0.380427 0.050766 0.092679
H31   H     H_    0.188594 0.667511 0.856233 0.085735
H32   H     H_    0.833740 0.152432 0.981418 0.085551
H33   H     H_    0.296894 0.653202 0.295491 0.084403
H34   H     H_    0.829559 0.702434 0.904027 0.093198
H35   H     H_    0.647228 0.226117 0.209380 0.261869
H36   H     H_    0.677432 0.142294 0.126553 0.258337
H37   H     H_    0.723575 0.160236 0.243260 0.253372
H38   H     H_    0.867788 0.268820 0.217402 0.201679
H39   H     H_    0.838478 0.350636 0.301094 0.207342
H40   H     H_    0.730081 0.383358 0.176046 0.180941
H41   H     H_    0.757908 0.294924 0.096160 0.190017
H42   H     H_    0.142829 0.597389 0.316325 0.110211
H43   H     H_    0.307850 0.840051 0.149544 0.083948
H44   H     H_    0.664850 0.343012 0.011468 0.084995
H45   H     H_    0.333113 0.292909 0.966474 0.127064
H46   H     H_    0.492652 0.287293 0.961053 0.126104
N1    N     N_R   0.055640 0.348550 0.045600 -0.037700
N2    N     N_R   0.811290 0.303400 0.871650 -0.040048
N3    N     N_R   0.205180 0.552990 0.997660 -0.040319
N4    N     N_R   0.814810 0.361830 0.823710 -0.040297
N5    N     N_R   0.201660 0.494570 0.045600 -0.039507
N6    N     N_R   0.068420 0.560530 0.871650 -0.036219
N7    N     N_R   0.948050 0.295860 0.997660 -0.038967
N8    N     N_R   0.185190 0.638170 0.176290 -0.037215
N9    N     N_R   0.798340 0.505430 0.954400 -0.038631
N10   N     N_R   0.931580 0.439470 0.128350 -0.059346
N11   N     N_R   0.051950 0.704140 0.002340 -0.039730
N12   N     N_R   0.944360 0.651450 0.954400 -0.040388
N13   N     N_R   0.039170 0.492150 0.176290 -0.048301
N14   N     N_R   0.188710 0.696600 0.128350 -0.037301
N15   N     N_R   0.794820 0.447010 0.002340 -0.042623
N16   N     N_R   0.960830 0.507850 0.823710 -0.036912
Ni1   Ni    Ni4+2 0.119330 0.493420 0.109950 0.206593
Ni2   Ni    Ni4+2 0.880670 0.506580 0.890050 0.207044
Ni3   Ni    Ni4+2 0.872590 0.372590 0.000000 0.201783
Ni4   Ni    Ni4+2 0.127410 0.627410 0.000000 0.208963

loop_
_geom_bond_atom_site_label_1
_geom_bond_atom_site_label_2
_ccdc_geom_bond_type
C14   H46   S    
C59   C60   S    
C6    C45   A    
C61   N10   A    
C35   C36   A    
C60   H36   S    
N3    N5    A    
C30   H8    S    
C39   C41   A    
C20   C30   A    
C28   N3    A    
C18   H2    S    
C62   H23   S    
C5    N15   A    
C26   C27   A    
C8    C20   S    
C4    N16   A    
N12   Ni2   S    
C60   H35   S    
C41   H14   S    
C30   C31   A    
N5    Ni1   S    
C31   H10   S    
C27   C29   A    
C55   N7    A    
C10   C17   A    
C44   C50   A    
C23   C40   A    
C35   H17   S    
C33   C36   A    
C18   C19   S    
C44   C53   S    
C47   C48   A    
C36   H19   S    
C53   H28   S    
C32   C41   A    
N3    Ni4   S    
C4    C12   A    
N8    Ni1   S    
C62   N11   A    
C8    C61   A    
N15   Ni3   S    
N10   Ni3   S    
C3    C6    A    
C58   C61   S    
C7    C15   S    
C28   C34   A    
C26   C31   A    
C56   H12   S    
C13   C14   A    
N14   Ni4   S    
C3    N14   A    
C7    C56   A    
C13   H45   S    
C22   H9    S    
C63   N12   A    
C44   C46   A    
C50   C51   S    
C20   C29   A    
C2    N13   A    
C3    H43   S    
N11   Ni4   S    
C59   H38   S    
C52   H30   S    
C55   H32   S    
C51   H24   S    
C5    C7    A    
C58   C59   S    
C12   C21   S    
C33   C37   A    
C9    C62   A    
C51   C53   S    
N13   Ni1   S    
C35   C39   A    
C37   C38   A    
C1    C57   A    
C1    N1    A    
C40   N4    A    
C14   C15   A    
C10   C19   S    
C54   N6    A    
C17   C18   S    
C19   H5    S    
N2    N4    A    
C25   C26   A    
N9    N15   A    
C47   H21   S    
C40   H29   S    
C5    H44   S    
N1    Ni1   S    
C48   C49   A    
C16   C23   A    
C22   C27   A    
C55   C57   A    
C46   C57   S    
C53   H26   S    
C43   H18   S    
C22   C24   A    
C19   H6    S    
C58   H41   S    
N9    Ni2   S    
N7    Ni3   S    
C1    H1    S    
N1    N7    A    
N11   N12   A    
C29   H7    S    
N6    Ni4   S    
N10   N13   A    
C45   N8    A    
C15   C17   A    
C21   C25   A    
C46   C47   A    
C9    C63   A    
C59   H39   S    
C56   N9    A    
C11   C34   S    
C2    C8    A    
C60   H37   S    
C51   H25   S    
N4    Ni2   S    
C52   N5    A    
C2    H42   S    
C34   C52   A    
N6    N16   A    
C6    C33   S    
C25   H13   S    
C23   C32   S    
C18   H4    S    
C38   C43   A    
C63   H34   S    
C4    H3    S    
C11   C13   A    
C24   H11   S    
C38   C39   A    
C16   H15   S    
N8    N14   A    
C54   H31   S    
C10   C11   A    
C42   H16   S    
C49   C50   A    
C42   C43   A    
C21   C24   A    
N2    Ni3   S    
N16   Ni2   S    
C32   C42   A    
C48   H22   S    
C37   H20   S    
C28   H27   S    
C58   H40   S    
C45   H33   S    
C12   C54   A    
C16   N2    A    
