data_mof_unit_61412.cif
_audit_creation_date              2012-12-10T17:01:07-0500
_audit_creation_method            fapswitch 2.2
_symmetry_space_group_name_H-M    P1
_symmetry_Int_Tables_number       1
_space_group_crystal_system       triclinic
_cell_length_a                    21.964875
_cell_length_b                    21.941503
_cell_length_c                    30.265334
_cell_angle_alpha                 89.456106
_cell_angle_beta                  90.17922
_cell_angle_gamma                 90.320871
_cell_volume                      14585.1919514

loop_
_atom_site_label
_atom_site_type_symbol
_atom_type_description
_atom_site_fract_x
_atom_site_fract_y
_atom_site_fract_z
_atom_type_partial_charge
C1    C     C_R   0.500873 0.118781 0.495240 0.792657
C2    C     C_R   0.119001 0.500175 0.499886 0.866831
C3    C     C_R   0.499896 0.881042 0.499707 0.875682
C4    C     C_R   0.880925 0.499935 0.499525 0.871265
C5    C     C_R   0.000167 0.618980 0.000017 0.872595
C6    C     C_R   0.618990 0.000121 0.999907 0.869645
C7    C     C_R   0.999892 0.381027 0.999851 0.868961
C8    C     C_R   0.381006 0.999882 0.999945 0.868813
C9    C     C_R   0.648530 0.274227 0.554497 0.326944
C10   C     C_R   0.277661 0.355559 0.564023 0.370727
C11   C     C_R   0.354824 0.719955 0.561700 0.366758
C12   C     C_R   0.723797 0.644578 0.562675 0.363407
C13   C     C_R   0.645862 0.722206 0.439851 0.356476
C14   C     C_R   0.280249 0.647238 0.439623 0.357143
C15   C     C_R   0.346024 0.282457 0.446801 0.357862
C16   C     C_R   0.712635 0.366706 0.428734 0.352223
C17   C     C_R   0.146896 0.779265 0.060420 0.356505
C18   C     C_R   0.778163 0.853886 0.061406 0.368812
C19   C     C_R   0.853498 0.219510 0.059736 0.366103
C20   C     C_R   0.222454 0.145012 0.060916 0.367560
C21   C     C_R   0.145916 0.222490 0.939478 0.359745
C22   C     C_R   0.779589 0.145898 0.937679 0.356678
C23   C     C_R   0.854278 0.778979 0.939105 0.358257
C24   C     C_R   0.219897 0.854965 0.938710 0.357037
C25   C     C_R   0.595246 0.305953 0.544547 0.582188
C26   C     C_R   0.312047 0.400941 0.542856 0.552513
C27   C     C_R   0.400068 0.686449 0.540659 0.551639
C28   C     C_R   0.688835 0.599470 0.542187 0.559872
C29   C     C_R   0.600014 0.687980 0.460463 0.555784
C30   C     C_R   0.313742 0.600557 0.459725 0.551985
C31   C     C_R   0.396077 0.314437 0.463558 0.544346
C32   C     C_R   0.684461 0.403259 0.459906 0.505112
C33   C     C_R   0.100386 0.813150 0.040529 0.553628
C34   C     C_R   0.812328 0.899890 0.040778 0.557141
C35   C     C_R   0.899513 0.186099 0.039497 0.552104
C36   C     C_R   0.188085 0.099470 0.040387 0.555259
C37   C     C_R   0.099894 0.188083 0.959746 0.556756
C38   C     C_R   0.813260 0.100014 0.958573 0.554308
C39   C     C_R   0.899889 0.812787 0.960070 0.555987
C40   C     C_R   0.186448 0.900330 0.959611 0.551895
C41   C     C_R   0.549619 0.280429 0.516293 -0.135571
C42   C     C_R   0.283202 0.452816 0.522858 -0.105473
C43   C     C_R   0.452218 0.716123 0.521836 -0.106201
C44   C     C_R   0.717169 0.547395 0.523152 -0.108693
C45   C     C_R   0.547356 0.716902 0.478256 -0.110698
C46   C     C_R   0.283952 0.548015 0.478211 -0.108865
C47   C     C_R   0.449776 0.283366 0.478112 -0.118068
C48   C     C_R   0.715540 0.453987 0.478610 -0.110303
C49   C     C_R   0.048002 0.783627 0.022031 -0.107828
C50   C     C_R   0.783313 0.952389 0.021952 -0.111061
C51   C     C_R   0.951972 0.215936 0.021250 -0.107319
C52   C     C_R   0.216886 0.047200 0.021895 -0.110843
C53   C     C_R   0.047481 0.216947 0.978035 -0.111442
C54   C     C_R   0.783711 0.047679 0.977535 -0.108206
C55   C     C_R   0.952405 0.783535 0.978489 -0.111073
C56   C     C_R   0.216112 0.952503 0.978118 -0.107779
C57   C     C_R   0.557390 0.219564 0.502003 -0.097961
C58   C     C_R   0.219431 0.458189 0.527234 -0.049871
C59   C     C_R   0.457739 0.779893 0.526676 -0.050650
C60   C     C_R   0.780958 0.541587 0.527258 -0.047568
C61   C     C_R   0.542166 0.780698 0.473231 -0.069000
C62   C     C_R   0.220074 0.543310 0.473555 -0.065464
C63   C     C_R   0.453847 0.219668 0.470365 -0.069118
C64   C     C_R   0.778617 0.460894 0.471161 -0.080892
C65   C     C_R   0.043270 0.719629 0.026431 -0.066447
C66   C     C_R   0.719600 0.957677 0.026711 -0.049095
C67   C     C_R   0.957199 0.279703 0.026135 -0.050241
C68   C     C_R   0.280632 0.041825 0.026638 -0.048580
C69   C     C_R   0.042409 0.280815 0.973345 -0.068217
C70   C     C_R   0.719852 0.042534 0.972822 -0.069862
C71   C     C_R   0.957912 0.719900 0.973356 -0.069764
C72   C     C_R   0.279878 0.957887 0.973170 -0.069817
C73   C     C_R   0.498345 0.313846 0.500472 0.010934
C74   C     C_R   0.315464 0.499990 0.500172 0.001646
C75   C     C_R   0.499524 0.684590 0.499783 -0.005797
C76   C     C_R   0.684506 0.500543 0.501266 -0.007180
C77   C     C_R   0.999977 0.815460 0.000474 -0.003134
C78   C     C_R   0.815427 0.000037 0.999790 -0.004204
C79   C     C_R   0.999675 0.184546 0.999574 -0.006321
C80   C     C_R   0.184573 0.999820 0.000100 -0.005398
C81   C     C_R   0.504978 0.186473 0.486854 0.005398
C82   C     C_R   0.186907 0.500538 0.500116 0.005004
C83   C     C_R   0.499804 0.813165 0.499754 -0.002705
C84   C     C_R   0.812930 0.500446 0.499324 0.003914
C85   C     C_R   0.000538 0.686890 0.999897 0.005611
C86   C     C_R   0.686868 0.000229 0.999857 0.001855
C87   C     C_R   0.999776 0.313126 0.999744 0.002413
C88   C     C_R   0.313124 0.999772 0.999940 0.001928
C89   C     C_R   0.381653 0.499698 0.500006 1.044399
C90   C     C_R   0.499593 0.618352 0.499883 1.037903
C91   C     C_R   0.618303 0.501303 0.500260 1.011067
C92   C     C_R   0.500278 0.381109 0.500327 1.026676
C93   C     C_R   0.881646 0.000027 0.999934 1.041604
C94   C     C_R   0.999874 0.118339 0.999844 1.039625
C95   C     C_R   0.118355 0.999953 0.000045 1.041032
C96   C     C_R   0.000007 0.881663 0.000174 1.039434
C97   C     C_R   0.500400 0.003080 0.585432 0.955782
C98   C     C_R   0.000220 0.499770 0.585630 1.022116
C99   C     C_R   0.499795 0.000181 0.414389 1.025305
C100  C     C_R   0.000950 0.500306 0.414372 1.032135
C101  C     C_R   0.000073 0.499659 0.085601 1.027518
C102  C     C_R   0.500166 0.999757 0.085619 1.023369
C103  C     C_R   0.999901 0.500264 0.914398 1.029758
C104  C     C_R   0.499583 0.000312 0.914332 1.032057
C105  C     C_R   0.529774 0.955490 0.842198 0.572788
C106  C     C_R   0.954661 0.467918 0.842507 0.573361
C107  C     C_R   0.469128 0.048140 0.842212 0.571944
C108  C     C_R   0.044628 0.533407 0.842312 0.571286
C109  C     C_R   0.468128 0.954082 0.157873 0.594164
C110  C     C_R   0.045121 0.466784 0.157763 0.592497
C111  C     C_R   0.532798 0.044695 0.157354 0.593291
C112  C     C_R   0.955804 0.532166 0.157401 0.570518
C113  C     C_R   0.033944 0.455619 0.342738 0.569804
C114  C     C_R   0.453905 0.968272 0.342507 0.568013
C115  C     C_R   0.971259 0.546910 0.341863 0.571461
C116  C     C_R   0.543880 0.033587 0.342240 0.583326
C117  C     C_R   0.968797 0.453793 0.657944 0.598703
C118  C     C_R   0.543973 0.969717 0.657584 0.581350
C119  C     C_R   0.032646 0.544989 0.657400 0.595897
C120  C     C_R   0.462271 0.044266 0.656549 0.502124
C121  C     C_R   0.499263 0.001210 0.865568 -0.211993
C122  C     C_R   0.999660 0.500621 0.865746 -0.213849
C123  C     C_R   0.500509 0.999342 0.134278 -0.211516
C124  C     C_R   0.000258 0.499406 0.134247 -0.215211
C125  C     C_R   0.002287 0.501096 0.365668 -0.207820
C126  C     C_R   0.499062 0.000808 0.365719 -0.233737
C127  C     C_R   0.000678 0.499378 0.634318 -0.210367
C128  C     C_R   0.502048 0.005723 0.633864 -0.267477
C129  C     C_R   0.466555 0.047401 0.795979 -0.042674
C130  C     C_R   0.041875 0.537223 0.796222 -0.043024
C131  C     C_R   0.533828 0.958892 0.796153 -0.045242
C132  C     C_R   0.957928 0.463484 0.796530 -0.042903
C133  C     C_R   0.536427 0.042168 0.203435 -0.027511
C134  C     C_R   0.959524 0.536828 0.203351 -0.041863
C135  C     C_R   0.463716 0.957291 0.203883 -0.026144
C136  C     C_R   0.042747 0.463195 0.203876 -0.027875
C137  C     C_R   0.966810 0.543741 0.295876 -0.044572
C138  C     C_R   0.541255 0.037340 0.296171 -0.046178
C139  C     C_R   0.037941 0.458361 0.296658 -0.045171
C140  C     C_R   0.457039 0.963942 0.296488 -0.047134
C141  C     C_R   0.036599 0.542299 0.703473 -0.026101
C142  C     C_R   0.463801 0.046158 0.702881 -0.009049
C143  C     C_R   0.964497 0.456918 0.703953 -0.028322
C144  C     C_R   0.540702 0.965838 0.703569 -0.024314
C145  C     C_R   0.500524 0.003756 0.772889 -0.025434
C146  C     C_R   0.000079 0.500147 0.773241 -0.018865
C147  C     C_R   0.499832 0.999950 0.226792 -0.027117
C148  C     C_R   0.001481 0.500298 0.226744 -0.022356
C149  C     C_R   0.002101 0.500816 0.273137 -0.015355
C150  C     C_R   0.499364 0.000411 0.273189 -0.028026
C151  C     C_R   0.000410 0.499767 0.726845 -0.027540
C152  C     C_R   0.501474 0.005106 0.726410 -0.022595
C153  C     C_R   0.430981 0.089623 0.772328 -0.104801
C154  C     C_R   0.080048 0.577276 0.772616 -0.108117
C155  C     C_R   0.570947 0.918526 0.772920 -0.106663
C156  C     C_R   0.920075 0.423064 0.773351 -0.110616
C157  C     C_R   0.575821 0.081035 0.226659 -0.078905
C158  C     C_R   0.922301 0.577356 0.226398 -0.104090
C159  C     C_R   0.423827 0.918918 0.227472 -0.073193
C160  C     C_R   0.080751 0.423347 0.227619 -0.074189
C161  C     C_R   0.927521 0.582344 0.272169 -0.117079
C162  C     C_R   0.579717 0.077151 0.272603 -0.089212
C163  C     C_R   0.076803 0.419421 0.273574 -0.106722
C164  C     C_R   0.418996 0.923727 0.273279 -0.105760
C165  C     C_R   0.075881 0.581315 0.726677 -0.073745
C166  C     C_R   0.428460 0.088028 0.726229 -0.097319
C167  C     C_R   0.924893 0.418275 0.727553 -0.072502
C168  C     C_R   0.575696 0.923133 0.727116 -0.076718
C169  C     C_R   0.617798 0.194907 0.504341 0.381242
C170  C     C_R   0.190842 0.421388 0.559938 0.319769
C171  C     C_R   0.421026 0.807578 0.559270 0.317657
C172  C     C_R   0.810051 0.577735 0.559695 0.322131
C173  C     C_R   0.579790 0.809219 0.441044 0.349495
C174  C     C_R   0.192108 0.581891 0.441683 0.349985
C175  C     C_R   0.407863 0.192572 0.443499 0.361145
C176  C     C_R   0.803045 0.429472 0.434413 0.358422
C177  C     C_R   0.081531 0.691130 0.058197 0.348962
C178  C     C_R   0.691330 0.920029 0.059088 0.323622
C179  C     C_R   0.919490 0.307276 0.058143 0.323162
C180  C     C_R   0.309177 0.078784 0.058895 0.324303
C181  C     C_R   0.080141 0.309607 0.941359 0.349826
C182  C     C_R   0.691773 0.080057 0.940335 0.349842
C183  C     C_R   0.920501 0.692097 0.940892 0.349365
C184  C     C_R   0.307578 0.921010 0.940755 0.349504
C185  C     C_R   0.660312 0.220011 0.533248 -0.349902
C186  C     C_R   0.216628 0.365953 0.572237 -0.300356
C187  C     C_R   0.365756 0.780740 0.571119 -0.316071
C188  C     C_R   0.784728 0.633349 0.571444 -0.317108
C189  C     C_R   0.635273 0.783045 0.429985 -0.259330
C190  C     C_R   0.219092 0.637547 0.430663 -0.254451
C191  C     C_R   0.351946 0.221135 0.437845 -0.254617
C192  C     C_R   0.772050 0.379642 0.416563 -0.270596
C193  C     C_R   0.137136 0.717884 0.069153 -0.253138
C194  C     C_R   0.717342 0.864306 0.070522 -0.317398
C195  C     C_R   0.863856 0.280421 0.069026 -0.314807
C196  C     C_R   0.283338 0.134337 0.070097 -0.315991
C197  C     C_R   0.135678 0.283580 0.930328 -0.256894
C198  C     C_R   0.718597 0.135493 0.928494 -0.254500
C199  C     C_R   0.865059 0.718435 0.929364 -0.259872
C200  C     C_R   0.280685 0.865754 0.929187 -0.254609
Cu1   Cu    Cu3+1 0.438180 0.000000 0.500000 1.204209
Cu2   Cu    Cu3+1 0.000000 0.561820 0.500000 1.208301
Cu3   Cu    Cu3+1 0.561820 0.000000 0.500000 1.221313
Cu4   Cu    Cu3+1 0.000000 0.438180 0.500000 1.208569
Cu5   Cu    Cu3+1 0.938180 0.500000 0.000000 1.206295
Cu6   Cu    Cu3+1 0.500000 0.061820 0.000000 1.205915
Cu7   Cu    Cu3+1 0.061820 0.500000 0.000000 1.204356
Cu8   Cu    Cu3+1 0.500000 0.938180 0.000000 1.206528
Cu9   Cu    Cu3+1 0.500000 0.500000 0.455560 1.240148
Cu10  Cu    Cu3+1 0.500000 0.500000 0.544440 1.265367
Cu11  Cu    Cu3+1 1.000000 0.000000 0.955560 1.250865
Cu12  Cu    Cu3+1 0.000000 0.000000 0.044440 1.248424
H1    H     H_    0.404087 0.123210 0.789412 0.213576
H2    H     H_    0.111937 0.606752 0.789645 0.213307
H3    H     H_    0.597473 0.884214 0.790143 0.215029
H4    H     H_    0.887946 0.393863 0.790649 0.213715
H5    H     H_    0.604884 0.113300 0.209336 0.213563
H6    H     H_    0.890353 0.606468 0.209017 0.214439
H7    H     H_    0.395084 0.886346 0.210489 0.214229
H8    H     H_    0.112288 0.393900 0.210686 0.214199
H9    H     H_    0.899377 0.615098 0.289047 0.214742
H10   H     H_    0.611713 0.106489 0.289654 0.219671
H11   H     H_    0.105363 0.387021 0.291017 0.213243
H12   H     H_    0.386711 0.894685 0.290562 0.214058
H13   H     H_    0.104660 0.613815 0.709334 0.213451
H14   H     H_    0.399613 0.120309 0.708922 0.211781
H15   H     H_    0.896306 0.385553 0.710585 0.218315
H16   H     H_    0.605631 0.892129 0.710116 0.217520
H17   H     H_    0.315919 0.198204 0.419834 0.246253
H18   H     H_    0.195356 0.668897 0.408885 0.247730
H19   H     H_    0.665800 0.807077 0.407751 0.248579
H20   H     H_    0.790880 0.356572 0.388230 0.244121
H21   H     H_    0.335836 0.804127 0.593625 0.236822
H22   H     H_    0.192469 0.336055 0.594908 0.238300
H23   H     H_    0.705095 0.199909 0.536181 0.246101
H24   H     H_    0.809249 0.662949 0.593814 0.240312
H25   H     H_    0.834749 0.694916 0.906882 0.248269
H26   H     H_    0.694901 0.166015 0.906082 0.247616
H27   H     H_    0.166338 0.307902 0.908357 0.247378
H28   H     H_    0.304099 0.835720 0.906794 0.247810
H29   H     H_    0.833096 0.303880 0.090891 0.237863
H30   H     H_    0.693364 0.833647 0.092757 0.238774
H31   H     H_    0.168270 0.693778 0.090832 0.246752
H32   H     H_    0.307515 0.164521 0.092250 0.238726
O1    O     O_R   0.447800 0.090110 0.500010 -0.570561
O2    O     O_R   0.090110 0.552200 0.500010 -0.571333
O3    O     O_R   0.552200 0.909890 0.500010 -0.563883
O4    O     O_R   0.909890 0.447800 0.500010 -0.568430
O5    O     O_R   0.447800 0.909890 0.499990 -0.565104
O6    O     O_R   0.090110 0.447800 0.499990 -0.568145
O7    O     O_R   0.552200 0.090110 0.499990 -0.565097
O8    O     O_R   0.909890 0.552200 0.499990 -0.567056
O9    O     O_R   0.947800 0.590110 0.000010 -0.570625
O10   O     O_R   0.590110 0.052200 0.000010 -0.570530
O11   O     O_R   0.052200 0.409890 0.000010 -0.572457
O12   O     O_R   0.409890 0.947800 0.000010 -0.571265
O13   O     O_R   0.947800 0.409890 0.999990 -0.568680
O14   O     O_R   0.590110 0.947800 0.999990 -0.568698
O15   O     O_R   0.052200 0.590110 0.999990 -0.570441
O16   O     O_R   0.409890 0.052200 0.999990 -0.569159
O17   O     O_R   0.447790 0.999910 0.564880 -0.517063
O18   O     O_R   0.999910 0.552210 0.564880 -0.524596
O19   O     O_R   0.552210 0.000090 0.564880 -0.548950
O20   O     O_R   0.000090 0.447790 0.564880 -0.522566
O21   O     O_R   0.447790 0.000090 0.435120 -0.510741
O22   O     O_R   0.999910 0.447790 0.435120 -0.524338
O23   O     O_R   0.552210 0.999910 0.435120 -0.503654
O24   O     O_R   0.000090 0.552210 0.435120 -0.516645
O25   O     O_R   0.947790 0.499910 0.064880 -0.519720
O26   O     O_R   0.499910 0.052210 0.064880 -0.523421
O27   O     O_R   0.052210 0.500090 0.064880 -0.523329
O28   O     O_R   0.500090 0.947790 0.064880 -0.523486
O29   O     O_R   0.947790 0.500090 0.935120 -0.521166
O30   O     O_R   0.499910 0.947790 0.935120 -0.518301
O31   O     O_R   0.052210 0.499910 0.935120 -0.521010
O32   O     O_R   0.500090 0.052210 0.935120 -0.521016
O33   O     O_R   0.409850 0.499950 0.462440 -0.526276
O34   O     O_R   0.499950 0.590150 0.462440 -0.527227
O35   O     O_R   0.590150 0.500050 0.462440 -0.533624
O36   O     O_R   0.500050 0.409850 0.462440 -0.535577
O37   O     O_R   0.409850 0.500050 0.537560 -0.524361
O38   O     O_R   0.499950 0.409850 0.537560 -0.498673
O39   O     O_R   0.590150 0.499950 0.537560 -0.532754
O40   O     O_R   0.500050 0.590150 0.537560 -0.528610
O41   O     O_R   0.909850 0.999950 0.962440 -0.527166
O42   O     O_R   0.999950 0.090150 0.962440 -0.525863
O43   O     O_R   0.090150 0.000050 0.962440 -0.527652
O44   O     O_R   0.000050 0.909850 0.962440 -0.527246
O45   O     O_R   0.909850 0.000050 0.037560 -0.526876
O46   O     O_R   0.999950 0.909850 0.037560 -0.526891
O47   O     O_R   0.090150 0.999950 0.037560 -0.526418
O48   O     O_R   0.000050 0.090150 0.037560 -0.529062
F1    F     F_    0.557217 0.908776 0.864209 -0.588694
F2    F     F_    0.908864 0.438967 0.864520 -0.588493
F3    F     F_    0.441377 0.093857 0.864337 -0.589330
F4    F     F_    0.090119 0.562734 0.864199 -0.588692
F5    F     F_    0.439466 0.908106 0.136178 -0.587451
F6    F     F_    0.090113 0.437398 0.135938 -0.586882
F7    F     F_    0.561817 0.090416 0.135112 -0.588657
F8    F     F_    0.910111 0.560985 0.135324 -0.588739
F9    F     F_    0.062014 0.409635 0.365125 -0.592152
F10   F     F_    0.408222 0.939224 0.364576 -0.584540
F11   F     F_    0.943888 0.593472 0.363276 -0.585573
F12   F     F_    0.588944 0.063245 0.364153 -0.567859
F13   F     F_    0.940509 0.407554 0.636291 -0.577083
F14   F     F_    0.587477 0.937788 0.636093 -0.589644
F15   F     F_    0.061002 0.591148 0.635188 -0.587651
F16   F     F_    0.424080 0.081431 0.633483 -0.629572
S1    S     S_3+6 0.651274 0.152485 0.461062 0.120998
O49   O     O_2   0.665252 0.088641 0.476297 -0.254914
O50   O     O_2   0.609991 0.151265 0.421556 -0.136070
O51   O     O_3   0.717429 0.186106 0.446843 -0.475463
H33   H     H_    0.734996 0.159425 0.424005 0.401611
S2    S     S_3+6 0.152397 0.455977 0.603659 0.010953
O52   O     O_2   0.132508 0.519045 0.591193 -0.251391
O53   O     O_2   0.099097 0.416817 0.616832 -0.327551
O54   O     O_3   0.200178 0.461303 0.647031 -0.457820
H34   H     H_    0.201776 0.419750 0.660050 0.366639
S3    S     S_3+6 0.455255 0.847887 0.602693 0.026379
O55   O     O_2   0.518417 0.867765 0.590614 -0.231507
O56   O     O_2   0.416612 0.901578 0.614345 -0.312767
O57   O     O_3   0.460025 0.801484 0.647134 -0.459176
H35   H     H_    0.418385 0.799922 0.659581 0.365823
S4    S     S_3+6 0.848034 0.541996 0.603753 0.008398
O58   O     O_2   0.868329 0.479428 0.591264 -0.248190
O59   O     O_2   0.901006 0.580923 0.617657 -0.328878
O60   O     O_3   0.799694 0.535079 0.646543 -0.468451
H36   H     H_    0.796980 0.576430 0.659215 0.366861
S5    S     S_3+6 0.546710 0.849406 0.396893 0.003693
O61   O     O_2   0.482995 0.867922 0.407846 -0.289452
O62   O     O_2   0.586048 0.903502 0.385745 -0.308677
O63   O     O_3   0.544310 0.803379 0.352809 -0.472462
H37   H     H_    0.526322 0.828543 0.328805 0.381170
S6    S     S_3+6 0.151491 0.550152 0.397563 0.000704
O64   O     O_2   0.132881 0.485808 0.407983 -0.293746
O65   O     O_2   0.097529 0.589585 0.387438 -0.307852
O66   O     O_3   0.196995 0.549836 0.352991 -0.473858
H38   H     H_    0.171517 0.532648 0.329027 0.380147
S7    S     S_3+6 0.425725 0.144697 0.399263 0.011028
O67   O     O_2   0.491652 0.128082 0.400127 -0.305571
O68   O     O_2   0.385604 0.089139 0.400947 -0.267887
O69   O     O_3   0.411329 0.182494 0.351803 -0.481032
H39   H     H_    0.422522 0.153768 0.328146 0.378788
S8    S     S_3+6 0.847949 0.466912 0.394817 0.004743
O70   O     O_2   0.869965 0.527616 0.410743 -0.276967
O71   O     O_2   0.899615 0.425647 0.383264 -0.332162
O72   O     O_3   0.805368 0.478189 0.349213 -0.464749
H40   H     H_    0.833919 0.495240 0.326976 0.378119
S9    S     S_3+6 0.049150 0.650678 0.102519 0.001274
O73   O     O_2   0.985072 0.631978 0.091942 -0.289468
O74   O     O_2   0.088305 0.596687 0.113307 -0.312738
O75   O     O_3   0.048024 0.696541 0.146703 -0.472234
H41   H     H_    0.030309 0.671241 0.170768 0.381418
S10   S     S_3+6 0.652092 0.953231 0.103046 0.012875
O76   O     O_2   0.632805 0.016816 0.091514 -0.252493
O77   O     O_2   0.598267 0.914021 0.114957 -0.323434
O78   O     O_3   0.698980 0.956765 0.147028 -0.458578
H42   H     H_    0.700069 0.914774 0.159305 0.366986
S11   S     S_3+6 0.952392 0.347016 0.102319 0.014290
O79   O     O_2   0.016086 0.366743 0.091558 -0.252802
O80   O     O_2   0.913387 0.400695 0.113354 -0.318677
O81   O     O_3   0.955331 0.300273 0.146661 -0.459013
H43   H     H_    0.913306 0.299049 0.158426 0.367626
S12   S     S_3+6 0.348153 0.044453 0.103143 0.011703
O82   O     O_2   0.367786 0.981292 0.091656 -0.252118
O83   O     O_2   0.401709 0.083527 0.115606 -0.327136
O84   O     O_3   0.300895 0.039425 0.146687 -0.458783
H44   H     H_    0.299297 0.081111 0.158896 0.366332
S13   S     S_3+6 0.047015 0.349406 0.897053 0.002774
O85   O     O_2   0.983287 0.367920 0.907954 -0.288548
O86   O     O_2   0.086288 0.403464 0.885685 -0.311304
O87   O     O_3   0.044646 0.303035 0.853158 -0.472143
H45   H     H_    0.026603 0.327989 0.829061 0.381453
S14   S     S_3+6 0.650866 0.047055 0.896760 0.001372
O88   O     O_2   0.631228 0.983299 0.908165 -0.289544
O89   O     O_2   0.597504 0.086857 0.885715 -0.313405
O90   O     O_3   0.696588 0.044590 0.852363 -0.473064
H46   H     H_    0.670872 0.027356 0.828548 0.380353
S15   S     S_3+6 0.953517 0.652188 0.897230 0.003874
O91   O     O_2   0.017151 0.633166 0.908529 -0.286799
O92   O     O_2   0.913909 0.598410 0.886341 -0.312003
O93   O     O_3   0.956105 0.698678 0.852780 -0.472279
H47   H     H_    0.973790 0.673631 0.829017 0.381049
S16   S     S_3+6 0.348042 0.954834 0.897016 0.002434
O94   O     O_2   0.367903 0.018332 0.908186 -0.289391
O95   O     O_2   0.401226 0.915182 0.886015 -0.312153
O96   O     O_3   0.301812 0.958251 0.852684 -0.472174
H48   H     H_    0.327267 0.975957 0.828779 0.382120
S17   S     S_3+6 0.704720 0.307030 0.588852 0.111415
O97   O     O_2   0.751501 0.260378 0.601867 -0.240171
O98   O     O_2   0.735221 0.358448 0.564140 -0.242369
O99   O     O_3   0.671710 0.334572 0.634519 -0.436741
H49   H     H_    0.704711 0.356423 0.650287 0.394540
S18   S     S_3+6 0.313152 0.290330 0.586770 0.091115
O100  O     O_2   0.341278 0.254132 0.550328 -0.276912
O101  O     O_2   0.362246 0.310069 0.618333 -0.206409
O102  O     O_3   0.262212 0.246412 0.613816 -0.504693
H50   H     H_    0.285969 0.211427 0.625333 0.397833
S19   S     S_3+6 0.288197 0.683734 0.581698 0.098155
O103  O     O_2   0.248653 0.666419 0.543177 -0.271520
O104  O     O_2   0.305123 0.627099 0.607126 -0.188733
O105  O     O_3   0.249334 0.730673 0.614818 -0.506335
H51   H     H_    0.212836 0.707046 0.623922 0.402935
S20   S     S_3+6 0.689227 0.711021 0.583165 0.100409
O106  O     O_2   0.664759 0.747928 0.545081 -0.265759
O107  O     O_2   0.637521 0.693207 0.613122 -0.194047
O108  O     O_3   0.739939 0.753285 0.611411 -0.505306
H52   H     H_    0.716821 0.789293 0.621288 0.401632
S21   S     S_3+6 0.713116 0.687029 0.421154 0.103561
O109  O     O_2   0.753021 0.672810 0.460266 -0.271913
O110  O     O_2   0.697381 0.628732 0.397933 -0.188280
O111  O     O_3   0.751015 0.733575 0.386226 -0.496807
H53   H     H_    0.787995 0.710706 0.378024 0.401369
S22   S     S_3+6 0.316381 0.714700 0.420583 0.101668
O112  O     O_2   0.329076 0.755085 0.459377 -0.274565
O113  O     O_2   0.375491 0.699425 0.398478 -0.189381
O114  O     O_3   0.271307 0.751942 0.384453 -0.494920
H54   H     H_    0.294434 0.789231 0.376249 0.401796
S23   S     S_3+6 0.277191 0.319408 0.432394 0.086433
O115  O     O_2   0.232930 0.311614 0.469790 -0.278672
O116  O     O_2   0.287307 0.386239 0.423580 -0.206788
O117  O     O_3   0.247591 0.287111 0.386898 -0.485295
H55   H     H_    0.208479 0.308355 0.381793 0.402954
S24   S     S_3+6 0.668887 0.316912 0.395765 0.113275
O118  O     O_2   0.708840 0.269468 0.375425 -0.237288
O119  O     O_2   0.619830 0.286711 0.422697 -0.214734
O120  O     O_3   0.636227 0.358351 0.355254 -0.474243
H56   H     H_    0.611091 0.328861 0.338494 0.389395
S25   S     S_3+6 0.214091 0.815144 0.079621 0.104019
O121  O     O_2   0.254481 0.829198 0.040840 -0.279626
O122  O     O_2   0.198494 0.873570 0.102422 -0.181920
O123  O     O_3   0.251400 0.769137 0.115137 -0.495184
H57   H     H_    0.288518 0.792216 0.123477 0.402673
S26   S     S_3+6 0.813500 0.786824 0.081293 0.095481
O124  O     O_2   0.831343 0.748348 0.042693 -0.269901
O125  O     O_2   0.869651 0.803357 0.107157 -0.196074
O126  O     O_3   0.765671 0.746821 0.113923 -0.506852
H58   H     H_    0.788869 0.710183 0.123031 0.401078
S27   S     S_3+6 0.786230 0.183319 0.078662 0.095411
O127  O     O_2   0.745744 0.170464 0.039723 -0.274424
O128  O     O_2   0.801732 0.124209 0.101441 -0.188166
O129  O     O_3   0.749119 0.228418 0.114102 -0.506322
H59   H     H_    0.712006 0.205161 0.122346 0.403363
S28   S     S_3+6 0.187368 0.211722 0.080599 0.097083
O130  O     O_2   0.170363 0.251578 0.041919 -0.271638
O131  O     O_2   0.130746 0.194864 0.105781 -0.190426
O132  O     O_3   0.235085 0.250291 0.113883 -0.506894
H60   H     H_    0.212105 0.286881 0.122779 0.402432
S29   S     S_3+6 0.212886 0.187376 0.920185 0.102637
O133  O     O_2   0.253024 0.172283 0.958998 -0.273285
O134  O     O_2   0.196753 0.129589 0.896449 -0.189697
O135  O     O_3   0.250726 0.234404 0.885560 -0.497816
H61   H     H_    0.287608 0.211590 0.877058 0.400356
S30   S     S_3+6 0.815623 0.212846 0.917667 0.103702
O136  O     O_2   0.832531 0.252302 0.956144 -0.272053
O137  O     O_2   0.872397 0.196336 0.892996 -0.189151
O138  O     O_3   0.768719 0.251732 0.883762 -0.497976
H62   H     H_    0.792167 0.288470 0.874755 0.400626
S31   S     S_3+6 0.787273 0.814591 0.919608 0.103288
O139  O     O_2   0.748165 0.830586 0.958392 -0.271479
O140  O     O_2   0.803654 0.871940 0.894696 -0.191279
O141  O     O_3   0.748149 0.767698 0.886116 -0.498167
H63   H     H_    0.711433 0.790931 0.877347 0.400556
S32   S     S_3+6 0.183750 0.788262 0.919120 0.101630
O142  O     O_2   0.168323 0.747690 0.957788 -0.277402
O143  O     O_2   0.126106 0.804943 0.895100 -0.189630
O144  O     O_3   0.229916 0.750611 0.884689 -0.497414
H64   H     H_    0.206491 0.713911 0.875970 0.401124
F17   F     F_    0.589036 0.360575 0.564204 -0.591998
F18   F     F_    0.373033 0.393324 0.543392 -0.626778
F19   F     F_    0.391921 0.625445 0.539726 -0.636126
F20   F     F_    0.627912 0.607757 0.541830 -0.628506
F21   F     F_    0.608321 0.627101 0.462447 -0.636473
F22   F     F_    0.374772 0.607950 0.460422 -0.636106
F23   F     F_    0.391222 0.375574 0.464613 -0.641796
F24   F     F_    0.626624 0.389024 0.471293 -0.674685
F25   F     F_    0.107643 0.874282 0.040232 -0.634937
F26   F     F_    0.873250 0.892010 0.040135 -0.632889
F27   F     F_    0.891726 0.125071 0.038603 -0.637428
F28   F     F_    0.127199 0.107576 0.039476 -0.633882
F29   F     F_    0.107625 0.127080 0.960564 -0.633716
F30   F     F_    0.874265 0.107830 0.959323 -0.633914
F31   F     F_    0.891697 0.873675 0.961377 -0.634455
F32   F     F_    0.125528 0.892159 0.960867 -0.635827

loop_
_geom_bond_atom_site_label_1
_geom_bond_atom_site_label_2
_ccdc_geom_bond_type
C40   F32   S    
O120  H56   S    
O78   H42   S    
C153  C166  A    
C20   S28   S    
S5    O62   D    
O138  H62   S    
Cu11  O41   S    
C107  C129  A    
C53   C69   A    
C42   C58   A    
C153  H1    S    
O66   H38   S    
Cu4   O20   S    
C105  C131  A    
C179  C195  A    
O126  H58   S    
C106  C132  A    
C32   F24   S    
C177  C193  A    
C46   C62   A    
C96   O46   A    
C112  C124  A    
C58   C82   A    
C130  C146  A    
C22   C38   A    
C114  F10   S    
O87   H45   S    
C180  S12   S    
C64   C84   A    
C75   C90   S    
S32   O142  D    
C56   C72   A    
C156  H4    S    
C129  C145  A    
Cu12  O48   S    
C97   O17   A    
C26   F18   S    
S13   O87   S    
C7    O11   A    
C170  S2    S    
Cu8   O30   S    
C171  S3    S    
S22   O113  D    
C196  H32   S    
Cu1   O21   S    
C59   C171  A    
Cu2   O18   S    
C43   C75   A    
Cu1   O1    S    
C160  C163  A    
C71   C183  A    
S23   O117  S    
C72   C184  A    
C25   C41   A    
O69   H39   S    
C21   S29   S    
S2    O52   D    
C8    O12   A    
C29   C45   A    
C190  H18   S    
Cu10  O38   S    
C37   C53   A    
C175  S7    S    
C178  C194  A    
C164  H12   S    
C4    C84   S    
C11   C27   A    
C158  H6    S    
O75   H41   S    
S10   O77   D    
C120  C142  A    
C138  C162  A    
O63   H37   S    
C187  H21   S    
Cu2   Cu4   S    
O123  H57   S    
C185  H23   S    
Cu6   O26   S    
C35   C51   A    
S17   O97   D    
C119  C141  A    
C7    O13   A    
O96   H48   S    
C104  O30   A    
C174  C190  A    
S19   O104  D    
C15   C191  A    
C188  H24   S    
C21   C197  A    
S16   O95   D    
C105  F1    S    
C93   O45   A    
C39   F31   S    
C6    O14   A    
C136  C160  A    
C37   F29   S    
C132  C146  A    
C1    O1    A    
C137  C161  A    
C197  H27   S    
S6    O66   S    
C100  O22   A    
S4    O60   S    
Cu9   O33   S    
C110  F6    S    
C31   F23   S    
C138  C150  A    
C183  S15   S    
S18   O100  D    
C97   O19   A    
C98   O20   A    
C24   C200  A    
C19   S27   S    
S11   O79   D    
C19   C35   A    
C8    C88   S    
S21   O109  D    
S2    O53   D    
C157  C162  A    
C55   C71   A    
C69   C181  A    
S3    O56   D    
C92   O36   A    
S9    O73   D    
C35   F27   S    
C109  C135  A    
C99   O21   A    
C48   C76   A    
C110  C136  A    
S23   O115  D    
C181  C197  A    
Cu11  O43   S    
S25   O121  D    
S31   O140  D    
C13   S21   S    
C119  F15   S    
Cu10  O39   S    
O111  H53   S    
C184  S16   S    
C114  C126  A    
Cu2   O24   S    
O81   H43   S    
C116  F12   S    
S19   O103  D    
S12   O82   D    
C5    O9    A    
C44   C76   A    
S14   O88   D    
C92   O38   A    
C177  S9    S    
C22   S30   S    
Cu7   O27   S    
C115  C137  A    
C184  C200  A    
C161  H9    S    
S17   O99   S    
C113  C139  A    
C154  C165  A    
C91   O39   A    
S30   O136  D    
C133  C147  A    
C114  C140  A    
C64   C176  A    
C104  O32   A    
C108  C130  A    
S22   O114  S    
C43   C59   A    
C5    C85   S    
Cu1   Cu3   S    
C4    O8    A    
C16   S24   S    
C97   C128  S    
C89   O33   A    
C99   C126  S    
Cu5   Cu7   S    
C39   C55   A    
C101  C124  S    
S20   O106  D    
C79   C94   S    
S6    O64   D    
C109  C123  A    
S15   O93   S    
C100  O24   A    
S29   O134  D    
Cu9   O35   S    
C101  O25   A    
C34   F26   S    
S28   O130  D    
C80   C95   S    
S14   O90   S    
C8    O16   A    
Cu4   O22   S    
C142  C166  A    
C18   C34   A    
C98   O18   A    
C63   C175  A    
C191  H17   S    
Cu7   O15   S    
C106  C122  A    
S30   O138  S    
C165  H13   S    
Cu9   Cu10  S    
C130  C154  A    
C51   C67   A    
S21   O111  S    
C91   O35   A    
C143  C167  A    
C136  C148  A    
Cu3   O7    S    
S24   O118  D    
C134  C158  A    
S9    O75   S    
C135  C147  A    
O117  H55   S    
C178  S10   S    
Cu5   O9    S    
C26   C42   A    
O105  H51   S    
S25   O123  S    
C174  S6    S    
S7    O68   D    
Cu10  O37   S    
C30   C46   A    
Cu11  O44   S    
C3    O5    A    
C73   C92   S    
C181  S13   S    
O135  H61   S    
C180  C196  A    
C66   C86   A    
C115  F11   S    
C1    O7    A    
C15   C31   A    
C16   C32   A    
C36   F28   S    
C77   C96   S    
C141  C165  A    
C56   C80   A    
S12   O84   S    
C139  C163  A    
C103  O31   A    
C144  C152  A    
O102  H50   S    
C129  C153  A    
C169  S1    S    
C160  H8    S    
C65   C177  A    
C95   O43   A    
C143  C151  A    
C132  C156  A    
C49   C77   A    
C131  C145  A    
S11   O81   S    
C133  C157  A    
C62   C82   A    
C51   C79   A    
C145  C152  A    
C76   C91   S    
C41   C73   A    
C146  C151  A    
C14   C190  A    
S7    O69   S    
Cu3   O3    S    
S8    O70   D    
S32   O143  D    
S29   O133  D    
C159  C164  A    
O129  H59   S    
Cu12  O45   S    
C23   S31   S    
C28   F20   S    
C186  H22   S    
C119  C127  A    
O93   H47   S    
C193  H31   S    
S4    O58   D    
Cu2   O8    S    
S20   O108  S    
C154  H2    S    
S26   O124  D    
C9    C25   A    
S15   O91   D    
C101  O27   A    
C112  F8    S    
C102  O28   A    
C12   C28   A    
S28   O132  S    
C13   C29   A    
S23   O116  D    
C59   C83   A    
C47   C63   A    
C107  F3    S    
C48   C64   A    
C18   C194  A    
C33   C49   A    
C50   C78   A    
C5    O15   A    
C53   C79   A    
C142  C152  A    
Cu6   O16   S    
C198  H26   S    
C158  C161  A    
C110  C124  A    
C70   C182  A    
S24   O120  S    
C7    C87   S    
C40   C56   A    
C117  C143  A    
C45   C75   A    
C194  H30   S    
C69   C87   A    
C12   S20   S    
S2    O54   S    
C25   F17   S    
O57   H35   S    
C195  H29   S    
C31   C47   A    
C32   C48   A    
S27   O128  D    
Cu11  O42   S    
C17   C33   A    
C199  H25   S    
Cu2   O2    S    
C42   C74   A    
C179  S11   S    
O132  H60   S    
C135  C159  A    
C47   C73   A    
C173  S5    S    
C61   C83   A    
O72   H40   S    
O141  H63   S    
Cu7   O31   S    
C10   S18   S    
C111  C123  A    
C139  C149  A    
C45   C61   A    
C9    S17   S    
S27   O127  D    
C200  H28   S    
C168  H16   S    
C167  H15   S    
S7    O67   D    
C38   C54   A    
S8    O72   S    
C155  C168  A    
S29   O135  S    
C147  C150  A    
C157  H5    S    
C1    C81   S    
C155  H3    S    
C117  C127  A    
C103  O29   A    
Cu12  O47   S    
S18   O101  D    
C14   S22   S    
C15   S23   S    
C117  F13   S    
C159  H7    S    
S22   O112  D    
C2    C82   S    
C140  C164  A    
C107  C121  A    
Cu9   O36   S    
C192  H20   S    
C102  O26   A    
C58   C170  A    
C67   C87   A    
C22   C198  A    
S20   O107  D    
O99   H49   S    
S18   O102  S    
C6    C86   S    
C120  C128  A    
C89   O37   A    
Cu6   O32   S    
C38   F30   S    
Cu5   O29   S    
Cu10  O40   S    
C131  C155  A    
C2    O2    A    
C41   C57   A    
O60   H36   S    
C67   C179  A    
C11   S19   S    
Cu6   Cu8   S    
C44   C60   A    
Cu6   O10   S    
Cu1   O5    S    
C29   F21   S    
C96   O44   A    
S12   O83   D    
S6    O65   D    
C182  S14   S    
S14   O89   D    
C172  S4    S    
S15   O92   D    
S3    O55   D    
C20   C36   A    
C27   C43   A    
C21   C37   A    
C113  F9    S    
C90   O34   A    
C109  F5    S    
S17   O98   D    
S30   O137  D    
C52   C80   A    
C103  C122  S    
C54   C78   A    
C12   C188  A    
S19   O105  S    
C93   O41   A    
C19   C195  A    
S5    O61   D    
C17   C193  A    
O84   H44   S    
C182  C198  A    
C57   C169  A    
S16   O94   D    
C176  S8    S    
O114  H54   S    
C108  F4    S    
C94   O42   A    
Cu5   O13   S    
S1    O49   D    
O51   H33   S    
C66   C178  A    
C99   O23   A    
C49   C65   A    
C144  C168  A    
C11   C187  A    
C74   C89   S    
C189  H19   S    
Cu1   O17   S    
C9    C185  A    
C2    O6    A    
C175  C191  A    
C55   C77   A    
Cu3   O19   S    
C176  C192  A    
C113  C125  A    
C78   C93   S    
Cu9   O34   S    
C62   C174  A    
C23   C199  A    
C13   C189  A    
C6    O10   A    
S28   O131  D    
Cu7   O11   S    
C4    O4    A    
C16   C192  A    
C10   C186  A    
C71   C85   A    
C162  H10   S    
C17   S25   S    
C54   C70   A    
C28   C44   A    
O108  H52   S    
S21   O110  D    
C52   C68   A    
Cu4   O6    S    
C10   C26   A    
S24   O119  D    
S3    O57   S    
S9    O74   D    
C116  C126  A    
C170  C186  A    
C118  C128  A    
C14   C30   A    
C106  F2    S    
C72   C88   A    
C116  C138  A    
S25   O122  D    
S31   O141  S    
Cu5   O25   S    
C34   C50   A    
Cu8   O14   S    
C27   F19   S    
C90   O40   A    
C100  C125  S    
C60   C172  A    
C94   O48   A    
C61   C173  A    
C148  C149  A    
C18   S26   S    
S27   O129  S    
S32   O144  S    
C111  C133  A    
C104  C121  S    
C156  C167  A    
Cu8   O28   S    
C68   C180  A    
C183  C199  A    
C33   F25   S    
Cu3   O23   S    
Cu11  Cu12  S    
O144  H64   S    
C166  H14   S    
C120  F16   S    
C105  C121  A    
S11   O80   D    
C50   C66   A    
O90   H46   S    
Cu4   O4    S    
S4    O59   D    
C137  C149  A    
S8    O71   D    
S10   O76   D    
C95   O47   A    
C68   C88   A    
S5    O63   S    
C57   C81   A    
C118  C144  A    
C70   C86   A    
S16   O96   S    
C140  C150  A    
C46   C74   A    
Cu12  O46   S    
C141  C151  A    
S13   O85   D    
S1    O51   S    
C3    O3    A    
C98   C127  S    
C63   C81   A    
C108  C122  A    
C36   C52   A    
S26   O125  D    
C65   C85   A    
C163  H11   S    
S10   O78   S    
C134  C148  A    
C111  F7    S    
C115  C125  A    
C171  C187  A    
C30   F22   S    
C169  C185  A    
C3    C83   S    
C60   C84   A    
S1    O50   D    
C172  C188  A    
C23   C39   A    
C118  F14   S    
C173  C189  A    
C24   C40   A    
S31   O139  D    
C24   S32   S    
O54   H34   S    
S26   O126  S    
Cu8   O12   S    
S13   O86   D    
C112  C134  A    
C20   C196  A    
C102  C123  S    
