data_mof_unit_9981.cif
_audit_creation_date              2012-12-10T20:51:28-0500
_audit_creation_method            fapswitch 2.2
_symmetry_space_group_name_H-M    P1
_symmetry_Int_Tables_number       1
_space_group_crystal_system       triclinic
_cell_length_a                    17.53978
_cell_length_b                    8.936196
_cell_length_c                    8.10668
_cell_angle_alpha                 89.995017
_cell_angle_beta                  89.218911
_cell_angle_gamma                 89.999121
_cell_volume                      1270.51412738

loop_
_atom_site_label
_atom_site_type_symbol
_atom_type_description
_atom_site_fract_x
_atom_site_fract_y
_atom_site_fract_z
_atom_type_partial_charge
C1    C     C_R   0.500000 0.217985 0.500005 0.941271
C2    C     C_R   0.848493 0.495428 0.340842 -0.032586
C3    C     C_R   0.767385 0.429485 0.633108 -0.295778
C4    C     C_R   0.232096 0.565788 0.366530 -0.295702
C5    C     C_R   0.230316 0.482724 0.651435 -0.290343
C6    C     C_R   0.769720 0.511950 0.347991 -0.290126
C7    C     C_R   0.729436 0.482966 0.494564 -0.005807
C8    C     C_R   0.270457 0.514049 0.505288 -0.006082
C9    C     C_R   0.887079 0.452665 0.485052 0.092969
C10   C     C_R   0.112473 0.536466 0.513576 0.091991
C11   C     C_1   0.966747 0.479762 0.494843 0.139756
C12   C     C_R   0.500001 0.782015 0.499994 0.941468
C13   C     C_1   0.032950 0.507713 0.503784 0.138036
C14   C     C_2   0.882525 0.343538 0.775694 0.490682
C15   C     C_2   0.116221 0.646109 0.222988 0.489079
C16   C     C_2   0.112192 0.464665 0.817815 0.454391
C17   C     C_2   0.887796 0.523519 0.180653 0.456800
C18   C     C_1   0.500002 0.065184 0.500011 -0.190336
C19   C     C_1   0.500000 0.934816 0.499989 -0.190409
C20   C     C_R   0.353024 0.502048 0.501253 0.875999
C21   C     C_R   0.646974 0.497660 0.498737 0.876012
C22   C     C_R   0.846112 0.410186 0.628771 -0.041390
C23   C     C_R   0.153146 0.581143 0.370226 -0.040108
C24   C     C_R   0.151343 0.495212 0.657980 -0.032263
H1    H     H_    0.735393 0.399773 0.743754 0.149883
H2    H     H_    0.263895 0.597056 0.256144 0.149836
H3    H     H_    0.260570 0.447938 0.760739 0.150945
H4    H     H_    0.739734 0.547846 0.238766 0.151006
H5    H     H_    0.851589 0.340043 0.892463 0.051118
H6    H     H_    0.147266 0.650752 0.106380 0.051251
H7    H     H_    0.140894 0.400339 0.912103 0.053883
H8    H     H_    0.859773 0.588846 0.086204 0.053994
N1    N     N_1   0.500000 0.500000 0.073640 -0.036801
N2    N     N_1   0.500000 0.500000 0.926360 -0.036818
O1    O     O_R   0.500000 0.285350 0.636850 -0.614966
O2    O     O_2   0.052804 0.702002 0.231634 -0.523199
O3    O     O_2   0.049376 0.516864 0.849339 -0.499148
O4    O     O_2   0.949914 0.468223 0.149101 -0.499368
O5    O     O_R   0.500000 0.714650 0.363150 -0.614802
O6    O     O_R   0.500000 0.714650 0.636850 -0.612176
O7    O     O_R   0.500000 0.285350 0.363150 -0.612256
O8    O     O_R   0.389120 0.500000 0.636930 -0.623191
O9    O     O_R   0.610880 0.500000 0.363070 -0.623132
O10   O     O_R   0.610880 0.500000 0.636930 -0.622026
O11   O     O_R   0.389120 0.500000 0.363070 -0.622023
O12   O     O_2   0.945337 0.285111 0.766622 -0.521547
Zn1   Zn    Zn3+2 0.500000 0.500000 0.682780 0.985965
Zn2   Zn    Zn3+2 0.500000 0.500000 0.317220 0.986048

loop_
_geom_bond_atom_site_label_1
_geom_bond_atom_site_label_2
_ccdc_geom_bond_type
C12   O6    A    
O6    Zn1   S    
C20   O8    A    
C6    C7    A    
C10   C23   A    
C5    C8    A    
C21   O10   A    
C11   C13   T    
O9    Zn2   S    
C4    H2    S    
C20   O11   A    
O10   Zn1   S    
C16   O3    D    
C4    C8    A    
O1    Zn1   S    
C14   C22   S    
C12   O5    A    
C15   C23   S    
N1    N2    T    
C16   C24   S    
C21   O9    A    
C16   H7    S    
C7    C21   S    
C9    C11   S    
C1    C18   S    
C8    C20   S    
C5    C24   A    
C12   C19   S    
C1    O7    A    
O7    Zn2   S    
C4    C23   A    
C3    C7    A    
O8    Zn1   S    
C9    C22   A    
C14   H5    S    
C15   O2    D    
C3    H1    S    
C17   O4    D    
C1    O1    A    
C15   H6    S    
C14   O12   D    
C18   C19   T    
O11   Zn2   S    
N1    Zn2   S    
C17   H8    S    
C3    C22   A    
N2    Zn1   S    
C10   C24   A    
C5    H3    S    
C2    C9    A    
C6    H4    S    
C2    C6    A    
O5    Zn2   S    
C2    C17   S    
C10   C13   S    
