data_mof_unit_34028.cif
_audit_creation_date              2012-12-10T20:51:43-0500
_audit_creation_method            fapswitch 2.2
_symmetry_space_group_name_H-M    P1
_symmetry_Int_Tables_number       1
_space_group_crystal_system       triclinic
_cell_length_a                    8.095319
_cell_length_b                    8.925875
_cell_length_c                    16.813845
_cell_angle_alpha                 89.660006
_cell_angle_beta                  93.521591
_cell_angle_gamma                 89.835765
_cell_volume                      1212.60970997

loop_
_atom_site_label
_atom_site_type_symbol
_atom_type_description
_atom_site_fract_x
_atom_site_fract_y
_atom_site_fract_z
_atom_type_partial_charge
C1    C     C_R   0.500129 0.217961 0.500005 0.923242
C2    C     C_R   0.499866 0.782044 0.499919 0.938004
C3    C     C_R   0.519300 0.500753 0.654234 0.872914
C4    C     C_R   0.480108 0.493061 0.346565 0.872687
C5    C     C_R   0.524751 0.478910 0.740620 -0.220355
C6    C     C_R   0.468228 0.460433 0.261935 -0.189353
C7    C     C_R   0.377449 0.486181 0.781973 -0.144053
C8    C     C_R   0.580012 0.360935 0.227271 -0.150169
C9    C     C_R   0.374849 0.415359 0.856370 0.503834
C10   C     C_R   0.559695 0.332140 0.145158 0.504075
C11   C     C_R   0.527737 0.378045 0.898077 0.119722
C12   C     C_R   0.435492 0.411267 0.098558 0.149465
C13   C     C_R   0.673700 0.379744 0.858402 -0.227567
C14   C     C_R   0.321557 0.500662 0.134991 -0.221375
C15   C     C_R   0.671493 0.425146 0.779397 -0.174347
C16   C     C_R   0.336783 0.524611 0.215990 -0.199539
C17   C     C_1   0.500209 0.065208 0.499910 -0.196737
C18   C     C_1   0.499799 0.934817 0.499885 -0.195219
H1    H     H_    0.789934 0.347990 0.889377 0.192310
H2    H     H_    0.224288 0.557952 0.099468 0.186425
H3    H     H_    0.784768 0.418515 0.748592 0.212950
H4    H     H_    0.249038 0.598341 0.242432 0.182315
N1    N     N_1   0.073640 0.500030 0.499990 -0.027731
N2    N     N_1   0.926360 0.499970 0.500010 -0.027078
N3    N     N_2   0.542086 0.357891 0.981587 -0.140359
N4    N     N_2   0.424180 0.414577 0.014776 -0.133704
O1    O     O_R   0.636850 0.285340 0.500000 -0.625529
O2    O     O_R   0.363150 0.714660 0.500000 -0.618920
O3    O     O_R   0.363100 0.285350 0.500000 -0.607715
O4    O     O_R   0.636900 0.714650 0.500000 -0.610211
O5    O     O_R   0.652140 0.498630 0.616140 -0.602897
O6    O     O_R   0.347860 0.501370 0.383860 -0.602870
O7    O     O_R   0.378390 0.498650 0.616130 -0.638318
O8    O     O_R   0.621610 0.501350 0.383870 -0.629621
Zn1   Zn    Zn3+2 0.682780 0.499990 0.500010 0.995564
Zn2   Zn    Zn3+2 0.317220 0.500010 0.499990 0.995010
C19   C     C_2   0.711763 0.280869 0.276554 0.449703
H5    H     H_    0.692107 0.249273 0.337581 0.064694
O9    O     O_2   0.844103 0.249605 0.249561 -0.529309
C20   C     C_2   0.230641 0.574480 0.750116 0.478334
H6    H     H_    0.246070 0.663841 0.707207 0.061160
O10   O     O_2   0.092063 0.551640 0.772208 -0.558997
O11   O     O_3   0.664494 0.230940 0.111132 -0.594091
C21   C     C_3   0.580168 0.094967 0.093320 0.085597
H7    H     H_    0.615273 0.058337 0.033579 0.167903
H8    H     H_    0.442242 0.104866 0.089633 0.109170
C22   C     C_3   0.634916 0.974292 0.154460 -0.327762
H9    H     H_    0.772288 0.967156 0.159303 0.258764
H10   H     H_    0.591412 0.004643 0.213656 0.208358
C23   C     C_3   0.564825 0.821348 0.130873 -0.936877
H11   H     H_    0.427411 0.824993 0.127396 0.265810
H12   H     H_    0.607577 0.736702 0.176273 0.278670
H13   H     H_    0.608160 0.786853 0.072274 0.272296
O12   O     O_3   0.224442 0.395932 0.890543 -0.592024
C24   C     C_3   0.188064 0.241114 0.896597 0.103532
H14   H     H_    0.091787 0.228836 0.940491 0.175236
H15   H     H_    0.296223 0.173291 0.920232 0.115192
C25   C     C_3   0.119592 0.178452 0.816413 -0.378761
H16   H     H_    0.011367 0.246278 0.793851 0.250503
H17   H     H_    0.215829 0.184967 0.772165 0.217442
C26   C     C_3   0.066406 0.015467 0.824572 -0.918062
H18   H     H_    0.173442 0.944842 0.846057 0.267024
H19   H     H_    0.018278 0.973231 0.765655 0.274997
H20   H     H_    0.966987 0.006114 0.867017 0.266651

loop_
_geom_bond_atom_site_label_1
_geom_bond_atom_site_label_2
_ccdc_geom_bond_type
C26   H20   S    
C23   H12   S    
C7    C20   S    
C19   H5    S    
N1    Zn2   S    
C2    C18   S    
C4    O8    A    
C9    C11   A    
C10   O11   S    
C1    C17   S    
C22   H9    S    
C21   C22   S    
C2    O4    A    
O11   C21   S    
C1    O1    A    
C7    C9    A    
C24   H14   S    
C1    O3    A    
C17   C18   T    
C25   H16   S    
C19   O9    D    
C3    O5    A    
C11   C13   A    
O3    Zn2   S    
C16   H4    S    
C4    O6    A    
C10   C12   A    
O4    Zn1   S    
C25   C26   S    
O6    Zn2   S    
C8    C10   A    
C20   H6    S    
C21   H8    S    
C23   H11   S    
C22   C23   S    
C14   C16   A    
C24   H15   S    
C13   C15   A    
C26   H18   S    
O5    Zn1   S    
C5    C15   A    
C23   H13   S    
C2    O2    A    
C8    C19   S    
C11   N3    S    
N1    N2    T    
C25   H17   S    
N2    Zn1   S    
C14   H2    S    
C12   C14   A    
C15   H3    S    
O7    Zn2   S    
C21   H7    S    
O2    Zn2   S    
C22   H10   S    
O8    Zn1   S    
C24   C25   S    
C5    C7    A    
C3    O7    A    
O12   C24   S    
C13   H1    S    
C6    C8    A    
C9    O12   S    
O1    Zn1   S    
N3    N4    D    
C4    C6    S    
C6    C16   A    
C26   H19   S    
C12   N4    S    
C20   O10   D    
C3    C5    S    
