data_mof_unit_35804.cif
_audit_creation_date              2012-12-11T14:04:06-0500
_audit_creation_method            fapswitch 2.2
_symmetry_space_group_name_H-M    P1
_symmetry_Int_Tables_number       1
_space_group_crystal_system       triclinic
_cell_length_a                    18.965528
_cell_length_b                    11.008341
_cell_length_c                    18.811508
_cell_angle_alpha                 89.901321
_cell_angle_beta                  90.410658
_cell_angle_gamma                 89.908051
_cell_volume                      3927.33598099

loop_
_atom_site_label
_atom_site_type_symbol
_atom_type_description
_atom_site_fract_x
_atom_site_fract_y
_atom_site_fract_z
_atom_type_partial_charge
C1    C     C_R   0.238758 0.468980 0.645703 0.553533
C2    C     C_R   0.760797 0.467989 0.353787 0.562990
C3    C     C_R   0.739325 0.968026 0.646312 0.555357
C4    C     C_R   0.272726 0.011149 0.362353 0.564554
C5    C     C_2   0.306990 0.892359 0.548256 -0.165583
C6    C     C_2   0.710881 0.843773 0.462906 -0.160638
C7    C     C_2   0.790708 0.346733 0.537889 -0.161028
C8    C     C_2   0.204015 0.357800 0.459798 -0.170034
C9    C     C_R   0.007033 0.657958 0.424962 -0.036963
C10   C     C_R   0.994525 0.667986 0.574233 -0.043547
C11   C     C_R   0.506851 0.167972 0.424844 -0.043125
C12   C     C_R   0.494640 0.157796 0.574112 -0.035292
C13   C     C_R   0.035974 0.874299 0.422070 -0.077442
C14   C     C_R   0.005908 0.893053 0.566475 -0.071978
C15   C     C_R   0.495905 0.392951 0.432151 -0.072076
C16   C     C_R   0.465567 0.374491 0.576520 -0.086452
C17   C     C_R   0.043709 0.985112 0.456578 -0.127671
C18   C     C_R   0.026777 0.995340 0.528165 -0.126061
C19   C     C_R   0.475463 0.495572 0.470271 -0.124798
C20   C     C_R   0.458379 0.485525 0.541839 -0.130533
C21   C     C_R   0.004700 0.776957 0.534352 0.011065
C22   C     C_R   0.014810 0.770018 0.459832 0.009808
C23   C     C_R   0.486685 0.269950 0.539033 0.008247
C24   C     C_R   0.496852 0.276888 0.464544 0.010792
C25   C     C_R   0.983437 0.557981 0.537392 0.016795
C26   C     C_R   0.004188 0.550246 0.466255 0.025794
C27   C     C_R   0.498701 0.049944 0.532939 0.022768
C28   C     C_R   0.518924 0.058187 0.461643 0.011661
C29   C     C_R   0.958844 0.451896 0.571729 -0.069926
C30   C     C_R   0.018343 0.433996 0.437693 -0.077524
C31   C     C_R   0.485731 0.933077 0.561520 -0.084134
C32   C     C_R   0.543722 0.952668 0.426944 -0.069141
C33   C     C_R   0.967617 0.338263 0.540572 -0.135313
C34   C     C_R   0.999652 0.329238 0.474567 -0.148482
C35   C     C_R   0.504707 0.828812 0.524415 -0.151123
C36   C     C_R   0.535882 0.838702 0.458054 -0.132021
C37   C     C_2   0.252153 0.921499 0.919624 -0.114582
C38   C     C_2   0.744347 0.926690 0.082720 -0.112641
C39   C     C_2   0.757823 0.435987 0.914333 -0.114124
C40   C     C_2   0.261037 0.394719 0.070557 -0.108922
C41   C     C_2   0.249403 0.926734 0.076516 -0.119428
C42   C     C_2   0.745584 0.937396 0.926647 -0.106828
C43   C     C_2   0.771197 0.486448 0.066931 -0.101706
C44   C     C_2   0.254161 0.394868 0.913823 -0.121491
C45   C     C_R   0.228324 0.878363 0.649721 0.559672
C46   C     C_R   0.772934 0.874194 0.352448 0.554630
C47   C     C_R   0.727128 0.374565 0.647641 0.552936
C48   C     C_R   0.272627 0.375199 0.351992 0.553751
C49   C     C_2   0.216186 0.005850 0.032847 -0.168290
C50   C     C_2   0.772406 0.022707 0.970436 -0.154222
C51   C     C_2   0.736580 0.559190 0.021394 -0.166592
C52   C     C_2   0.312165 0.420160 0.951364 -0.172841
C53   C     C_2   0.207496 0.988024 0.957556 -0.170839
C54   C     C_2   0.784318 0.002592 0.045611 -0.161934
C55   C     C_2   0.721325 0.522886 0.947923 -0.156370
C56   C     C_2   0.317214 0.397560 0.027190 -0.165814
C57   C     C_2   0.007798 0.654435 0.923363 -0.069649
C58   C     C_2   0.016488 0.671607 0.089096 -0.095484
C59   C     C_2   0.486011 0.164147 0.911064 -0.086234
C60   C     C_2   0.501983 0.158791 0.083103 -0.071616
C61   C     C_2   0.032360 0.585796 0.041867 -0.031729
C62   C     C_2   0.056880 0.628639 0.973409 -0.014305
C63   C     C_2   0.460091 0.121754 0.029906 -0.019600
C64   C     C_2   0.493264 0.086664 0.965168 -0.022701
C65   C     C_R   0.027067 0.656121 0.646068 0.530724
C66   C     C_R   0.973399 0.654052 0.353524 0.531049
C67   C     C_R   0.526943 0.154139 0.646180 0.529527
C68   C     C_R   0.473197 0.155979 0.353642 0.521133
C69   C     C_R   0.240040 0.462244 0.848980 0.543722
C70   C     C_R   0.775455 0.518021 0.141532 0.570486
C71   C     C_R   0.738182 0.969987 0.852484 0.549298
C72   C     C_R   0.260635 0.966798 0.148912 0.553411
C73   C     C_R   0.228326 0.874758 0.852068 0.544295
C74   C     C_R   0.771375 0.875219 0.148167 0.547967
C75   C     C_R   0.728706 0.376136 0.851734 0.551900
C76   C     C_R   0.274219 0.369177 0.144971 0.547760
C77   C     C_R   0.028489 0.652063 0.849968 0.534794
C78   C     C_R   0.972216 0.653194 0.150632 0.543386
C79   C     C_R   0.527884 0.152493 0.848691 0.551824
C80   C     C_R   0.474529 0.152800 0.153149 0.535902
C81   C     C_2   0.255188 0.940306 0.587390 -0.112838
C82   C     C_2   0.751302 0.915845 0.422297 -0.111961
C83   C     C_2   0.748912 0.417183 0.578000 -0.112630
C84   C     C_2   0.250137 0.421132 0.420619 -0.108119
C85   C     C_2   0.263317 0.967737 0.434401 -0.110981
C86   C     C_2   0.753496 0.910377 0.578567 -0.118907
C87   C     C_2   0.747209 0.410646 0.421820 -0.118796
C88   C     C_2   0.250388 0.413956 0.576601 -0.118237
C89   C     C_2   0.318160 0.932942 0.474940 -0.165217
C90   C     C_2   0.700630 0.868211 0.538367 -0.160884
C91   C     C_2   0.800692 0.371096 0.462371 -0.161625
C92   C     C_2   0.195243 0.382400 0.535504 -0.161744
Cr1   Cr    Cr6+3 0.113970 0.508630 0.747920 1.014441
Cr2   Cr    Cr6+3 0.886030 0.508630 0.252080 1.011261
Cr3   Cr    Cr6+3 0.613970 0.008630 0.747920 1.010701
Cr4   Cr    Cr6+3 0.386030 0.008630 0.252080 1.017015
Cr5   Cr    Cr6+3 0.269200 0.666740 0.749850 1.006064
Cr6   Cr    Cr6+3 0.730800 0.666740 0.250150 1.008560
Cr7   Cr    Cr6+3 0.769200 0.166740 0.749850 1.011025
Cr8   Cr    Cr6+3 0.230800 0.166740 0.250150 0.999745
Cr9   Cr    Cr6+3 0.112300 0.820070 0.749800 1.011382
Cr10  Cr    Cr6+3 0.887700 0.820070 0.250200 1.017302
Cr11  Cr    Cr6+3 0.612300 0.320070 0.749800 1.019388
Cr12  Cr    Cr6+3 0.387700 0.320070 0.250200 1.009836
H1    H     H_    0.370818 0.927355 0.452908 0.170780
H2    H     H_    0.648542 0.854601 0.560358 0.172307
H3    H     H_    0.853094 0.359618 0.440639 0.172602
H4    H     H_    0.142256 0.377235 0.556858 0.170650
H5    H     H_    0.160332 0.027593 0.933831 0.160209
H6    H     H_    0.830560 0.045196 0.069119 0.156047
H7    H     H_    0.674572 0.562461 0.923444 0.152481
H8    H     H_    0.370537 0.390623 0.048442 0.163436
H9    H     H_    0.274209 0.844109 0.057557 0.093547
H10   H     H_    0.725620 0.850909 0.945559 0.084121
H11   H     H_    0.795344 0.401834 0.050368 0.099630
H12   H     H_    0.212158 0.339866 0.935979 0.100497
H13   H     H_    0.301036 0.886835 0.942277 0.101771
H14   H     H_    0.695932 0.889634 0.060441 0.092722
H15   H     H_    0.807060 0.400937 0.935791 0.092973
H16   H     H_    0.207183 0.399284 0.051019 0.085900
H17   H     H_    0.029162 0.765737 0.076479 0.103944
H18   H     H_    0.951965 0.646581 0.935288 0.076690
H19   H     H_    0.558399 0.171026 0.076050 0.080899
H20   H     H_    0.455529 0.247392 0.917293 0.085456
H21   H     H_    0.338269 0.816417 0.567781 0.147825
H22   H     H_    0.685369 0.763715 0.441078 0.154867
H23   H     H_    0.817380 0.267832 0.560098 0.155292
H24   H     H_    0.173288 0.284179 0.436935 0.146348
H25   H     H_    0.209987 0.967692 0.455170 0.118208
H26   H     H_    0.806276 0.918926 0.556900 0.112245
H27   H     H_    0.694276 0.417515 0.443326 0.112018
H28   H     H_    0.303454 0.415606 0.555235 0.115359
H29   H     H_    0.062639 0.062932 0.427313 0.105731
H30   H     H_    0.030670 0.082394 0.554423 0.106081
H31   H     H_    0.471979 0.582742 0.443879 0.109840
H32   H     H_    0.439705 0.563663 0.570932 0.107730
H33   H     H_    0.049692 0.869327 0.366370 0.128147
H34   H     H_    0.990204 0.906324 0.621039 0.131024
H35   H     H_    0.511520 0.405823 0.377497 0.132736
H36   H     H_    0.451540 0.369708 0.632146 0.122305
H37   H     H_    0.043211 0.423772 0.386402 0.133403
H38   H     H_    0.935051 0.456529 0.623846 0.128237
H39   H     H_    0.566784 0.958007 0.374505 0.130132
H40   H     H_    0.460825 0.921739 0.612706 0.133851
H41   H     H_    0.950674 0.257293 0.568236 0.103793
H42   H     H_    0.007799 0.241521 0.450698 0.105155
H43   H     H_    0.497235 0.740764 0.548262 0.106083
H44   H     H_    0.552825 0.758112 0.430078 0.105354
H45   H     H_    0.192492 0.089038 0.052694 0.161351
H46   H     H_    0.791464 0.108888 0.949833 0.156735
H47   H     H_    0.711874 0.641946 0.040586 0.134657
H48   H     H_    0.355838 0.469216 0.927749 0.156800
O1    O     O_R   0.043230 0.549300 0.667990 -0.516742
O2    O     O_R   0.956770 0.549300 0.332010 -0.522653
O3    O     O_R   0.543230 0.049300 0.667990 -0.523602
O4    O     O_R   0.456770 0.049300 0.332010 -0.525657
O5    O     O_R   0.262920 0.788600 0.824420 -0.504679
O6    O     O_R   0.737080 0.788600 0.175580 -0.522489
O7    O     O_R   0.762920 0.288600 0.824420 -0.507019
O8    O     O_R   0.237080 0.288600 0.175580 -0.506099
O9    O     O_R   0.167530 0.905110 0.830340 -0.517932
O10   O     O_R   0.832470 0.905110 0.169660 -0.510734
O11   O     O_R   0.667530 0.405110 0.830340 -0.512057
O12   O     O_R   0.332470 0.405110 0.169660 -0.510153
O13   O     O_R   0.054010 0.748440 0.822860 -0.499966
O14   O     O_R   0.945990 0.748440 0.177140 -0.505089
O15   O     O_R   0.554010 0.248440 0.822860 -0.502971
O16   O     O_R   0.445990 0.248440 0.177140 -0.504210
O17   O     O_3   0.165160 0.665150 0.749190 -0.247223
O18   O     O_3   0.834840 0.665150 0.250810 -0.263789
O19   O     O_3   0.665160 0.165150 0.749190 -0.242787
O20   O     O_3   0.334840 0.165150 0.250810 -0.263548
O21   O     O_R   0.178620 0.457600 0.674100 -0.492891
O22   O     O_R   0.821380 0.457600 0.325900 -0.487548
O23   O     O_R   0.678620 0.957600 0.674100 -0.491581
O24   O     O_R   0.321380 0.957600 0.325900 -0.485714
O25   O     O_R   0.284680 0.542100 0.669460 -0.523077
O26   O     O_R   0.715320 0.542100 0.330540 -0.521004
O27   O     O_R   0.784680 0.042100 0.669460 -0.523907
O28   O     O_R   0.215320 0.042100 0.330540 -0.525032
O29   O     O_R   0.262860 0.790390 0.676650 -0.498637
O30   O     O_R   0.737140 0.790390 0.323350 -0.503195
O31   O     O_R   0.762860 0.290390 0.676650 -0.503316
O32   O     O_R   0.237140 0.290390 0.323350 -0.512982
O33   O     O_R   0.167460 0.907030 0.670940 -0.512561
O34   O     O_R   0.832540 0.907030 0.329060 -0.505996
O35   O     O_R   0.667460 0.407030 0.670940 -0.508805
O36   O     O_R   0.332540 0.407030 0.329060 -0.506859
O37   O     O_R   0.053950 0.750220 0.675100 -0.503852
O38   O     O_R   0.946050 0.750220 0.324900 -0.495578
O39   O     O_R   0.553950 0.250220 0.675100 -0.497973
O40   O     O_R   0.446050 0.250220 0.324900 -0.506540
O41   O     O_R   0.043300 0.547370 0.827390 -0.511605
O42   O     O_R   0.956700 0.547370 0.172610 -0.524274
O43   O     O_R   0.543300 0.047370 0.827390 -0.519855
O44   O     O_R   0.456700 0.047370 0.172610 -0.509800
O45   O     O_R   0.178690 0.455820 0.821860 -0.502096
O46   O     O_R   0.821310 0.455820 0.178140 -0.502385
O47   O     O_R   0.678690 0.955820 0.821860 -0.503036
O48   O     O_R   0.321310 0.955820 0.178140 -0.493331
O49   O     O_R   0.284750 0.540170 0.828860 -0.516949
O50   O     O_R   0.715250 0.540170 0.171140 -0.503351
O51   O     O_R   0.784750 0.040170 0.828860 -0.514044
O52   O     O_R   0.215250 0.040170 0.171140 -0.514399
C93   C     C_3   0.017718 0.452022 0.051013 -0.362085
H49   H     H_    0.037237 0.399991 0.004546 0.124248
H50   H     H_    0.045394 0.417131 0.099107 0.148696
H51   H     H_    0.960099 0.435949 0.055106 0.148897
C94   C     C_3   0.135529 0.639136 0.963226 -0.337653
H52   H     H_    0.157364 0.704809 0.002287 0.121079
H53   H     H_    0.160026 0.549551 0.973086 0.124817
H54   H     H_    0.150521 0.670340 0.909488 0.172882
C95   C     C_3   0.381496 0.103812 0.034450 -0.345266
H55   H     H_    0.354893 0.147030 0.988115 0.124154
H56   H     H_    0.371454 0.004930 0.032688 0.143163
H57   H     H_    0.358036 0.143143 0.083059 0.164087
C96   C     C_3   0.539969 0.974694 0.966068 -0.357571
H58   H     H_    0.540277 0.931090 0.019395 0.121910
H59   H     H_    0.519858 0.906368 0.927670 0.155452
H60   H     H_    0.595134 0.999762 0.953361 0.149972
H61   H     H_    0.226096 0.019489 0.568772 0.110154
H62   H     H_    0.776041 0.996685 0.444173 0.111055
H63   H     H_    0.723196 0.497097 0.555749 0.110411
H64   H     H_    0.278946 0.497131 0.443413 0.117716

loop_
_geom_bond_atom_site_label_1
_geom_bond_atom_site_label_2
_ccdc_geom_bond_type
Cr10  O18   S    
C7    C83   D    
C15   C19   A    
C69   O49   A    
C6    C82   D    
C87   C91   D    
Cr8   O20   S    
Cr8   O52   S    
C14   C18   A    
C35   C36   A    
C30   C34   A    
C45   O33   A    
C45   C81   S    
Cr5   O17   S    
C57   C62   D    
C93   H49   S    
C11   C68   S    
C96   H60   S    
C71   O51   A    
C12   C23   A    
Cr1   O17   S    
C59   C64   D    
C50   C54   S    
C30   H37   S    
C4    O24   A    
C64   C96   S    
C60   C63   D    
C32   C36   A    
C14   C21   A    
C67   O3    A    
C48   O36   A    
Cr7   O7    S    
C67   O39   A    
C9    C22   A    
C95   H57   S    
Cr7   O19   S    
C68   O40   A    
C19   H31   S    
Cr12  O40   S    
C73   O5    A    
C11   C24   A    
C94   H54   S    
C79   O43   A    
C54   H6    S    
C75   O11   A    
C78   O42   A    
C87   H27   S    
C31   H40   S    
Cr3   O23   S    
C9    C66   S    
C32   H39   S    
C65   O1    A    
C85   H25   S    
C57   H18   S    
C46   C82   S    
C1    O25   A    
C36   H44   S    
C39   C55   D    
C14   H34   S    
C29   C33   A    
C40   C56   D    
C17   C18   A    
Cr6   O6    S    
C73   O9    A    
C23   C24   A    
Cr9   O17   S    
C8    C92   S    
C39   C75   S    
Cr6   O26   S    
C92   H4    S    
Cr7   O31   S    
C61   C62   S    
C52   H48   S    
C72   O52   A    
Cr12  O20   S    
C83   H63   S    
C44   C52   D    
C1    C88   S    
C95   H56   S    
C51   H47   S    
C70   O46   A    
C8    C84   D    
C21   C22   A    
C3    C86   S    
C69   O45   A    
C16   H36   S    
C4    O28   A    
Cr9   O33   S    
C1    O21   A    
C41   C49   D    
Cr1   O21   S    
C8    H24   S    
C9    C26   A    
C33   C34   A    
C15   H35   S    
Cr2   O22   S    
C93   H50   S    
C10   C21   A    
C25   C29   A    
C80   O44   A    
C12   C67   S    
Cr12  O36   S    
C78   O14   A    
C42   H10   S    
C74   O6    A    
C12   C27   A    
C45   O29   A    
Cr5   O29   S    
C88   C92   D    
C28   C32   A    
Cr11  O35   S    
C90   H2    S    
C47   O31   A    
C86   C90   D    
C59   C79   S    
C74   O10   A    
C85   C89   D    
C86   H26   S    
C35   H43   S    
C4    C85   S    
C51   C55   S    
C96   H58   S    
C95   H55   S    
C27   C31   A    
C70   O50   A    
C63   C95   S    
C3    O27   A    
C43   H11   S    
Cr2   O46   S    
C88   H28   S    
Cr5   O5    S    
Cr6   O30   S    
C60   H19   S    
Cr1   O45   S    
Cr7   O27   S    
C94   H53   S    
C57   C77   S    
C72   O48   A    
C48   C84   S    
C50   H46   S    
Cr5   O25   S    
C38   C54   D    
C16   C20   A    
C7    C91   S    
C94   H52   S    
C2    C87   S    
Cr10  O34   S    
Cr11  O15   S    
C46   O34   A    
Cr9   O13   S    
C20   H32   S    
C6    H22   S    
Cr10  O14   S    
C33   H41   S    
C42   C50   D    
C41   C72   S    
C10   C25   A    
C3    O23   A    
C15   C24   A    
C40   H16   S    
C65   O37   A    
C26   C30   A    
C16   C23   A    
C47   C83   S    
Cr7   O51   S    
C17   H29   S    
C31   C35   A    
C76   O12   A    
Cr11  O39   S    
C66   O2    A    
C47   O35   A    
Cr8   O28   S    
C5    C81   D    
Cr10  O10   S    
C48   O32   A    
C38   C74   S    
C10   C65   S    
C75   O7    A    
C59   H20   S    
Cr4   O48   S    
C39   H15   S    
C37   C73   S    
C60   C80   S    
C58   H17   S    
Cr3   O43   S    
Cr4   O24   S    
C55   H7    S    
C77   O41   A    
Cr2   O42   S    
Cr11  O11   S    
Cr6   O50   S    
Cr1   O41   S    
C41   H9    S    
Cr8   O8    S    
C68   O4    A    
Cr12  O12   S    
C13   H33   S    
Cr12  O16   S    
C71   O47   A    
C82   H62   S    
C49   H45   S    
C43   C70   S    
C81   H61   S    
Cr9   O37   S    
C13   C17   A    
C79   O15   A    
C89   H1    S    
C46   O30   A    
C19   C20   A    
Cr9   O9    S    
C25   C26   A    
C37   C53   D    
C6    C90   S    
C2    O22   A    
C84   H64   S    
Cr2   O2    S    
C34   H42   S    
Cr11  O19   S    
C43   C51   D    
Cr4   O4    S    
C76   O8    A    
Cr3   O19   S    
C11   C28   A    
C58   C61   D    
C49   C53   S    
C29   H38   S    
C66   O38   A    
Cr1   O1    S    
C42   C71   S    
Cr10  O38   S    
C62   C94   S    
C56   H8    S    
C13   C22   A    
C18   H30   S    
Cr3   O3    S    
C96   H59   S    
Cr8   O32   S    
C5    C89   S    
C58   C78   S    
C63   C64   S    
Cr6   O18   S    
C40   C76   S    
Cr4   O44   S    
C37   H13   S    
C44   H12   S    
Cr3   O47   S    
Cr5   O49   S    
Cr4   O20   S    
C5    H21   S    
C27   C28   A    
C44   C69   S    
C38   H14   S    
C53   H5    S    
C93   H51   S    
C2    O26   A    
C7    H23   S    
C77   O13   A    
C80   O16   A    
Cr2   O18   S    
C52   C56   S    
C61   C93   S    
C91   H3    S    
