data_mof_unit_32666.cif
_audit_creation_date              2012-12-10T16:37:40-0500
_audit_creation_method            fapswitch 2.2
_symmetry_space_group_name_H-M    P1
_symmetry_Int_Tables_number       1
_space_group_crystal_system       triclinic
_cell_length_a                    10.916716
_cell_length_b                    10.830313
_cell_length_c                    15.479059
_cell_angle_alpha                 96.05291
_cell_angle_beta                  74.879088
_cell_angle_gamma                 98.76747
_cell_volume                      1741.96124852

loop_
_atom_site_label
_atom_site_type_symbol
_atom_type_description
_atom_site_fract_x
_atom_site_fract_y
_atom_site_fract_z
_atom_type_partial_charge
C1    C     C_R   0.159644 0.478775 0.519711 0.524161
C2    C     C_R   0.492285 0.476492 0.122430 -0.016303
C3    C     C_R   0.655655 0.339172 0.112022 0.009908
C4    C     C_R   0.842456 0.521046 0.480414 0.510146
C5    C     C_R   0.428736 0.580181 0.838601 0.016735
C6    C     C_2   0.979973 0.528769 0.473798 -0.004586
C7    C     C_2   0.024151 0.467025 0.530069 0.025841
C8    C     C_2   0.529993 0.964555 0.459961 -0.012359
C9    C     C_2   0.462771 0.035161 0.526853 -0.094730
C10   C     C_R   0.467718 0.167747 0.521410 0.505412
C11   C     C_R   0.527307 0.832970 0.476898 0.522494
C12   C     C_R   0.440828 0.747577 0.954124 -0.141463
C13   C     C_R   0.555469 0.444574 0.258822 0.494853
C14   C     C_R   0.444376 0.552004 0.741760 0.508087
C15   C     C_R   0.641749 0.291039 0.025060 0.021108
C16   C     C_R   0.572073 0.423577 0.162198 0.044872
C17   C     C_R   0.417212 0.704834 0.871627 -0.115566
C18   C     C_3   0.755001 0.300322 0.153936 -0.272028
C19   C     C_3   0.871397 0.400546 0.145019 -0.435284
C20   C     C_3   0.940542 0.384928 0.604106 -0.269524
C21   C     C_3   0.013234 0.325639 0.658085 -0.433556
C22   C     C_3   0.603416 0.022168 0.371388 -0.277133
C23   C     C_R   0.475412 0.666589 0.004713 -0.127610
C24   C     C_3   0.666485 0.933634 0.294674 -0.415363
C25   C     C_1   0.513914 0.159585 0.879961 0.188986
C26   C     C_3   0.728015 0.197412 0.970485 -0.257955
C27   C     C_3   0.678641 0.062859 0.997229 -0.416613
C28   C     C_3   0.369044 0.523555 0.180283 -0.269303
C29   C     C_3   0.258769 0.416222 0.193190 -0.419238
C30   C     C_1   0.371497 0.300775 0.809739 0.227666
C31   C     C_3   0.070076 0.610350 0.402654 -0.285364
C32   C     C_3   0.085718 0.747042 0.438508 -0.425916
C33   C     C_R   0.474005 0.537724 0.977973 0.021856
C34   C     C_R   0.449598 0.493001 0.894235 -0.004477
C35   C     C_R   0.508521 0.454819 0.029372 0.006136
C36   C     C_R   0.556802 0.343757 0.986725 -0.005742
C37   C     C_R   0.511972 0.290747 0.910514 -0.032245
C38   C     C_R   0.448183 0.362936 0.869669 -0.019839
H1    H     H_    0.415095 0.998523 0.591598 0.130261
H2    H     H_    0.078110 0.262768 0.613538 0.169786
H3    H     H_    0.069378 0.399225 0.692901 0.168339
H4    H     H_    0.943770 0.269027 0.709657 0.137164
H5    H     H_    0.875012 0.442807 0.653251 0.177067
H6    H     H_    0.884107 0.306440 0.573418 0.172709
H7    H     H_    0.749081 0.899977 0.310015 0.182481
H8    H     H_    0.595821 0.853573 0.280990 0.164142
H9    H     H_    0.703742 0.985189 0.232816 0.110053
H10   H     H_    0.535545 0.065816 0.345500 0.162487
H11   H     H_    0.678504 0.097734 0.385079 0.136301
H12   H     H_    0.400282 0.772190 0.830415 0.159028
H13   H     H_    0.705077 0.044037 0.058473 0.123364
H14   H     H_    0.572890 0.044255 0.010537 0.167454
H15   H     H_    0.720990 0.995751 0.942250 0.156808
H16   H     H_    0.738981 0.202078 0.897641 0.151843
H17   H     H_    0.827651 0.223340 0.977087 0.137395
H18   H     H_    0.241681 0.378139 0.127224 0.150374
H19   H     H_    0.280210 0.339689 0.227023 0.186239
H20   H     H_    0.169838 0.450695 0.234782 0.119415
H21   H     H_    0.380520 0.565417 0.246739 0.138478
H22   H     H_    0.338012 0.598147 0.150890 0.137698
H23   H     H_    0.505950 0.706035 0.064121 0.107379
H24   H     H_    0.991733 0.783266 0.458168 0.166039
H25   H     H_    0.127126 0.756605 0.497594 0.175408
H26   H     H_    0.151165 0.804347 0.385598 0.132144
H27   H     H_    0.165891 0.578568 0.378582 0.135831
H28   H     H_    0.032035 0.603810 0.342133 0.154178
H29   H     H_    0.438972 0.845409 0.976753 0.132768
H30   H     H_    0.918018 0.413535 0.073096 0.148675
H31   H     H_    0.843365 0.491273 0.178644 0.179824
H32   H     H_    0.941651 0.371136 0.176690 0.129435
H33   H     H_    0.713307 0.283244 0.225826 0.136451
H34   H     H_    0.789228 0.211164 0.123943 0.139087
N1    N     N_1   0.514308 0.055271 0.854277 -0.334251
N2    N     N_1   0.310235 0.251036 0.762278 -0.316202
O1    O     O_3   0.500000 0.500000 0.500000 -0.431976
O2    O     O_R   0.463530 0.379110 0.309170 -0.553821
O3    O     O_R   0.388210 0.611730 0.699360 -0.545208
O4    O     O_R   0.624720 0.532760 0.292120 -0.557271
O5    O     O_R   0.523540 0.476390 0.699360 -0.531000
O6    O     O_R   0.537910 0.240570 0.564270 -0.525098
O7    O     O_R   0.438950 0.782540 0.540270 -0.550115
O8    O     O_R   0.222350 0.398740 0.468260 -0.549387
O9    O     O_R   0.800790 0.578160 0.427210 -0.544832
O10   O     O_R   0.212140 0.566330 0.564260 -0.543733
O11   O     O_R   0.764730 0.456770 0.540270 -0.565873
O12   O     O_R   0.412790 0.208310 0.468260 -0.547412
O13   O     O_R   0.610350 0.768590 0.427210 -0.544312
Zn1   Zn    Zn3+2 0.580150 0.419820 0.574680 0.939839
Zn2   Zn    Zn3+2 0.401380 0.373730 0.437510 0.910124
Zn3   Zn    Zn3+2 0.631680 0.593260 0.413140 0.904896
Zn4   Zn    Zn3+2 0.386790 0.613180 0.574670 0.933459

loop_
_geom_bond_atom_site_label_1
_geom_bond_atom_site_label_2
_ccdc_geom_bond_type
C2    C35   A    
C31   H28   S    
C22   H10   S    
C35   C36   A    
C26   H17   S    
O4    Zn3   S    
C1    O10   A    
C4    O9    A    
C12   C23   A    
C28   C29   S    
C26   C27   S    
O8    Zn2   S    
C24   H7    S    
C36   C37   A    
C30   N2    T    
O11   Zn1   S    
C5    C17   A    
C9    H1    S    
C30   C38   S    
C3    C18   S    
C18   C19   S    
C14   O3    A    
O1    Zn3   S    
C25   C37   S    
O13   Zn3   S    
O3    Zn4   S    
C11   O13   A    
C8    C9    D    
C23   C33   A    
C12   C17   A    
C8    C22   S    
O10   Zn4   S    
C2    C16   A    
C9    C10   S    
O1    Zn4   S    
O2    Zn2   S    
C6    C31   S    
C34   C38   A    
C26   H16   S    
O5    Zn1   S    
C20   H6    S    
C27   H13   S    
C28   H22   S    
C18   H34   S    
C12   H29   S    
C32   H26   S    
C4    C6    S    
C10   O6    A    
C15   C26   S    
C4    O11   A    
C1    O8    A    
C11   O7    A    
C37   C38   A    
C31   C32   S    
C13   O2    A    
C5    C34   A    
C33   C34   A    
C19   H30   S    
C14   O5    A    
C29   H20   S    
C5    C14   S    
C22   H11   S    
C21   H3    S    
C29   H19   S    
C22   C24   S    
C19   H31   S    
C15   C36   A    
C20   H5    S    
C3    C15   A    
C27   H14   S    
C28   H21   S    
C18   H33   S    
C31   H27   S    
O9    Zn3   S    
C13   O4    A    
C10   O12   A    
C1    C7    S    
C24   H9    S    
C32   H25   S    
O12   Zn2   S    
C17   H12   S    
C27   H15   S    
C6    C7    D    
C29   H18   S    
C24   H8    S    
C32   H24   S    
O6    Zn1   S    
C21   H2    S    
C8    C11   S    
C33   C35   A    
C25   N1    T    
O1    Zn2   S    
C21   H4    S    
O7    Zn4   S    
O1    Zn1   S    
C23   H23   S    
C20   C21   S    
C7    C20   S    
C13   C16   S    
C19   H32   S    
C2    C28   S    
C3    C16   A    
