data_mof_unit_13131.cif
_audit_creation_date              2012-12-10T17:22:54-0500
_audit_creation_method            fapswitch 2.2
_symmetry_space_group_name_H-M    P1
_symmetry_Int_Tables_number       1
_space_group_crystal_system       triclinic
_cell_length_a                    10.314432
_cell_length_b                    10.520166
_cell_length_c                    10.497545
_cell_angle_alpha                 92.01161
_cell_angle_beta                  91.125678
_cell_angle_gamma                 83.846176
_cell_volume                      1131.67744547

loop_
_atom_site_label
_atom_site_type_symbol
_atom_type_description
_atom_site_fract_x
_atom_site_fract_y
_atom_site_fract_z
_atom_type_partial_charge
C1    C     C_R   0.448927 0.500930 0.266214 0.978894
C2    C     C_R   0.549791 0.486786 0.733668 0.978348
C3    C     C_R   0.497513 0.257923 0.499378 0.922934
C4    C     C_R   0.503202 0.741764 0.506403 0.898841
C5    C     C_3   0.588694 0.030934 0.424283 -0.285705
C6    C     C_3   0.411672 0.968464 0.590158 -0.285747
C7    C     C_3   0.473889 0.952239 0.389566 -0.298847
C8    C     C_3   0.526761 0.047756 0.624868 -0.309027
C9    C     C_3   0.505892 0.876519 0.509863 -0.126521
C10   C     C_3   0.494758 0.123267 0.503831 -0.119035
C11   C     C_3   0.618401 0.953832 0.544355 0.480715
C12   C     C_3   0.382017 0.045739 0.469777 0.485105
C13   C     C_2   0.427612 0.490953 0.130193 -0.401966
C14   C     C_2   0.562752 0.457261 0.867322 -0.437157
C15   C     C_2   0.475475 0.387373 0.060792 0.407540
C16   C     C_2   0.467031 0.401170 0.921830 0.333686
C17   C     C_2   0.072499 0.487465 0.493319 0.028920
C18   C     C_2   0.927033 0.507754 0.513696 0.063975
H1    H     H_    0.449917 0.908298 0.295550 0.171980
H2    H     H_    0.549287 0.089975 0.720116 0.174429
H3    H     H_    0.664343 0.059181 0.360849 0.177124
H4    H     H_    0.338701 0.939957 0.657046 0.203395
H5    H     H_    0.645908 0.485417 0.922532 0.158290
H6    H     H_    0.377643 0.573917 0.084203 0.113924
H7    H     H_    0.887796 0.574924 0.586648 0.214695
H8    H     H_    0.111774 0.414839 0.425293 0.219649
N1    N     N_2   0.157310 0.552180 0.551120 0.028457
N2    N     N_2   0.842690 0.447820 0.448880 0.011784
O1    O     O_R   0.568940 0.489500 0.307530 -0.557270
O2    O     O_R   0.431060 0.510500 0.692470 -0.510107
O3    O     O_R   0.348880 0.522990 0.340350 -0.618188
O4    O     O_R   0.651120 0.477010 0.659650 -0.635084
O5    O     O_R   0.610000 0.297210 0.483560 -0.645056
O6    O     O_R   0.390000 0.702790 0.516440 -0.588689
O7    O     O_R   0.389940 0.330700 0.516390 -0.584390
O8    O     O_R   0.610060 0.669300 0.483610 -0.587659
Zn1   Zn    Zn3+2 0.646930 0.477640 0.478080 1.065490
Zn2   Zn    Zn3+2 0.353070 0.522360 0.521920 1.099923
S1    S     S_3+6 0.777943 0.892431 0.589382 0.063187
O9    O     O_2   0.771825 0.803954 0.697873 -0.267012
O10   O     O_2   0.841061 0.820288 0.476745 -0.265797
O11   O     O_3   0.864094 0.013575 0.635206 -0.505170
H9    H     H_    0.863731 0.067484 0.559661 0.378395
S2    S     S_3+6 0.223889 0.105217 0.417822 0.068420
O12   O     O_2   0.153366 0.176725 0.526646 -0.322929
O13   O     O_2   0.235186 0.193499 0.310028 -0.253832
O14   O     O_3   0.141560 0.983079 0.366896 -0.473628
H10   H     H_    0.144887 0.925385 0.439736 0.383610
O15   O     O_3   0.373604 0.345510 0.846147 -0.634527
C19   C     C_3   0.255803 0.340022 0.911324 0.090165
H11   H     H_    0.216114 0.437550 0.945928 0.192113
H12   H     H_    0.270936 0.274978 0.992925 0.167142
C20   C     C_3   0.156546 0.287090 0.819582 -0.279468
H13   H     H_    0.142737 0.348165 0.735209 0.264789
H14   H     H_    0.194385 0.188735 0.786643 0.241771
C21   C     C_3   0.025139 0.282917 0.882915 -0.787624
H15   H     H_    0.036164 0.220183 0.966249 0.285782
H16   H     H_    0.955548 0.244226 0.813470 0.273363
H17   H     H_    0.984433 0.380571 0.914998 0.291522
O16   O     O_3   0.524803 0.273197 0.118025 -0.625662
C22   C     C_3   0.572307 0.178120 0.025755 0.113270
H18   H     H_    0.651404 0.212389 0.969430 0.166109
H19   H     H_    0.491413 0.152992 0.961163 0.159546
C23   C     C_3   0.628424 0.055753 0.089190 -0.401102
H20   H     H_    0.715219 0.074313 0.148107 0.249113
H21   H     H_    0.553151 0.023152 0.150252 0.238661
C24   C     C_3   0.669465 0.950004 0.990123 -0.805164
H22   H     H_    0.584190 0.926851 0.930777 0.251683
H23   H     H_    0.710362 0.862410 0.039116 0.282106
H24   H     H_    0.745241 0.980312 0.927387 0.301192
S3    S     S_3+6 0.889355 0.360476 0.311075 0.122882
O17   O     O_2   0.975663 0.432106 0.232219 -0.282081
O18   O     O_2   0.960428 0.234489 0.345676 -0.218640
O19   O     O_3   0.759624 0.330705 0.221768 -0.490422
H25   H     H_    0.720924 0.264146 0.268023 0.371756
S4    S     S_3+6 0.116201 0.656908 0.678706 0.124201
O20   O     O_2   0.054284 0.780872 0.628916 -0.197237
O21   O     O_2   0.025171 0.602327 0.767172 -0.329903
O22   O     O_3   0.250369 0.687990 0.762144 -0.532697
H26   H     H_    0.218891 0.751353 0.829583 0.364467

loop_
_geom_bond_atom_site_label_1
_geom_bond_atom_site_label_2
_ccdc_geom_bond_type
C4    O8    A    
C15   O16   S    
S4    O22   S    
C6    C9    S    
S1    O10   D    
C20   H13   S    
C8    H2    S    
C17   H8    S    
O8    Zn1   S    
S4    O21   D    
C5    C11   S    
C6    C12   S    
C3    O5    A    
N1    Zn2   S    
C15   C16   S    
C6    H4    S    
C1    O3    A    
C21   H15   S    
O2    Zn2   S    
C2    O4    A    
C22   H19   S    
C19   H12   S    
S2    O14   S    
C18   H7    S    
S2    O13   D    
C19   H11   S    
S1    O11   S    
C20   H14   S    
C7    C12   S    
C4    O6    A    
C19   C20   S    
O19   H25   S    
C24   H22   S    
C17   N1    D    
C23   C24   S    
O7    Zn2   S    
C18   N2    D    
C16   O15   S    
S1    O9    D    
C5    C7    S    
C6    C8    S    
O5    Zn1   S    
C13   H6    S    
O16   C22   S    
C24   H23   S    
C23   H21   S    
C14   H5    S    
C22   C23   S    
O14   H10   S    
C3    O7    A    
C1    O1    A    
C17   C18   S    
O4    Zn1   S    
S4    O20   D    
C11   S1    S    
C9    C11   S    
C10   C12   S    
C7    H1    S    
C13   C15   D    
C14   C16   D    
N2    S3    S    
C1    C13   S    
O11   H9    S    
N1    S4    S    
S2    O12   D    
S3    O18   D    
C20   C21   S    
C7    C9    S    
O6    Zn2   S    
S3    O19   S    
C21   H17   S    
O3    Zn2   S    
C2    O2    A    
C24   H24   S    
C23   H20   S    
S3    O17   D    
C12   S2    S    
C3    C10   S    
N2    Zn1   S    
C8    C11   S    
C21   H16   S    
C22   H18   S    
C2    C14   S    
O22   H26   S    
C5    C10   S    
C5    H3    S    
C8    C10   S    
O15   C19   S    
O1    Zn1   S    
C4    C9    S    
