data_mof_unit_33033.cif
_audit_creation_date              2012-12-11T15:07:07-0500
_audit_creation_method            fapswitch 2.2
_symmetry_space_group_name_H-M    P1
_symmetry_Int_Tables_number       1
_space_group_crystal_system       triclinic
_cell_length_a                    19.678819
_cell_length_b                    11.433758
_cell_length_c                    18.715638
_cell_angle_alpha                 89.999185
_cell_angle_beta                  89.685454
_cell_angle_gamma                 90.000683
_cell_volume                      4211.00850917

loop_
_atom_site_label
_atom_site_type_symbol
_atom_type_description
_atom_site_fract_x
_atom_site_fract_y
_atom_site_fract_z
_atom_type_partial_charge
C1    C     C_R   0.761520 0.520491 0.638124 0.549032
C2    C     C_R   0.238480 0.520494 0.361873 0.549025
C3    C     C_R   0.261520 0.020491 0.638124 0.549032
C4    C     C_R   0.738480 0.020494 0.361873 0.549025
C5    C     C_3   0.816155 0.117417 0.449788 -0.248930
C6    C     C_3   0.183850 0.117420 0.550202 -0.248933
C7    C     C_3   0.316155 0.617417 0.449788 -0.248930
C8    C     C_3   0.683850 0.617420 0.550202 -0.248933
C9    C     C_3   0.749826 0.050844 0.438328 0.016359
C10   C     C_3   0.250172 0.050837 0.561666 0.016427
C11   C     C_3   0.249826 0.550844 0.438328 0.016359
C12   C     C_3   0.750172 0.550837 0.561666 0.016427
C13   C     C_3   0.765993 0.085606 0.575598 0.038899
C14   C     C_3   0.234013 0.085590 0.424395 0.038959
C15   C     C_3   0.265993 0.585606 0.575598 0.038899
C16   C     C_3   0.734013 0.585590 0.424395 0.038959
C17   C     C_3   0.779692 0.954420 0.560879 0.136364
C18   C     C_3   0.220308 0.954408 0.439117 0.136400
C19   C     C_3   0.279692 0.454420 0.560879 0.136364
C20   C     C_3   0.720308 0.454408 0.439117 0.136400
C21   C     C_3   0.817907 0.153512 0.529179 -0.211406
C22   C     C_3   0.182104 0.153505 0.470808 -0.211410
C23   C     C_3   0.317907 0.653512 0.529179 -0.211406
C24   C     C_3   0.682104 0.653505 0.470808 -0.211410
C25   C     C_3   0.996859 0.209516 0.459108 -0.230080
C26   C     C_3   0.003134 0.209518 0.540898 -0.230062
C27   C     C_3   0.496859 0.709516 0.459108 -0.230080
C28   C     C_3   0.503134 0.709518 0.540898 -0.230062
C29   C     C_3   0.066301 0.398278 0.472199 -0.218212
C30   C     C_3   0.933734 0.398346 0.527810 -0.218067
C31   C     C_3   0.566301 0.898278 0.472199 -0.218212
C32   C     C_3   0.433734 0.898346 0.527810 -0.218067
C33   C     C_3   0.943811 0.401340 0.446389 -0.261841
C34   C     C_3   0.056209 0.401340 0.553613 -0.261916
C35   C     C_3   0.443811 0.901340 0.446389 -0.261841
C36   C     C_3   0.556209 0.901340 0.553613 -0.261916
C37   C     C_3   0.008711 0.334950 0.430429 0.046373
C38   C     C_3   0.991303 0.334961 0.569576 0.046379
C39   C     C_3   0.508711 0.834950 0.430429 0.046373
C40   C     C_3   0.491303 0.834961 0.569576 0.046379
C41   C     C_3   0.819368 0.026424 0.046209 -0.235419
C42   C     C_3   0.180631 0.026437 0.953788 -0.235436
C43   C     C_3   0.319368 0.526424 0.046209 -0.235419
C44   C     C_3   0.680631 0.526437 0.953788 -0.235436
C45   C     C_R   0.775115 0.120166 0.650198 0.532460
C46   C     C_R   0.224889 0.120156 0.349796 0.532481
C47   C     C_R   0.275115 0.620166 0.650198 0.532460
C48   C     C_R   0.724889 0.620156 0.349796 0.532481
C49   C     C_3   0.818580 0.023262 0.965522 -0.232485
C50   C     C_3   0.181420 0.023275 0.034475 -0.232496
C51   C     C_3   0.318580 0.523262 0.965522 -0.232485
C52   C     C_3   0.681420 0.523275 0.034475 -0.232496
C53   C     C_3   0.691434 0.015740 0.032227 -0.225881
C54   C     C_3   0.308563 0.015752 0.967777 -0.225904
C55   C     C_3   0.191434 0.515740 0.032227 -0.225881
C56   C     C_3   0.808563 0.515752 0.967777 -0.225904
C57   C     C_3   0.745021 0.201595 0.061225 -0.251428
C58   C     C_3   0.254986 0.201607 0.938763 -0.251401
C59   C     C_3   0.245021 0.701595 0.061225 -0.251428
C60   C     C_3   0.754986 0.701607 0.938763 -0.251401
C61   C     C_3   0.749381 0.071239 0.075552 0.060217
C62   C     C_3   0.250621 0.071249 0.924442 0.060224
C63   C     C_3   0.249381 0.571239 0.075552 0.060217
C64   C     C_3   0.750621 0.571249 0.924442 0.060224
C65   C     C_3   0.760608 0.103915 0.936188 0.060860
C66   C     C_3   0.239386 0.103941 0.063806 0.060858
C67   C     C_3   0.260608 0.603915 0.936188 0.060860
C68   C     C_3   0.739386 0.603941 0.063806 0.060858
C69   C     C_3   0.693780 0.042218 0.951028 -0.252798
C70   C     C_3   0.306224 0.042268 0.048969 -0.252789
C71   C     C_3   0.193780 0.542218 0.951028 -0.252798
C72   C     C_3   0.806224 0.542268 0.048969 -0.252789
C73   C     C_3   0.757923 0.218722 0.980154 -0.232091
C74   C     C_3   0.242060 0.218744 0.019829 -0.232118
C75   C     C_3   0.257923 0.718722 0.980154 -0.232091
C76   C     C_3   0.742060 0.718743 0.019829 -0.232118
C77   C     C_3   0.998841 0.479150 0.040681 -0.235539
C78   C     C_3   0.001156 0.479149 0.959319 -0.235539
C79   C     C_3   0.498841 0.979150 0.040681 -0.235539
C80   C     C_3   0.501156 0.979149 0.959319 -0.235539
C81   C     C_3   0.067882 0.293325 0.024924 -0.231262
C82   C     C_3   0.932102 0.293332 0.975082 -0.231266
C83   C     C_3   0.567882 0.793325 0.024924 -0.231262
C84   C     C_3   0.432102 0.793332 0.975082 -0.231266
C85   C     C_3   0.947569 0.281043 0.055435 -0.252671
C86   C     C_3   0.052419 0.281037 0.944569 -0.252675
C87   C     C_3   0.447569 0.781043 0.055435 -0.252671
C88   C     C_3   0.552419 0.781037 0.944569 -0.252675
C89   C     C_R   0.970510 0.342370 0.645918 0.524059
C90   C     C_R   0.029496 0.342367 0.354086 0.524066
C91   C     C_R   0.470510 0.842370 0.645918 0.524059
C92   C     C_R   0.529496 0.842367 0.354086 0.524066
C93   C     C_3   0.011004 0.352234 0.069363 0.062554
C94   C     C_3   0.988987 0.352234 0.930641 0.062561
C95   C     C_3   0.511004 0.852234 0.069363 0.062554
C96   C     C_3   0.488987 0.852234 0.930641 0.062561
C97   C     C_R   0.759790 0.534918 0.848100 0.536068
C98   C     C_R   0.240209 0.534917 0.151899 0.536065
C99   C     C_R   0.259790 0.034918 0.848100 0.536068
C100  C     C_R   0.740209 0.034917 0.151899 0.536065
C101  C     C_R   0.774149 0.132670 0.858841 0.530202
C102  C     C_R   0.225846 0.132686 0.141153 0.530210
C103  C     C_R   0.274149 0.632670 0.858841 0.530202
C104  C     C_R   0.725846 0.632686 0.141153 0.530210
C105  C     C_R   0.967518 0.353579 0.854206 0.528599
C106  C     C_R   0.032477 0.353578 0.145797 0.528595
C107  C     C_R   0.467518 0.853579 0.854206 0.528599
C108  C     C_R   0.532477 0.853578 0.145797 0.528595
C109  C     C_3   0.692198 0.126409 0.469718 -0.234525
C110  C     C_3   0.307806 0.126383 0.530274 -0.234713
C111  C     C_3   0.192198 0.626409 0.469718 -0.234525
C112  C     C_3   0.807806 0.626383 0.530274 -0.234713
C113  C     C_3   0.692520 0.117408 0.551041 -0.300586
C114  C     C_3   0.307487 0.117387 0.448952 -0.300707
C115  C     C_3   0.192520 0.617408 0.551041 -0.300586
C116  C     C_3   0.807487 0.617387 0.448952 -0.300707
C117  C     C_3   0.756293 0.935740 0.482940 -0.201040
C118  C     C_3   0.243696 0.935734 0.517059 -0.201006
C119  C     C_3   0.256293 0.435740 0.482940 -0.201040
C120  C     C_3   0.743696 0.435734 0.517059 -0.201006
Cr1   Cr    Cr6+3 0.885690 0.492860 0.745310 1.046144
Cr2   Cr    Cr6+3 0.114310 0.492860 0.254690 1.046139
Cr3   Cr    Cr6+3 0.385690 0.992860 0.745310 1.046144
Cr4   Cr    Cr6+3 0.614310 0.992860 0.254690 1.046139
Cr5   Cr    Cr6+3 0.729880 0.332270 0.748190 1.015334
Cr6   Cr    Cr6+3 0.270120 0.332270 0.251810 1.015330
Cr7   Cr    Cr6+3 0.229880 0.832270 0.748190 1.015334
Cr8   Cr    Cr6+3 0.770120 0.832270 0.251810 1.015330
Cr9   Cr    Cr6+3 0.888120 0.178590 0.753010 1.060782
Cr10  Cr    Cr6+3 0.111880 0.178590 0.246990 1.060791
Cr11  Cr    Cr6+3 0.388120 0.678590 0.753010 1.060782
Cr12  Cr    Cr6+3 0.611880 0.678590 0.246990 1.060791
H1    H     H_    0.641827 0.110924 0.447554 0.172834
H2    H     H_    0.358167 0.110853 0.552443 0.172644
H3    H     H_    0.141827 0.610924 0.447554 0.172834
H4    H     H_    0.858167 0.610853 0.552443 0.172644
H5    H     H_    0.868981 0.148196 0.549445 0.179193
H6    H     H_    0.131029 0.148194 0.450541 0.179188
H7    H     H_    0.368981 0.648196 0.549445 0.179193
H8    H     H_    0.631029 0.648194 0.450541 0.179188
H9    H     H_    0.786324 0.868650 0.455145 0.187910
H10   H     H_    0.213664 0.868647 0.544856 0.187925
H11   H     H_    0.286324 0.368650 0.455145 0.187910
H12   H     H_    0.713664 0.368647 0.544856 0.187925
H13   H     H_    0.029408 0.144949 0.434973 0.203359
H14   H     H_    0.970585 0.144957 0.565040 0.203357
H15   H     H_    0.529408 0.644949 0.434973 0.203359
H16   H     H_    0.470585 0.644957 0.565040 0.203357
H17   H     H_    0.945783 0.179713 0.443971 0.121021
H18   H     H_    0.054207 0.179702 0.556032 0.121011
H19   H     H_    0.445783 0.679713 0.443971 0.121021
H20   H     H_    0.554207 0.679702 0.556032 0.121011
H21   H     H_    0.612990 0.854999 0.457077 0.105394
H22   H     H_    0.386994 0.855190 0.543000 0.105433
H23   H     H_    0.112990 0.354999 0.457077 0.105394
H24   H     H_    0.886994 0.355190 0.543000 0.105433
H25   H     H_    0.600454 0.861886 0.581385 0.098236
H26   H     H_    0.399554 0.861863 0.418640 0.098221
H27   H     H_    0.100454 0.361886 0.581385 0.098236
H28   H     H_    0.899554 0.361863 0.418640 0.098221
H29   H     H_    0.949138 0.493341 0.427779 0.141084
H30   H     H_    0.050884 0.493351 0.572187 0.141095
H31   H     H_    0.449138 0.993341 0.427779 0.141084
H32   H     H_    0.550884 0.993351 0.572187 0.141095
H33   H     H_    0.932647 0.489944 0.545146 0.146196
H34   H     H_    0.067506 0.489795 0.454830 0.146263
H35   H     H_    0.432647 0.989944 0.545146 0.146196
H36   H     H_    0.567506 0.989795 0.454830 0.146263
H37   H     H_    0.834232 0.937940 0.064147 0.141137
H38   H     H_    0.165771 0.937949 0.935854 0.141142
H39   H     H_    0.334232 0.437940 0.064147 0.141137
H40   H     H_    0.665771 0.437949 0.935854 0.141142
H41   H     H_    0.705090 0.216579 0.456420 0.206806
H42   H     H_    0.294929 0.216560 0.543569 0.206772
H43   H     H_    0.205090 0.716579 0.456420 0.206806
H44   H     H_    0.794929 0.716560 0.543569 0.206772
H45   H     H_    0.860144 0.085211 0.065205 0.117332
H46   H     H_    0.139858 0.085229 0.934790 0.117341
H47   H     H_    0.360144 0.585211 0.065205 0.117332
H48   H     H_    0.639858 0.585229 0.934790 0.117341
H49   H     H_    0.870447 0.044748 0.947136 0.137453
H50   H     H_    0.129553 0.044758 0.052860 0.137449
H51   H     H_    0.370447 0.544748 0.947136 0.137453
H52   H     H_    0.629553 0.544758 0.052860 0.137449
H53   H     H_    0.809947 0.932478 0.946811 0.120594
H54   H     H_    0.190058 0.932493 0.053189 0.120604
H55   H     H_    0.309947 0.432478 0.946811 0.120594
H56   H     H_    0.690058 0.432493 0.053189 0.120604
H57   H     H_    0.700406 0.924630 0.040586 0.106543
H58   H     H_    0.299579 0.924642 0.959446 0.106556
H59   H     H_    0.200406 0.424630 0.040586 0.106543
H60   H     H_    0.799579 0.424642 0.959446 0.106556
H61   H     H_    0.689642 0.960243 0.919466 0.103675
H62   H     H_    0.310378 0.960312 0.080548 0.103677
H63   H     H_    0.189642 0.460244 0.919466 0.103675
H64   H     H_    0.810378 0.460313 0.080548 0.103677
H65   H     H_    0.693790 0.234762 0.076310 0.126834
H66   H     H_    0.306229 0.234760 0.923694 0.126839
H67   H     H_    0.193790 0.734762 0.076310 0.126834
H68   H     H_    0.806229 0.734760 0.923694 0.126839
H69   H     H_    0.783221 0.249946 0.093284 0.103998
H70   H     H_    0.216803 0.249968 0.906684 0.103986
H71   H     H_    0.283221 0.749946 0.093284 0.103998
H72   H     H_    0.716803 0.749968 0.906684 0.103986
H73   H     H_    0.808134 0.252035 0.975037 0.107862
H74   H     H_    0.191834 0.252023 0.024916 0.107869
H75   H     H_    0.308134 0.752035 0.975037 0.107862
H76   H     H_    0.691834 0.752023 0.024916 0.107869
H77   H     H_    0.719996 0.279259 0.957842 0.125375
H78   H     H_    0.279962 0.279315 0.042152 0.125368
H79   H     H_    0.219996 0.779259 0.957842 0.125375
H80   H     H_    0.779962 0.779314 0.042152 0.125368
H81   H     H_    0.641856 0.042049 0.054304 0.130961
H82   H     H_    0.358147 0.042031 0.945692 0.130956
H83   H     H_    0.141856 0.542049 0.054304 0.130961
H84   H     H_    0.858147 0.542031 0.945692 0.130956
H85   H     H_    0.672092 0.199598 0.573440 0.197818
H86   H     H_    0.327914 0.199586 0.426557 0.197709
H87   H     H_    0.172092 0.699598 0.573440 0.197818
H88   H     H_    0.827914 0.699586 0.426557 0.197709
H89   H     H_    0.651124 0.100708 0.935934 0.120963
H90   H     H_    0.348873 0.100788 0.064042 0.120982
H91   H     H_    0.151124 0.600708 0.935934 0.120963
H92   H     H_    0.848873 0.600788 0.064042 0.120982
H93   H     H_    0.035288 0.545222 0.059812 0.135689
H94   H     H_    0.964714 0.545228 0.940185 0.135687
H95   H     H_    0.535288 0.045222 0.059812 0.135689
H96   H     H_    0.464714 0.045228 0.940185 0.135687
H97   H     H_    0.948644 0.510148 0.059618 0.118815
H98   H     H_    0.051355 0.510137 0.940380 0.118810
H99   H     H_    0.448644 0.010148 0.059618 0.118815
H100  H     H_    0.551355 0.010137 0.940380 0.118810
H101  H     H_    0.608640 0.853647 0.029246 0.107764
H102  H     H_    0.391345 0.853657 0.970762 0.107757
H103  H     H_    0.108640 0.353647 0.029246 0.107764
H104  H     H_    0.891345 0.353657 0.970762 0.107757
H105  H     H_    0.595745 0.812858 0.911506 0.101605
H106  H     H_    0.404245 0.812862 0.088500 0.101604
H107  H     H_    0.095745 0.312858 0.911506 0.101605
H108  H     H_    0.904246 0.312862 0.088500 0.101604
H109  H     H_    0.957015 0.187866 0.069159 0.124260
H110  H     H_    0.042969 0.187860 0.930842 0.124262
H111  H     H_    0.457015 0.687866 0.069159 0.124260
H112  H     H_    0.542969 0.687860 0.930842 0.124262
H113  H     H_    0.918821 0.207649 0.952628 0.132607
H114  H     H_    0.081155 0.207635 0.047378 0.132606
H115  H     H_    0.418821 0.707649 0.952628 0.132607
H116  H     H_    0.581155 0.707635 0.047378 0.132606
H117  H     H_    0.657547 0.048677 0.569530 0.103436
H118  H     H_    0.342461 0.048656 0.430462 0.103447
H119  H     H_    0.157547 0.548677 0.569530 0.103436
H120  H     H_    0.842461 0.548656 0.430462 0.103447
H121  H     H_    0.704550 0.908108 0.489522 0.051421
H122  H     H_    0.295436 0.908102 0.510477 0.051406
H123  H     H_    0.204550 0.408108 0.489522 0.051421
H124  H     H_    0.795436 0.408102 0.510477 0.051406
H125  H     H_    0.745602 0.902994 0.596814 0.086464
H126  H     H_    0.254402 0.902982 0.403189 0.086443
H127  H     H_    0.245602 0.402994 0.596814 0.086464
H128  H     H_    0.754402 0.402982 0.403189 0.086443
H129  H     H_    0.859691 0.058881 0.437084 0.200427
H130  H     H_    0.140309 0.058893 0.562908 0.200349
H131  H     H_    0.359691 0.558881 0.437084 0.200427
H132  H     H_    0.640309 0.558893 0.562908 0.200349
H133  H     H_    0.819286 0.195852 0.414753 0.093921
H134  H     H_    0.180725 0.195860 0.585232 0.093944
H135  H     H_    0.319286 0.695852 0.414753 0.093921
H136  H     H_    0.680725 0.695860 0.585232 0.093944
H137  H     H_    0.803257 0.242240 0.534622 0.079332
H138  H     H_    0.196771 0.242229 0.465360 0.079355
H139  H     H_    0.303257 0.742240 0.534622 0.079332
H140  H     H_    0.696771 0.742229 0.465360 0.079355
O1    O     O_R   0.957210 0.449410 0.665480 -0.523753
O2    O     O_R   0.042790 0.449410 0.334520 -0.523757
O3    O     O_R   0.457210 0.949410 0.665480 -0.523753
O4    O     O_R   0.542790 0.949410 0.334520 -0.523757
O5    O     O_R   0.736260 0.212010 0.826560 -0.512625
O6    O     O_R   0.263740 0.212010 0.173440 -0.512628
O7    O     O_R   0.236260 0.712010 0.826560 -0.512625
O8    O     O_R   0.763740 0.712010 0.173440 -0.512628
O9    O     O_R   0.832520 0.095300 0.836000 -0.527111
O10   O     O_R   0.167480 0.095300 0.164000 -0.527108
O11   O     O_R   0.332520 0.595300 0.836000 -0.527111
O12   O     O_R   0.667480 0.595300 0.164000 -0.527108
O13   O     O_R   0.946380 0.253940 0.826940 -0.515545
O14   O     O_R   0.053620 0.253940 0.173060 -0.515551
O15   O     O_R   0.446380 0.753940 0.826940 -0.515545
O16   O     O_R   0.553620 0.753940 0.173060 -0.515551
O17   O     O_3   0.834560 0.334570 0.748840 -0.298445
O18   O     O_3   0.165440 0.334570 0.251160 -0.298447
O19   O     O_3   0.334560 0.834570 0.748840 -0.298445
O20   O     O_3   0.665440 0.834570 0.251160 -0.298447
O21   O     O_R   0.820730 0.541240 0.668250 -0.478944
O22   O     O_R   0.179270 0.541240 0.331750 -0.478965
O23   O     O_R   0.320730 0.041240 0.668250 -0.478944
O24   O     O_R   0.679270 0.041240 0.331750 -0.478965
O25   O     O_R   0.714240 0.455060 0.663710 -0.519559
O26   O     O_R   0.285760 0.455060 0.336290 -0.519541
O27   O     O_R   0.214240 0.955060 0.663710 -0.519559
O28   O     O_R   0.785760 0.955060 0.336290 -0.519541
O29   O     O_R   0.736780 0.204870 0.675910 -0.528439
O30   O     O_R   0.263220 0.204870 0.324090 -0.528430
O31   O     O_R   0.236780 0.704870 0.675910 -0.528439
O32   O     O_R   0.763220 0.704870 0.324090 -0.528430
O33   O     O_R   0.833070 0.087590 0.673490 -0.434814
O34   O     O_R   0.166930 0.087590 0.326510 -0.434805
O35   O     O_R   0.333070 0.587590 0.673490 -0.434814
O36   O     O_R   0.666930 0.587590 0.326510 -0.434805
O37   O     O_R   0.946890 0.246800 0.676300 -0.500298
O38   O     O_R   0.053110 0.246800 0.323700 -0.500288
O39   O     O_R   0.446890 0.746800 0.676300 -0.500298
O40   O     O_R   0.553110 0.746800 0.323700 -0.500288
O41   O     O_R   0.956650 0.457120 0.827980 -0.530141
O42   O     O_R   0.043350 0.457120 0.172020 -0.530138
O43   O     O_R   0.456650 0.957120 0.827980 -0.530141
O44   O     O_R   0.543350 0.957120 0.172020 -0.530138
O45   O     O_R   0.820220 0.548390 0.818890 -0.502508
O46   O     O_R   0.179780 0.548390 0.181110 -0.502507
O47   O     O_R   0.320220 0.048390 0.818890 -0.502508
O48   O     O_R   0.679780 0.048390 0.181110 -0.502507
O49   O     O_R   0.713680 0.462770 0.826210 -0.531023
O50   O     O_R   0.286320 0.462770 0.173790 -0.531026
O51   O     O_R   0.213680 0.962770 0.826210 -0.531023
O52   O     O_R   0.786320 0.962770 0.173790 -0.531026
S1    S     S_3+6 0.866261 0.896115 0.577077 -0.040584
O53   O     O_2   0.918037 0.981576 0.602554 -0.261964
O54   O     O_2   0.860611 0.804339 0.634379 -0.307845
O55   O     O_3   0.898895 0.835821 0.502428 -0.577170
H141  H     H_    0.936521 0.785314 0.518974 0.364395
S2    S     S_3+6 0.133745 0.896097 0.422905 -0.040594
O56   O     O_2   0.081962 0.981572 0.397464 -0.262171
O57   O     O_2   0.139400 0.804374 0.365578 -0.307709
O58   O     O_3   0.101126 0.835711 0.497532 -0.577067
H142  H     H_    0.063256 0.785628 0.480969 0.364552
S3    S     S_3+6 0.366261 0.396115 0.577077 -0.040584
O59   O     O_2   0.418037 0.481576 0.602554 -0.261964
O60   O     O_2   0.360611 0.304339 0.634379 -0.307845
O61   O     O_3   0.398895 0.335821 0.502428 -0.577170
H143  H     H_    0.436521 0.285314 0.518974 0.364395
S4    S     S_3+6 0.633745 0.396097 0.422905 -0.040594
O62   O     O_2   0.581962 0.481572 0.397464 -0.262171
O63   O     O_2   0.639400 0.304374 0.365578 -0.307709
O64   O     O_3   0.601126 0.335711 0.497532 -0.577067
H144  H     H_    0.563256 0.285629 0.480969 0.364552

loop_
_geom_bond_atom_site_label_1
_geom_bond_atom_site_label_2
_ccdc_geom_bond_type
C78   H94   S    
C5    H133  S    
C82   C94   S    
C119  H11   S    
C120  H12   S    
C21   H5    S    
C53   C69   S    
C104  O8    A    
C56   H60   S    
C43   C63   S    
O58   H142  S    
C44   C64   S    
C19   S3    S    
Cr6   O6    S    
C84   H115  S    
C80   H100  S    
C63   C98   S    
C51   H51   S    
Cr2   O2    S    
C19   H127  S    
C109  H41   S    
C28   C40   S    
C72   H92   S    
C30   C38   S    
C79   H95   S    
C42   H38   S    
Cr9   O33   S    
C56   C72   S    
C45   O33   A    
C8    H132  S    
C18   C118  S    
C81   C86   S    
C29   H23   S    
C30   H24   S    
C83   C88   S    
C87   H106  S    
C5    H129  S    
C41   C49   S    
Cr8   O28   S    
Cr1   O45   S    
Cr2   O42   S    
S2    O56   D    
Cr3   O47   S    
Cr4   O48   S    
S4    O62   D    
S3    O60   D    
C26   C38   S    
Cr10  O34   S    
C14   C114  S    
Cr11  O39   S    
C60   C76   S    
C35   H31   S    
Cr8   O52   S    
C55   H59   S    
C29   H34   S    
C33   H29   S    
C44   H40   S    
C88   H112  S    
C54   C70   S    
C48   O36   A    
C68   C72   S    
C23   H139  S    
C69   H61   S    
C13   C21   S    
C99   O47   A    
C79   H99   S    
C32   H22   S    
C102  O6    A    
C64   C97   S    
C15   C115  S    
C20   C120  S    
C1    O25   A    
C54   H82   S    
Cr9   O37   S    
C57   H65   S    
C59   C63   S    
C52   H52   S    
Cr4   O20   S    
C72   H64   S    
C57   C61   S    
C82   C85   S    
Cr6   O50   S    
C77   H97   S    
Cr11  O19   S    
C60   C64   S    
Cr9   O13   S    
C18   S2    S    
C13   C45   S    
C66   C70   S    
C42   H46   S    
C69   H89   S    
C95   C108  S    
C60   H68   S    
C62   C99   S    
C107  O43   A    
C5    C21   S    
C58   H70   S    
C31   C36   S    
C47   O35   A    
C4    O28   A    
C97   O45   A    
Cr5   O17   S    
C90   O38   A    
Cr1   O21   S    
C84   H102  S    
Cr2   O18   S    
S4    O64   S    
C65   C101  S    
Cr10  O14   S    
Cr3   O23   S    
Cr11  O11   S    
C67   C103  S    
Cr5   O5    S    
C37   C90   S    
C24   H140  S    
C41   H45   S    
C78   C94   S    
C55   H83   S    
C115  H119  S    
C66   C74   S    
C113  H117  S    
C25   H17   S    
C57   C73   S    
S1    O54   D    
C53   C61   S    
C60   H72   S    
C83   H101  S    
C55   C63   S    
C6    H134  S    
C56   C64   S    
C7    H131  S    
Cr7   O51   S    
C116  H88   S    
C110  C114  S    
C33   H28   S    
Cr5   O29   S    
C34   H27   S    
C76   H80   S    
C50   H50   S    
C1    C12   S    
C75   H75   S    
C112  H4    S    
C2    C11   S    
Cr3   O3    S    
C110  H42   S    
C6    H130  S    
C43   H39   S    
C25   C26   S    
C105  O13   A    
S3    O59   D    
C107  O15   A    
C5    C9    S    
C108  O16   A    
C93   C106  S    
C71   H63   S    
C8    C12   S    
C90   O2    A    
C51   C67   S    
C43   H47   S    
C7    H135  S    
C36   H25   S    
C42   C50   S    
C49   H49   S    
C112  H44   S    
Cr2   O46   S    
Cr3   O43   S    
C110  H2    S    
C61   C100  S    
C67   C75   S    
C17   H125  S    
C50   H54   S    
C112  C116  S    
C58   C74   S    
Cr10  O38   S    
C73   H73   S    
C53   H81   S    
C54   H58   S    
C81   H114  S    
C30   H33   S    
O55   H141  S    
C34   H30   S    
C68   C76   S    
C1    O21   A    
C98   O46   A    
C85   H108  S    
C14   C22   S    
C3    O23   A    
C27   C39   S    
C7    C23   S    
C8    C24   S    
C40   C91   S    
C101  O9    A    
C56   H84   S    
Cr7   O27   S    
C99   O51   A    
Cr8   O20   S    
C114  H86   S    
C49   H53   S    
C20   S4    S    
C57   H69   S    
C52   H56   S    
Cr7   O7    S    
C4    C9    S    
Cr4   O24   S    
C53   H57   S    
Cr8   O8    S    
C86   H110  S    
C58   C62   S    
C89   O1    A    
C88   C96   S    
C94   C105  S    
C77   H93   S    
C82   H104  S    
C12   C112  S    
C44   H48   S    
C21   H137  S    
C14   C46   S    
C77   C78   S    
C15   C19   S    
C75   H79   S    
S2    O57   D    
C101  O5    A    
S4    O63   D    
C92   O40   A    
C6    C22   S    
C66   C102  S    
Cr11  O35   S    
Cr6   O18   S    
S2    O58   S    
Cr2   O22   S    
C103  O7    A    
Cr3   O19   S    
C46   O34   A    
C82   H113  S    
C17   C117  S    
C19   C119  S    
C2    O22   A    
Cr12  O36   S    
C16   C116  S    
C76   H76   S    
C9    C109  S    
C28   H16   S    
C11   C111  S    
C26   H18   S    
C105  O41   A    
C54   C62   S    
C48   O32   A    
C109  H1    S    
C29   C34   S    
C108  O44   A    
C33   C37   S    
C41   C61   S    
C79   C95   S    
C35   C39   S    
C17   S1    S    
Cr5   O25   S    
Cr6   O30   S    
C70   H62   S    
C85   H109  S    
C86   H107  S    
C80   H96   S    
Cr12  O12   S    
C96   C107  S    
C91   O39   A    
C100  O52   A    
C39   C92   S    
C73   H77   S    
C27   H19   S    
C106  O14   A    
C14   C18   S    
C68   C104  S    
C119  H123  S    
C6    C10   S    
S3    O61   S    
C13   C17   S    
C78   H98   S    
C22   H6    S    
Cr5   O49   S    
C91   O3    A    
C35   H26   S    
C104  O12   A    
C43   C51   S    
C41   H37   S    
C65   C69   S    
C77   C93   S    
C70   H90   S    
C10   C110  S    
C67   C71   S    
S1    O53   D    
C111  H3    S    
Cr1   O1    S    
C18   H126  S    
C51   H55   S    
C3    O27   A    
C59   H71   S    
C31   H36   S    
C32   H35   S    
C29   C37   S    
C36   H32   S    
O64   H144  S    
C9    C117  S    
C102  O10   A    
C117  H9    S    
C84   C87   S    
C15   C47   S    
C8    H136  S    
C11   C119  S    
C16   C48   S    
C7    C11   S    
C38   C89   S    
C49   C65   S    
C74   H78   S    
C111  H43   S    
C23   H7    S    
Cr7   O31   S    
Cr8   O32   S    
Cr1   O41   S    
C114  H118  S    
C65   C73   S    
C26   H14   S    
C84   C96   S    
Cr4   O44   S    
C86   C94   S    
C25   C37   S    
C12   C120  S    
C59   H67   S    
C83   H116  S    
Cr12  O20   S    
C55   C71   S    
C80   C96   S    
C118  H122  S    
C52   C68   S    
C16   C20   S    
C22   H138  S    
C15   C23   S    
Cr9   O17   S    
C16   C24   S    
C115  H87   S    
C85   C93   S    
C2    O26   A    
C113  H85   S    
C31   H21   S    
C71   H91   S    
C117  H121  S    
C120  H124  S    
C32   C35   S    
C36   C40   S    
C97   O49   A    
Cr7   O19   S    
C116  H120  S    
C87   C95   S    
S1    O55   S    
C46   O30   A    
C10   C118  S    
C81   C93   S    
C87   H111  S    
C83   C95   S    
Cr10  O18   S    
C81   H103  S    
C103  O11   A    
Cr12  O40   S    
Cr9   O9    S    
C50   C66   S    
C100  O48   A    
C20   H128  S    
C28   H20   S    
C45   O29   A    
C92   O4    A    
C24   H8    S    
C59   C75   S    
C106  O42   A    
C74   H74   S    
C42   C62   S    
C58   H66   S    
C30   C33   S    
C34   C38   S    
C47   O31   A    
C4    O24   A    
C118  H10   S    
C89   O37   A    
C111  C115  S    
Cr6   O26   S    
C109  C113  S    
Cr1   O17   S    
Cr10  O10   S    
C3    C10   S    
Cr11  O15   S    
Cr4   O4    S    
C44   C52   S    
Cr12  O16   S    
C88   H105  S    
C31   C39   S    
C32   C40   S    
C79   C80   S    
C98   O50   A    
C27   H15   S    
O61   H143  S    
C27   C28   S    
C25   H13   S    
C13   C113  S    
