data_mof_unit_35418.cif
_audit_creation_date              2013-03-05T15:42:47-0500
_audit_creation_method            fapswitch 2.2
_symmetry_space_group_name_H-M    P1
_symmetry_Int_Tables_number       1
_space_group_crystal_system       triclinic
_cell_length_a                    6.933152
_cell_length_b                    14.698555
_cell_length_c                    16.302337
_cell_angle_alpha                 90.589975
_cell_angle_beta                  90.41738
_cell_angle_gamma                 90.010026
_cell_volume                      1661.19520545

loop_
_atom_site_label
_atom_site_type_symbol
_atom_site_description
_atom_site_fract_x
_atom_site_fract_y
_atom_site_fract_z
_atom_type_partial_charge
O1    O     O_R   0.494400 0.416610 0.413880 -0.576378
O2    O     O_R   0.823920 0.406790 0.585520 -0.576796
O3    O     O_R   0.994250 0.583390 0.586120 -0.559011
C1    C     C_R   0.655093 0.384504 0.612887 0.818581
O4    O     O_R   0.824110 0.405730 0.414490 -0.515311
O5    O     O_R   0.994440 0.582310 0.413870 -0.566735
C2    C     C_R   0.655360 0.383664 0.386062 0.842430
O6    O     O_R   0.494210 0.417690 0.586130 -0.562886
O7    O     O_3   0.660810 0.557940 0.500000 -0.238753
V1    V     V_3+5 0.935650 0.489250 0.500000 1.186645
O8    O     O_R   0.324160 0.593210 0.414480 -0.532765
C3    C     C_R   0.154954 0.614619 0.386416 0.865188
O9    O     O_R   0.323970 0.594270 0.585510 -0.511320
C4    C     C_R   0.156273 0.619818 0.611216 0.835882
V2    V     V_3+5 0.435660 0.510750 0.500000 1.220585
O10   O     O_3   0.160630 0.442060 0.500000 -0.283652
H1    H     H_    0.181962 0.938323 0.513118 0.110739
C5    C     C_R   0.117022 0.560916 0.778600 -0.121789
C6    C     C_R   0.086031 0.529472 0.857722 -0.058615
C7    C     C_R   0.060718 0.590590 0.923124 0.352041
C8    C     C_R   0.072017 0.684340 0.908236 -0.151982
C9    C     C_R   0.105833 0.717924 0.828689 -0.013854
C10   C     C_R   0.124893 0.655056 0.762123 0.021684
C11   C     C_R   0.111700 0.812774 0.814194 -0.076198
C12   C     C_R   0.116860 0.843863 0.732514 -0.065092
C13   C     C_R   0.162149 0.782565 0.667280 -0.043144
C14   C     C_R   0.153444 0.686820 0.681019 -0.080361
C15   C     C_R   0.069085 0.934893 0.713987 -0.092146
C16   C     C_R   0.067376 0.965100 0.633206 0.384556
C17   C     C_R   0.151787 0.910026 0.572682 -0.159894
C18   C     C_R   0.208906 0.820778 0.590063 0.279434
H2    H     H_    0.134498 0.510308 0.730540 0.091849
H3    H     H_    0.079015 0.456787 0.867453 0.162415
H4    H     H_    0.049349 0.731011 0.958900 0.079697
H5    H     H_    0.020170 0.981622 0.761215 0.095030
C19   C     C_2   0.989630 0.705701 0.278824 -0.043889
C20   C     C_2   0.149276 0.684621 0.322338 -0.142235
H6    H     H_    0.854919 0.671754 0.292885 0.097050
H7    H     H_    0.282702 0.721031 0.313668 0.175451
C21   C     C_2   0.981388 0.777284 0.214385 -0.063860
C22   C     C_2   0.132496 0.804705 0.168639 0.293240
H8    H     H_    0.839608 0.805636 0.201963 0.058369
C23   C     C_2   0.771456 0.207896 0.780890 -0.113933
C24   C     C_2   0.614375 0.192469 0.827978 0.184055
H9    H     H_    0.895707 0.163381 0.786705 0.127741
C25   C     C_2   0.789490 0.282386 0.719921 -0.027093
C26   C     C_2   0.639195 0.313286 0.675514 -0.184904
H10   H     H_    0.933466 0.307781 0.707731 0.121508
H11   H     H_    0.497184 0.283859 0.683368 0.121955
C27   C     C_2   0.779759 0.208086 0.214292 -0.143599
C28   C     C_2   0.613630 0.175776 0.182181 -0.246448
H12   H     H_    0.914288 0.188613 0.185352 0.117523
H13   H     H_    0.476553 0.192241 0.210224 0.072303
C29   C     C_2   0.794423 0.266685 0.290139 0.406354
C30   C     C_2   0.644220 0.318669 0.315889 -0.224391
H14   H     H_    0.506795 0.315667 0.283903 0.047575
O11   O     O_R   0.770210 0.079270 0.910680 -0.571912
O12   O     O_R   0.440150 0.091160 0.082270 -0.556440
O13   O     O_R   0.269970 0.914530 0.082860 -0.560332
C31   C     C_R   0.608831 0.112364 0.111207 0.875922
O14   O     O_R   0.440480 0.090100 0.911240 -0.513145
O15   O     O_R   0.270310 0.913460 0.910610 -0.561253
C32   C     C_R   0.608809 0.114169 0.884998 0.790265
O16   O     O_R   0.769870 0.080340 0.082930 -0.560174
O17   O     O_3   0.603660 0.938980 0.996790 -0.289759
V3    V     V_3+5 0.328750 0.007610 0.996740 1.186646
O18   O     O_R   0.940600 0.902510 0.911180 -0.563087
C33   C     C_R   0.108064 0.879863 0.883398 0.798475
O19   O     O_R   0.940270 0.903570 0.082200 -0.583618
C34   C     C_R   0.110916 0.879246 0.107983 0.745059
V4    V     V_3+5 0.828770 0.986010 0.996670 1.149617
O20   O     O_3   0.103730 0.054750 0.996710 -0.249727
O21   O     O_3   0.313953 0.767033 0.182060 -0.662035
C35   C     C_3   0.391207 0.728676 0.109429 0.264969
H15   H     H_    0.501463 0.775482 0.084422 0.094247
H16   H     H_    0.281511 0.714741 0.060886 0.039587
C36   C     C_3   0.488845 0.638995 0.129814 -0.261616
H17   H     H_    0.381749 0.590930 0.155342 0.148786
H18   H     H_    0.551460 0.608511 0.073373 0.130823
H19   H     H_    0.605900 0.650442 0.175589 0.123776
N1    N     N_R   0.457427 0.256643 0.830796 0.078249
O22   O     O_R   0.279617 0.228467 0.827358 -0.368675
O23   O     O_R   0.491766 0.342367 0.845464 -0.356149
O24   O     O_3   0.971269 0.275206 0.330629 -0.612920
C37   C     C_3   0.053499 0.188935 0.345961 0.268720
H20   H     H_    0.131838 0.164075 0.290857 0.038298
H21   H     H_    0.942735 0.137832 0.363668 0.001798
C38   C     C_3   0.198294 0.197576 0.416225 -0.284363
H22   H     H_    0.125515 0.222784 0.472473 0.132788
H23   H     H_    0.264150 0.130214 0.428872 0.052605
H24   H     H_    0.314093 0.246011 0.399940 0.116312
N2    N     N_R   0.020914 0.557566 0.004156 0.081979
O25   O     O_R   0.032041 0.471087 0.019915 -0.335295
O26   O     O_R   0.967264 0.613173 0.062281 -0.422117
O27   O     O_3   0.998016 0.051742 0.617024 -0.638919
C39   C     C_3   0.871761 0.049419 0.548300 0.266371
H25   H     H_    0.775733 0.988412 0.548346 0.062689
H26   H     H_    0.956093 0.049898 0.490685 0.034539
C40   C     C_3   0.743181 0.133136 0.549478 -0.331620
H27   H     H_    0.832480 0.195795 0.551317 0.120542
H28   H     H_    0.651231 0.134057 0.493405 0.057709
H29   H     H_    0.648620 0.131627 0.604120 0.120135
N3    N     N_R   0.344637 0.778094 0.536053 0.074480
O28   O     O_R   0.336524 0.794942 0.457980 -0.416577
O29   O     O_R   0.507230 0.749351 0.566617 -0.348499

loop_
_geom_bond_atom_site_label_1
_geom_bond_atom_site_label_2
_geom_bond_distance
_ccdc_geom_bond_type
C30   H14   1.083483 S    
O21   C35   1.415030 S    
C6    C7    1.399173 A    
C2    C30   1.484425 S    
C1    O6    1.292235 A    
C29   O24   1.393259 S    
N1    O22   1.301055 A    
C26   H11   1.084307 S    
C36   H17   1.110861 S    
C12   C15   1.413593 A    
C7    N2    1.440592 S    
C13   C14   1.428628 A    
C27   C29   1.502433 S    
C35   H16   1.111068 S    
C19   C20   1.348171 D    
O13   V3    2.014124 S    
O5    C3    1.294513 A    
C17   C18   1.401499 A    
C36   H19   1.110113 S    
O12   C31   1.294673 A    
V2    O10   2.157473 S    
C39   C40   1.519664 S    
O14   C32   1.296316 A    
C5    C6    1.392784 A    
O16   V4    2.008757 S    
C3    C20   1.474118 S    
O19   V4    2.007371 S    
C29   C30   1.358149 D    
O8    V2    2.007436 S    
O14   V3    2.015738 S    
O12   V3    1.999392 S    
V3    O20   1.707154 S    
O27   C39   1.416868 S    
C15   H5    1.082852 S    
C35   C36   1.520645 S    
C39   H26   1.110069 S    
C27   H12   1.085439 S    
O1    V2    2.005033 S    
C10   C14   1.421904 A    
C4    C14   1.497502 S    
O7    V1    2.156620 S    
C38   H22   1.110195 S    
C21   H8    1.086243 S    
C13   C18   1.423239 A    
O9    C4    1.293227 A    
H1    C17   1.082081 S    
N1    O23   1.301679 A    
O11   C32   1.299390 A    
C36   H18   1.110512 S    
C24   C32   1.487504 S    
C25   H10   1.086055 S    
C35   H15   1.110853 S    
O15   V3    2.000578 S    
C37   H21   1.115685 S    
C5    C10   1.413391 A    
C19   C21   1.495256 S    
C11   C12   1.412934 A    
C24   N1    1.440869 S    
C6    H3    1.082824 S    
C16   O27   1.388508 S    
C8    H4    1.080630 S    
C12   C13   1.423581 A    
O17   V4    1.706871 S    
O11   V4    2.010104 S    
O18   C33   1.291774 A    
C28   H13   1.083936 S    
C18   N3    1.433645 S    
O2    C1    1.298809 A    
C23   C24   1.357367 D    
C16   C17   1.401238 A    
C40   H27   1.109687 S    
C38   H24   1.108456 S    
C39   H25   1.116763 S    
N2    O26   1.301386 A    
C27   C28   1.346154 D    
N3    O29   1.301473 A    
O24   C37   1.414278 S    
C23   H9    1.086047 S    
C37   H20   1.111730 S    
O3    C4    1.305574 A    
C21   C22   1.354109 D    
C40   H28   1.110855 S    
C38   H23   1.111011 S    
O6    V2    2.009673 S    
O9    V2    2.007680 S    
C9    C11   1.417070 A    
C5    H2    1.082248 S    
O2    V1    2.015700 S    
O4    C2    1.295249 A    
C37   C38   1.521905 S    
C25   C26   1.346148 D    
C15   C16   1.394046 A    
O1    C2    1.299446 A    
O5    V1    2.014049 S    
O8    C3    1.296085 A    
O15   C33   1.301553 A    
C31   O16   1.297639 A    
C19   H6    1.085879 S    
O7    V2    1.708056 S    
V4    O20   2.157381 S    
C20   H7    1.079549 S    
O3    V1    2.000583 S    
V1    O10   1.707201 S    
N2    O25   1.301597 A    
O18   V4    2.007658 S    
O19   C34   1.303936 A    
C23   C25   1.492155 S    
C11   C33   1.491089 S    
O13   C34   1.289772 A    
C22   O21   1.391380 S    
O4    V1    1.999272 S    
C40   H29   1.110290 S    
C7    C8    1.403929 A    
O17   V3    2.156636 S    
N3    O28   1.299972 A    
C9    C10   1.424953 A    
C28   C31   1.478458 S    
C8    C9    1.413465 A    
C22   C34   1.490252 S    
C1    C26   1.474422 S    
