data_mof_unit_7995.cif
_audit_creation_date              2013-03-05T15:43:50-0500
_audit_creation_method            fapswitch 2.2
_symmetry_space_group_name_H-M    P1
_symmetry_Int_Tables_number       1
_space_group_crystal_system       triclinic
_cell_length_a                    10.024158
_cell_length_b                    10.664479
_cell_length_c                    15.467042
_cell_angle_alpha                 90.205822
_cell_angle_beta                  67.408608
_cell_angle_gamma                 90.601394
_cell_volume                      1526.50627719

loop_
_atom_site_label
_atom_site_type_symbol
_atom_site_description
_atom_site_fract_x
_atom_site_fract_y
_atom_site_fract_z
_atom_type_partial_charge
O1    O     O_R   0.386950 0.680940 0.500010 -0.601010
O2    O     O_R   0.613110 0.680900 0.499990 -0.610442
C1    C     C_R   0.501023 0.737747 0.499757 0.950932
O3    O     O_R   0.322330 0.500030 0.632270 -0.556007
O4    O     O_R   0.548480 0.499990 0.632240 -0.596602
C2    C     C_R   0.408616 0.498057 0.676592 0.904314
Zn1   Zn    Zn3+2 0.349000 0.500030 0.500020 1.012897
Zn2   Zn    Zn3+2 0.651000 0.499970 0.499980 0.995865
O5    O     O_R   0.386890 0.319100 0.500010 -0.601955
O6    O     O_R   0.613050 0.319060 0.499990 -0.565488
O7    O     O_R   0.451520 0.500010 0.367760 -0.621931
O8    O     O_R   0.677670 0.499970 0.367730 -0.620738
C3    C     C_R   0.493941 0.263100 0.509128 0.958114
C4    C     C_R   0.590650 0.498408 0.323736 0.847966
C5    C     C_R   0.348591 0.486714 0.779210 -0.184578
C6    C     C_R   0.646082 0.477352 0.222826 -0.051005
C7    C     C_R   0.162006 0.515504 0.933840 -0.298153
C8    C     C_R   0.204182 0.516607 0.836592 0.315686
C9    C     C_R   0.443489 0.448673 0.820535 -0.248796
C10   C     C_R   0.402089 0.446030 0.917655 0.122085
C11   C     C_R   0.260276 0.483911 0.974356 0.125743
C12   C     C_R   0.502162 0.417389 0.959251 -0.026225
C13   C     C_R   0.466343 0.448145 0.054195 0.069411
C14   C     C_R   0.321185 0.478020 0.110240 -0.194071
C15   C     C_R   0.219365 0.493393 0.070824 -0.202288
C16   C     C_R   0.636540 0.360175 0.909180 -0.188078
C17   C     C_R   0.740035 0.344847 0.947965 0.455789
C18   C     C_R   0.711051 0.388443 0.039918 0.029197
C19   C     C_R   0.575490 0.444978 0.090995 0.051612
C20   C     C_R   0.810065 0.373599 0.084155 -0.194357
C21   C     C_R   0.776584 0.416237 0.175450 -0.191210
C22   C     C_R   0.552081 0.498285 0.178059 -0.209641
H1    H     H_    0.109852 0.518231 0.115601 0.147298
H2    H     H_    0.457841 0.554369 0.214072 0.149366
H3    H     H_    0.849772 0.396958 0.210093 0.149342
H4    H     H_    0.052915 0.542614 0.977781 0.179197
H5    H     H_    0.553387 0.428743 0.775322 0.205528
H6    H     H_    0.282414 0.486886 0.185435 0.138200
H7    H     H_    0.663137 0.322881 0.839637 0.209749
H8    H     H_    0.910748 0.324435 0.051549 0.147610
C23   C     C_2   0.569916 0.066304 0.556365 0.349661
C24   C     C_2   0.476733 0.132362 0.531424 -0.450759
H9    H     H_    0.382338 0.088650 0.525648 0.162654
C25   C     C_2   0.563663 0.930010 0.553445 -0.193435
C26   C     C_2   0.503292 0.870620 0.501062 -0.370600
H10   H     H_    0.613298 0.877375 0.593185 0.198160
H11   H     H_    0.455446 0.917466 0.458105 0.150149
C27   C     C_2   0.108962 0.435153 0.441314 -0.111016
N1    N     N_2   0.148330 0.498670 0.499030 -0.170205
H12   H     H_    0.189708 0.380360 0.387595 0.158724
H13   H     H_    0.071258 0.545451 0.552983 0.201817
C28   C     C_2   0.956854 0.429953 0.444701 -0.075700
N2    N     N_2   0.852680 0.498640 0.499000 -0.174898
H14   H     H_    0.934554 0.365683 0.397281 0.155282
H15   H     H_    0.874430 0.564181 0.540622 0.178688
N3    N     N_R   0.674073 0.124601 0.587308 0.232775
O9    O     O_R   0.800317 0.074076 0.566146 -0.375849
O10   O     O_R   0.633604 0.211821 0.651005 -0.385284
O11   O     O_3   0.866819 0.286784 0.892852 -0.699526
H16   H     H_    0.947048 0.320677 0.908270 0.342914
N4    N     N_R   0.100954 0.553604 0.798366 0.204276
O12   O     O_R   0.055255 0.472303 0.752842 -0.353677
O13   O     O_R   0.028731 0.656459 0.827446 -0.377476

loop_
_geom_bond_atom_site_label_1
_geom_bond_atom_site_label_2
_geom_bond_distance
_ccdc_geom_bond_type
Zn2   N2    2.016097 S    
O1    C1    1.287094 A    
O4    Zn2   1.904120 S    
C14   H6    1.079512 S    
C13   C14   1.417343 A    
C8    N4    1.433981 S    
C7    H4    1.084220 S    
C6    C22   1.387068 A    
C9    H5    1.076922 S    
C23   C24   1.345443 D    
C5    C8    1.416112 A    
C9    C10   1.396641 A    
Zn2   O8    1.958430 S    
N4    O12   1.300958 A    
C18   C20   1.415696 A    
O2    C1    1.283511 A    
C14   C15   1.386576 A    
C20   H8    1.079813 S    
O11   H16   0.987392 S    
C23   N3    1.440090 S    
C17   O11   1.380447 S    
C10   C11   1.415911 A    
C6    C21   1.396799 A    
Zn1   O7    1.904119 S    
C18   C19   1.422376 A    
C16   C17   1.394755 A    
O4    C2    1.302773 A    
O3    Zn1   1.958433 S    
C13   C19   1.414765 A    
C27   H12   1.084748 S    
C3    C24   1.430152 S    
O7    C4    1.296075 A    
O8    C4    1.296096 A    
C28   H14   1.084822 S    
C7    C8    1.397406 A    
C19   C22   1.395054 A    
C21   H3    1.083320 S    
N2    H15   1.025631 S    
C12   C16   1.413824 A    
C20   C21   1.395636 A    
C23   C25   1.455480 S    
C4    C6    1.459103 S    
C16   H7    1.079366 S    
O3    C2    1.294051 A    
N3    O9    1.301433 A    
C10   C12   1.420288 A    
C7    C11   1.399782 A    
C27   C28   1.505850 S    
C28   N2    1.292363 D    
Zn1   N1    2.017381 S    
Zn2   O6    1.962526 S    
C24   H9    1.084449 S    
C26   H11   1.083206 S    
C15   H1    1.084239 S    
C17   C18   1.415599 A    
Zn1   O5    1.970447 S    
O5    C3    1.287798 A    
C12   C13   1.409579 A    
C27   N1    1.293127 D    
C11   C15   1.390811 A    
C25   H10   1.088010 S    
O1    Zn1   1.962526 S    
C2    C5    1.470361 S    
C5    C9    1.398276 A    
C1    C26   1.417161 S    
N4    O13   1.300987 A    
O2    Zn2   1.970446 S    
C25   C26   1.337468 D    
N3    O10   1.301791 A    
N1    H13   1.025628 S    
O6    C3    1.287504 A    
C22   H2    1.079627 S    
