data_mof_unit_66446.cif
_audit_creation_date              2012-12-10T18:26:45-0500
_audit_creation_method            fapswitch 2.2
_symmetry_space_group_name_H-M    P1
_symmetry_Int_Tables_number       1
_space_group_crystal_system       triclinic
_cell_length_a                    25.79886
_cell_length_b                    25.791452
_cell_length_c                    22.147355
_cell_angle_alpha                 90.000358
_cell_angle_beta                  54.376444
_cell_angle_gamma                 89.998831
_cell_volume                      11978.8370453

loop_
_atom_site_label
_atom_site_type_symbol
_atom_type_description
_atom_site_fract_x
_atom_site_fract_y
_atom_site_fract_z
_atom_type_partial_charge
C1    C     C_R   0.849478 0.750038 0.301030 0.500374
C2    C     C_3   0.550275 0.248869 0.501202 0.070474
C3    C     C_3   0.291610 0.970036 0.417432 -0.232505
C4    C     C_3   0.777979 0.529951 0.539213 -0.235133
C5    C     C_3   0.777978 0.470047 0.539214 -0.235133
C6    C     C_3   0.276184 0.029951 0.541113 -0.235097
C7    C     C_3   0.276183 0.970048 0.541114 -0.235090
C8    C     C_3   0.680439 0.529796 0.538557 -0.229953
C9    C     C_3   0.680438 0.470208 0.538558 -0.229961
C10   C     C_3   0.180652 0.029804 0.536426 -0.230055
C11   C     C_3   0.180651 0.970200 0.536427 -0.230068
C12   C     C_3   0.749575 0.550883 0.498569 0.069950
C13   C     C_3   0.049985 0.250750 0.501787 0.070114
C14   C     C_3   0.749574 0.449116 0.498571 0.069955
C15   C     C_3   0.249584 0.050883 0.498478 0.070323
C16   C     C_3   0.249582 0.949116 0.498480 0.070323
C17   C     C_R   0.751177 0.891425 0.499063 0.497458
C18   C     C_R   0.751179 0.108575 0.499069 0.497460
C19   C     C_R   0.251261 0.391424 0.498984 0.497232
C20   C     C_R   0.251264 0.608576 0.498989 0.497230
C21   C     C_R   0.891010 0.749549 0.500788 0.497452
C22   C     C_R   0.890997 0.250478 0.500816 0.497441
C23   C     C_R   0.391102 0.249494 0.500634 0.497491
C24   C     C_3   0.049991 0.749286 0.501782 0.070100
C25   C     C_R   0.391103 0.750487 0.500595 0.497468
C26   C     C_R   0.608227 0.750581 0.500743 0.497286
C27   C     C_R   0.608232 0.249432 0.500722 0.497395
C28   C     C_R   0.108168 0.250485 0.500849 0.497303
C29   C     C_R   0.108182 0.749533 0.500842 0.497378
C30   C     C_3   0.551396 0.798339 0.456741 -0.229390
C31   C     C_3   0.551485 0.201640 0.456507 -0.229176
C32   C     C_3   0.026505 0.307176 0.506932 -0.233316
C33   C     C_3   0.025891 0.692944 0.508176 -0.233432
C34   C     C_3   0.491716 0.798459 0.456980 -0.229613
C35   C     C_3   0.448567 0.751061 0.501120 0.070067
C36   C     C_3   0.491802 0.201526 0.456795 -0.229344
C37   C     C_3   0.966401 0.307177 0.507285 -0.233735
C38   C     C_3   0.965803 0.692948 0.508455 -0.233830
C39   C     C_3   0.547447 0.700654 0.465108 -0.234793
C40   C     C_3   0.547356 0.299480 0.465226 -0.234659
C41   C     C_3   0.065156 0.225447 0.429556 -0.234819
C42   C     C_3   0.065453 0.773785 0.429000 -0.234748
C43   C     C_3   0.448551 0.248925 0.501128 0.070592
C44   C     C_3   0.948240 0.250771 0.501764 0.070194
C45   C     C_3   0.948257 0.749280 0.501712 0.070150
C46   C     C_3   0.487744 0.700725 0.464722 -0.235182
C47   C     C_3   0.487666 0.299402 0.464860 -0.234940
C48   C     C_3   0.005357 0.225679 0.429395 -0.234603
C49   C     C_R   0.849477 0.249961 0.301031 0.500372
C50   C     C_3   0.005643 0.773600 0.428838 -0.234596
C51   C     C_3   0.428964 0.754574 0.581993 -0.232734
C52   C     C_3   0.428949 0.245290 0.582108 -0.232780
C53   C     C_3   0.935449 0.219639 0.569452 -0.229146
C54   C     C_3   0.935815 0.781120 0.568703 -0.229120
C55   C     C_3   0.466801 0.737218 0.956833 -0.213216
C56   C     C_3   0.467290 0.264727 0.956836 -0.213203
C57   C     C_3   0.967192 0.235639 0.956834 -0.213200
C58   C     C_3   0.966671 0.762192 0.956836 -0.213244
C59   C     C_3   0.537945 0.803854 0.956974 -0.213053
C60   C     C_R   0.349476 0.250037 0.301030 0.500356
C61   C     C_3   0.536023 0.195602 0.956965 -0.213082
C62   C     C_3   0.036406 0.304301 0.956972 -0.213041
C63   C     C_3   0.038546 0.696334 0.956971 -0.213030
C64   C     C_3   0.494527 0.803908 0.043140 -0.213099
C65   C     C_3   0.492605 0.195555 0.043131 -0.213133
C66   C     C_3   0.992986 0.304348 0.043137 -0.213084
C67   C     C_3   0.995130 0.696277 0.043136 -0.213071
C68   C     C_1   0.389163 0.749956 0.221594 -0.014800
C69   C     C_1   0.389164 0.250042 0.221594 -0.014800
C70   C     C_1   0.889168 0.249951 0.221594 -0.014795
C71   C     C_R   0.349475 0.749962 0.301031 0.500341
C72   C     C_1   0.889170 0.750048 0.221594 -0.014794
C73   C     C_3   0.536665 0.749982 0.926830 0.070969
C74   C     C_3   0.536662 0.250019 0.926830 0.070944
C75   C     C_3   0.036674 0.249974 0.926830 0.071011
C76   C     C_3   0.036672 0.750026 0.926830 0.070978
C77   C     C_R   0.650559 0.749991 0.698969 0.500588
C78   C     C_R   0.650559 0.250010 0.698970 0.500586
C79   C     C_R   0.150560 0.249990 0.698969 0.500606
C80   C     C_R   0.150560 0.750011 0.698970 0.500622
C81   C     C_3   0.423705 0.736946 0.042999 -0.213120
C82   C     C_3   0.488890 0.754869 0.582042 -0.233397
C83   C     C_3   0.424204 0.264993 0.043003 -0.213099
C84   C     C_3   0.924103 0.235370 0.042999 -0.213105
C85   C     C_3   0.923573 0.762464 0.043001 -0.213143
C86   C     C_3   0.463365 0.749943 0.073171 0.070972
C87   C     C_3   0.463367 0.250055 0.073172 0.070945
C88   C     C_3   0.963376 0.249935 0.073172 0.071011
C89   C     C_3   0.963376 0.750064 0.073171 0.070979
C90   C     C_3   0.517068 0.708994 0.043114 -0.213685
C91   C     C_3   0.518494 0.289600 0.043120 -0.213697
C92   C     C_3   0.018241 0.210107 0.043115 -0.213675
C93   C     C_3   0.488876 0.244987 0.582107 -0.233299
C94   C     C_3   0.016627 0.791433 0.043115 -0.213689
C95   C     C_3   0.560047 0.708860 0.956948 -0.213627
C96   C     C_3   0.561476 0.289743 0.956954 -0.213639
C97   C     C_3   0.061225 0.209967 0.956950 -0.213612
C98   C     C_3   0.059604 0.791566 0.956950 -0.213619
C99   C     C_1   0.422551 0.749939 0.154764 -0.080264
C100  C     C_1   0.422554 0.250058 0.154765 -0.080271
C101  C     C_1   0.922560 0.249932 0.154764 -0.080246
C102  C     C_1   0.922561 0.750067 0.154764 -0.080254
C103  C     C_1   0.577485 0.749995 0.845236 -0.080287
C104  C     C_3   0.994924 0.219816 0.569658 -0.229355
C105  C     C_1   0.577482 0.250008 0.845236 -0.080297
C106  C     C_1   0.077492 0.249987 0.845237 -0.080262
C107  C     C_1   0.077491 0.750013 0.845237 -0.080268
C108  C     C_1   0.610877 0.749989 0.778408 -0.014845
C109  C     C_1   0.610875 0.250013 0.778408 -0.014849
C110  C     C_1   0.110881 0.249984 0.778408 -0.014831
C111  C     C_1   0.110880 0.750017 0.778408 -0.014828
C112  C     C_3   0.793295 0.970025 0.417111 -0.232691
C113  C     C_3   0.793296 0.029973 0.417112 -0.232689
C114  C     C_3   0.291270 0.470033 0.417175 -0.232707
C115  C     C_3   0.995279 0.780949 0.568932 -0.229271
C116  C     C_3   0.291270 0.529965 0.417175 -0.232705
C117  C     C_3   0.683027 0.970061 0.538682 -0.234805
C118  C     C_3   0.683026 0.029943 0.538681 -0.234807
C119  C     C_3   0.183115 0.470062 0.540960 -0.235104
C120  C     C_3   0.183114 0.529942 0.540959 -0.235104
C121  C     C_3   0.781154 0.970205 0.538752 -0.229533
C122  C     C_3   0.781152 0.029793 0.538755 -0.229547
C123  C     C_3   0.283526 0.470192 0.535896 -0.229923
C124  C     C_3   0.283525 0.529806 0.535898 -0.229939
C125  C     C_R   0.749814 0.608594 0.499210 0.497210
C126  C     C_3   0.550273 0.751123 0.501226 0.069927
C127  C     C_R   0.749813 0.391406 0.499212 0.497205
C128  C     C_R   0.249814 0.108597 0.499156 0.497402
C129  C     C_R   0.249813 0.891403 0.499157 0.497405
C130  C     C_3   0.752204 0.949125 0.498361 0.070925
C131  C     C_3   0.752202 0.050875 0.498361 0.070920
C132  C     C_3   0.252333 0.449123 0.498214 0.070197
C133  C     C_3   0.252332 0.550877 0.498214 0.070194
C134  C     C_3   0.789999 0.529966 0.417536 -0.232727
C135  C     C_3   0.789998 0.470031 0.417537 -0.232720
C136  C     C_3   0.291611 0.029961 0.417431 -0.232510
H1    H     H_    0.594603 0.796862 0.398168 0.133078
H2    H     H_    0.545862 0.333968 0.496616 0.121833
H3    H     H_    0.341601 0.955924 0.388407 0.134631
H4    H     H_    0.770414 0.544496 0.387210 0.104336
H5    H     H_    0.770412 0.455502 0.387211 0.104334
H6    H     H_    0.273329 0.044490 0.385688 0.104669
H7    H     H_    0.273327 0.955508 0.385689 0.104670
H8    H     H_    0.827668 0.544357 0.511472 0.120009
H9    H     H_    0.827667 0.455637 0.511474 0.120006
H10   H     H_    0.325708 0.044353 0.514802 0.118770
H11   H     H_    0.325707 0.955641 0.514803 0.118780
H12   H     H_    0.649976 0.543833 0.597080 0.134462
H13   H     H_    0.081540 0.184738 0.425276 0.104835
H14   H     H_    0.649975 0.456173 0.597081 0.134457
H15   H     H_    0.148958 0.043830 0.594912 0.134503
H16   H     H_    0.148957 0.956177 0.594913 0.134498
H17   H     H_    0.659129 0.544211 0.510035 0.116102
H18   H     H_    0.659129 0.455794 0.510036 0.116098
H19   H     H_    0.160669 0.044221 0.506417 0.114921
H20   H     H_    0.160669 0.955784 0.506418 0.114910
H21   H     H_    0.749408 0.544391 0.597570 0.107107
H22   H     H_    0.749408 0.455610 0.597571 0.107101
H23   H     H_    0.246445 0.044372 0.599514 0.107707
H24   H     H_    0.082387 0.814400 0.423718 0.104613
H25   H     H_    0.246444 0.955630 0.599515 0.107706
H26   H     H_    0.506695 0.797371 0.398533 0.133257
H27   H     H_    0.506897 0.202642 0.398234 0.133017
H28   H     H_    0.975934 0.330769 0.459613 0.132433
H29   H     H_    0.975096 0.668882 0.461271 0.132147
H30   H     H_    0.591068 0.697330 0.407019 0.105767
H31   H     H_    0.591017 0.302987 0.407074 0.105513
H32   H     H_    0.104467 0.246898 0.379972 0.124038
H33   H     H_    0.104450 0.751772 0.379937 0.124548
H34   H     H_    0.502623 0.697788 0.406422 0.105906
H35   H     H_    0.457919 0.666079 0.495349 0.121481
H36   H     H_    0.502655 0.302516 0.406466 0.105744
H37   H     H_    0.015813 0.247542 0.380019 0.124406
H38   H     H_    0.015865 0.751253 0.379927 0.124793
H39   H     H_    0.486357 0.721579 0.615771 0.133346
H40   H     H_    0.486270 0.278232 0.616020 0.133166
H41   H     H_    0.009881 0.178980 0.568105 0.131314
H42   H     H_    0.010682 0.821743 0.566515 0.130992
H43   H     H_    0.489757 0.791084 0.608922 0.103575
H44   H     H_    0.489795 0.208703 0.608911 0.103426
H45   H     H_    0.982782 0.237578 0.622367 0.120031
H46   H     H_    0.457776 0.334050 0.495614 0.121358
H47   H     H_    0.982914 0.763771 0.622045 0.120487
H48   H     H_    0.400557 0.790433 0.609375 0.103533
H49   H     H_    0.400621 0.209327 0.609398 0.103436
H50   H     H_    0.894533 0.236989 0.622282 0.120298
H51   H     H_    0.894738 0.764359 0.621890 0.120853
H52   H     H_    0.993193 0.185124 0.424534 0.104513
H53   H     H_    0.993968 0.814095 0.423061 0.104311
H54   H     H_    0.384644 0.765760 0.063828 0.109632
H55   H     H_    0.384144 0.237213 0.063826 0.109743
H56   H     H_    0.884225 0.263355 0.063828 0.109653
H57   H     H_    0.594747 0.203150 0.397844 0.132784
H58   H     H_    0.884829 0.733339 0.063831 0.109565
H59   H     H_    0.448664 0.766415 0.936371 0.109859
H60   H     H_    0.448137 0.236561 0.936367 0.109958
H61   H     H_    0.948225 0.264014 0.936372 0.109829
H62   H     H_    0.948854 0.732685 0.936375 0.109747
H63   H     H_    0.587619 0.813851 0.936635 0.112414
H64   H     H_    0.585317 0.184208 0.936625 0.112442
H65   H     H_    0.085782 0.315430 0.936630 0.112586
H66   H     H_    0.088328 0.686768 0.936628 0.112575
H67   H     H_    0.521457 0.834235 0.936069 0.109778
H68   H     H_    0.064592 0.330486 0.458762 0.132645
H69   H     H_    0.518476 0.166205 0.936053 0.109692
H70   H     H_    0.019055 0.333901 0.936065 0.109738
H71   H     H_    0.022392 0.665659 0.936066 0.109868
H72   H     H_    0.456927 0.834060 0.063548 0.109879
H73   H     H_    0.453954 0.166400 0.063533 0.109794
H74   H     H_    0.954530 0.333706 0.063544 0.109841
H75   H     H_    0.957863 0.665827 0.063545 0.109967
H76   H     H_    0.523271 0.814301 0.064106 0.112293
H77   H     H_    0.520954 0.183772 0.064096 0.112306
H78   H     H_    0.021422 0.315865 0.064102 0.112471
H79   H     H_    0.063727 0.669111 0.460551 0.132332
H80   H     H_    0.023988 0.686313 0.064099 0.112465
H81   H     H_    0.559248 0.669665 0.936477 0.110349
H82   H     H_    0.562068 0.329304 0.936488 0.110246
H83   H     H_    0.061552 0.170465 0.936482 0.110190
H84   H     H_    0.058375 0.830640 0.936481 0.110325
H85   H     H_    0.553366 0.835162 0.481761 0.118297
H86   H     H_    0.553446 0.164710 0.481416 0.118180
H87   H     H_    0.015450 0.326177 0.558423 0.102855
H88   H     H_    0.014596 0.674506 0.560095 0.102763
H89   H     H_    0.610240 0.717077 0.936170 0.109692
H90   H     H_    0.398325 0.720927 0.615272 0.133596
H91   H     H_    0.611350 0.280115 0.936174 0.109800
H92   H     H_    0.111171 0.219322 0.936170 0.109870
H93   H     H_    0.109886 0.783784 0.936168 0.109765
H94   H     H_    0.495985 0.669787 0.063933 0.110013
H95   H     H_    0.498805 0.329158 0.063945 0.109915
H96   H     H_    0.998286 0.170606 0.063937 0.109851
H97   H     H_    0.995115 0.830523 0.063937 0.109982
H98   H     H_    0.464498 0.698678 0.935907 0.112465
H99   H     H_    0.466362 0.303698 0.935919 0.112465
H100  H     H_    0.965994 0.196743 0.935910 0.112302
H101  H     H_    0.398254 0.278940 0.615546 0.133416
H102  H     H_    0.963942 0.800590 0.935912 0.112313
H103  H     H_    0.401080 0.698146 0.063357 0.112708
H104  H     H_    0.402961 0.304207 0.063370 0.112705
H105  H     H_    0.902592 0.196225 0.063360 0.112516
H106  H     H_    0.900523 0.801127 0.063362 0.112537
H107  H     H_    0.546582 0.717598 0.063626 0.110090
H108  H     H_    0.547676 0.279582 0.063631 0.110204
H109  H     H_    0.047499 0.219850 0.063627 0.110235
H110  H     H_    0.046237 0.783264 0.063624 0.110123
H111  H     H_    0.773923 0.955875 0.386264 0.134085
H112  H     H_    0.922591 0.178734 0.567290 0.131189
H113  H     H_    0.773931 0.044128 0.386259 0.134084
H114  H     H_    0.270285 0.455901 0.388202 0.134935
H115  H     H_    0.270289 0.544101 0.388199 0.134941
H116  H     H_    0.843302 0.955501 0.387117 0.103928
H117  H     H_    0.843304 0.044492 0.387120 0.103927
H118  H     H_    0.341281 0.455510 0.385465 0.104647
H119  H     H_    0.341282 0.544484 0.385467 0.104641
H120  H     H_    0.661324 0.955672 0.510510 0.119846
H121  H     H_    0.661328 0.044332 0.510504 0.119853
H122  H     H_    0.159844 0.455666 0.514720 0.119205
H123  H     H_    0.923374 0.821979 0.565655 0.130844
H124  H     H_    0.159845 0.544338 0.514717 0.119217
H125  H     H_    0.753010 0.956143 0.597421 0.133807
H126  H     H_    0.753003 0.043854 0.597424 0.133809
H127  H     H_    0.256999 0.456138 0.594324 0.134897
H128  H     H_    0.256996 0.543861 0.594325 0.134900
H129  H     H_    0.831098 0.955804 0.510345 0.115571
H130  H     H_    0.831094 0.044193 0.510349 0.115586
H131  H     H_    0.333519 0.455771 0.505717 0.114566
H132  H     H_    0.333518 0.544224 0.505717 0.114571
H133  H     H_    0.464653 0.835180 0.482600 0.118155
H134  H     H_    0.546098 0.666169 0.496334 0.121938
H135  H     H_    0.464779 0.164725 0.482320 0.117988
H136  H     H_    0.926085 0.325868 0.559206 0.102906
H137  H     H_    0.925280 0.674811 0.560749 0.102879
H138  H     H_    0.652920 0.955654 0.597175 0.106970
H139  H     H_    0.652916 0.044352 0.597172 0.106967
H140  H     H_    0.154552 0.455658 0.599325 0.108019
H141  H     H_    0.154550 0.544347 0.599324 0.108022
H142  H     H_    0.840083 0.544093 0.387116 0.134516
H143  H     H_    0.840082 0.455900 0.387117 0.134518
H144  H     H_    0.341602 0.044070 0.388406 0.134624
O1    O     O_3   0.750010 0.750010 0.500000 -0.425639
O2    O     O_R   0.740870 0.133130 0.457020 -0.551251
O3    O     O_R   0.240870 0.366870 0.457020 -0.551279
O4    O     O_R   0.240870 0.633130 0.457020 -0.551254
O5    O     O_R   0.862620 0.719400 0.336030 -0.541351
O6    O     O_R   0.862620 0.280600 0.336030 -0.541335
O7    O     O_R   0.362620 0.219400 0.336030 -0.541568
O8    O     O_R   0.362620 0.780600 0.336030 -0.541573
O9    O     O_R   0.698690 0.780630 0.663960 -0.541457
O10   O     O_R   0.698690 0.219370 0.663960 -0.541458
O11   O     O_R   0.198690 0.280630 0.663960 -0.541263
O12   O     O_3   0.750010 0.249990 0.500000 -0.425645
O13   O     O_R   0.198690 0.719370 0.663960 -0.541251
O14   O     O_R   0.801340 0.780670 0.336040 -0.541507
O15   O     O_R   0.801340 0.219330 0.336040 -0.541524
O16   O     O_R   0.301340 0.280670 0.336040 -0.541354
O17   O     O_R   0.301340 0.719330 0.336040 -0.541364
O18   O     O_R   0.637410 0.719360 0.663970 -0.541296
O19   O     O_R   0.637410 0.280640 0.663970 -0.541304
O20   O     O_R   0.137410 0.219360 0.663970 -0.541414
O21   O     O_R   0.137410 0.780640 0.663970 -0.541410
O22   O     O_R   0.802130 0.633170 0.457010 -0.551196
O23   O     O_3   0.250010 0.250010 0.500000 -0.425642
O24   O     O_R   0.802130 0.366830 0.457010 -0.551204
O25   O     O_R   0.302130 0.133170 0.457010 -0.551329
O26   O     O_R   0.302130 0.866830 0.457010 -0.551312
O27   O     O_R   0.759170 0.866860 0.542980 -0.552291
O28   O     O_R   0.759170 0.133140 0.542980 -0.552292
O29   O     O_R   0.259170 0.366860 0.542980 -0.552115
O30   O     O_R   0.259170 0.633140 0.542980 -0.552131
O31   O     O_R   0.888360 0.719380 0.456990 -0.550642
O32   O     O_R   0.888360 0.280620 0.456990 -0.550667
O33   O     O_R   0.388360 0.219380 0.456990 -0.552299
O34   O     O_3   0.250010 0.749990 0.500000 -0.425646
O35   O     O_R   0.388360 0.780620 0.456990 -0.552385
O36   O     O_R   0.654640 0.780660 0.457030 -0.552206
O37   O     O_R   0.654640 0.219340 0.457030 -0.552159
O38   O     O_R   0.154640 0.280660 0.457030 -0.550527
O39   O     O_R   0.154640 0.719340 0.457030 -0.550527
O40   O     O_R   0.845390 0.780640 0.542970 -0.552984
O41   O     O_R   0.845390 0.219360 0.542970 -0.552940
O42   O     O_R   0.345390 0.280640 0.542970 -0.551240
O43   O     O_R   0.345390 0.719360 0.542970 -0.551297
O44   O     O_R   0.611660 0.719380 0.543010 -0.551156
O45   O     O_R   0.697880 0.633160 0.542990 -0.552136
O46   O     O_R   0.611660 0.280620 0.543010 -0.551158
O47   O     O_R   0.111660 0.219380 0.543010 -0.552790
O48   O     O_R   0.111660 0.780620 0.543010 -0.552857
O49   O     O_R   0.697880 0.366840 0.542990 -0.552143
O50   O     O_R   0.197880 0.133160 0.542990 -0.552163
O51   O     O_R   0.197880 0.866840 0.542990 -0.552175
O52   O     O_R   0.740870 0.866870 0.457020 -0.551266
Zn1   Zn    Zn3+2 0.675530 0.706240 0.561430 0.915161
Zn2   Zn    Zn3+2 0.763090 0.206230 0.561410 0.914328
Zn3   Zn    Zn3+2 0.263090 0.293770 0.561410 0.915175
Zn4   Zn    Zn3+2 0.263090 0.706230 0.561410 0.915154
Zn5   Zn    Zn3+2 0.736940 0.793790 0.438590 0.914928
Zn6   Zn    Zn3+2 0.736940 0.206210 0.438590 0.914944
Zn7   Zn    Zn3+2 0.236940 0.293790 0.438590 0.915627
Zn8   Zn    Zn3+2 0.236940 0.706210 0.438590 0.915623
Zn9   Zn    Zn3+2 0.675530 0.293760 0.561430 0.915156
Zn10  Zn    Zn3+2 0.175530 0.206240 0.561430 0.914463
Zn11  Zn    Zn3+2 0.175530 0.793760 0.561430 0.914455
Zn12  Zn    Zn3+2 0.824490 0.706250 0.438570 0.915618
Zn13  Zn    Zn3+2 0.824490 0.293750 0.438570 0.915600
Zn14  Zn    Zn3+2 0.324490 0.206250 0.438570 0.914810
Zn15  Zn    Zn3+2 0.324490 0.793750 0.438570 0.914779
Zn16  Zn    Zn3+2 0.763090 0.793770 0.561410 0.914315

loop_
_geom_bond_atom_site_label_1
_geom_bond_atom_site_label_2
_ccdc_geom_bond_type
C22   O41   A    
C63   H66   S    
C98   H84   S    
O4    Zn8   S    
O23   Zn3   S    
O48   Zn11  S    
C90   C95   S    
C124  C133  S    
C48   H52   S    
C87   C91   S    
C6    H10   S    
C117  H120  S    
O8    Zn15  S    
C41   H13   S    
C63   C76   S    
C92   H96   S    
C76   C98   S    
C23   C43   S    
C120  C133  S    
C26   C126  S    
C89   C94   S    
C23   O33   A    
C118  H139  S    
C38   C45   S    
C118  C131  S    
C91   C96   S    
C44   C53   S    
C40   H2    S    
C56   H99   S    
C67   H75   S    
C37   H136  S    
C4    C12   S    
C59   C73   S    
C21   C45   S    
C81   C86   S    
C39   H134  S    
O34   Zn4   S    
C57   H61   S    
C104  H45   S    
O2    Zn6   S    
C127  O49   A    
O28   Zn2   S    
C13   C41   S    
C93   H44   S    
C80   O21   A    
C65   C87   S    
O22   Zn12  S    
C114  H118  S    
C3    H7    S    
C86   C90   S    
C121  H129  S    
C62   C66   S    
C122  H126  S    
C116  C133  S    
C120  H124  S    
C124  H132  S    
C29   O39   A    
C62   H65   S    
C65   H77   S    
C10   H15   S    
C119  C120  S    
C38   H137  S    
O50   Zn10  S    
C86   C99   S    
C1    O14   A    
C76   C107  S    
O24   Zn13  S    
C35   C51   S    
O12   Zn9   S    
C62   C75   S    
C73   C95   S    
C56   C83   S    
C27   O37   A    
C136  H144  S    
O43   Zn4   S    
C84   C88   S    
C4    C5    S    
C4    H8    S    
C6    C7    S    
C61   C74   S    
C19   O3    A    
C33   C38   S    
C19   O29   A    
C37   C44   S    
O3    Zn7   S    
C123  H131  S    
C45   C50   S    
C85   H106  S    
C95   H81   S    
C49   O15   A    
C69   C100  T    
C61   C65   S    
C73   C103  S    
C119  H122  S    
C5    H22   S    
C124  H128  S    
C31   C36   S    
C64   H76   S    
C43   C47   S    
C62   H70   S    
C44   C48   S    
C38   H29   S    
O38   Zn7   S    
C54   H51   S    
C123  C132  S    
C13   C32   S    
C121  C130  S    
O34   Zn11  S    
C95   H89   S    
C33   H79   S    
C70   C101  T    
C58   C76   S    
C123  C124  S    
O42   Zn3   S    
C7    H25   S    
C27   O46   A    
O1    Zn1   S    
O29   Zn3   S    
C34   C35   S    
C66   C88   S    
C43   C52   S    
C14   C135  S    
C53   C104  S    
C113  H113  S    
C3    C136  S    
O31   Zn12  S    
C50   H53   S    
O5    Zn12  S    
C119  H140  S    
C104  H41   S    
O12   Zn6   S    
C36   H27   S    
C2    C40   S    
O23   Zn7   S    
C66   H74   S    
C12   C134  S    
C71   O8    A    
O16   Zn7   S    
C67   H80   S    
O6    Zn13  S    
O20   Zn10  S    
C92   C97   S    
C7    H11   S    
C49   O6    A    
C1    C72   S    
C5    H9    S    
O33   Zn14  S    
C30   C34   S    
O23   Zn10  S    
C74   C96   S    
C127  O24   A    
C31   H57   S    
C15   C136  S    
C46   H34   S    
C91   H95   S    
C53   H50   S    
C71   O17   A    
O34   Zn8   S    
C4    H21   S    
C25   O43   A    
C8    C12   S    
O7    Zn14  S    
C97   H92   S    
C51   H90   S    
C125  O45   A    
C52   C93   S    
C32   C37   S    
C8    H17   S    
C2    C27   S    
C42   C50   S    
C37   H28   S    
C52   H101  S    
O14   Zn5   S    
C3    H3    S    
C55   H98   S    
C122  C131  S    
C122  H130  S    
C87   C100  S    
C19   C132  S    
C105  C109  T    
C83   H104  S    
C17   C130  S    
C107  C111  T    
C77   C108  S    
C42   H24   S    
C34   H26   S    
C10   H19   S    
C9    H18   S    
C17   O52   A    
C114  C116  S    
C134  C135  S    
C116  H115  S    
O39   Zn8   S    
C29   O48   A    
C57   C75   S    
O12   Zn2   S    
C117  C118  S    
O10   Zn2   S    
C74   C105  S    
C120  H141  S    
C72   C102  T    
C60   C69   S    
C78   C109  S    
C10   C11   S    
C55   C73   S    
C80   O13   A    
C135  H5    S    
C91   H108  S    
C39   C126  S    
C90   H94   S    
C63   H71   S    
C112  C130  S    
C3    C16   S    
C61   H69   S    
O12   Zn13  S    
C112  H111  S    
C83   C87   S    
C24   C42   S    
C1    O5    A    
C33   H88   S    
C135  H143  S    
C83   H55   S    
O21   Zn11  S    
O37   Zn6   S    
C85   H58   S    
C28   O47   A    
C94   C98   S    
C41   H32   S    
C75   C97   S    
C24   C29   S    
C82   C126  S    
C40   H31   S    
C136  H6    S    
C56   H60   S    
O1    Zn16  S    
C82   H43   S    
C13   C28   S    
C78   O10   A    
C84   H105  S    
O34   Zn15  S    
C26   O44   A    
C30   H1    S    
C128  O50   A    
O1    Zn5   S    
C54   H123  S    
C18   C131  S    
C8    H12   S    
C64   C86   S    
C88   C101  S    
C30   H85   S    
O13   Zn4   S    
C9    H14   S    
C56   C74   S    
C134  H142  S    
C113  H117  S    
C51   H48   S    
O9    Zn16  S    
C85   C89   S    
C12   C125  S    
O17   Zn8   S    
O1    Zn12  S    
C14   C127  S    
C81   H103  S    
O19   Zn9   S    
C32   H68   S    
C9    C14   S    
C42   H33   S    
O27   Zn16  S    
O47   Zn10  S    
C11   C16   S    
C54   C115  S    
C57   C84   S    
O35   Zn15  S    
C13   C104  S    
C94   H110  S    
O49   Zn9   S    
C5    C14   S    
C25   C35   S    
C23   O42   A    
O32   Zn13  S    
C15   C128  S    
O23   Zn14  S    
C32   H87   S    
O44   Zn1   S    
C128  O25   A    
C79   C110  S    
O15   Zn6   S    
C117  H138  S    
C115  H47   S    
C92   H109  S    
C94   H97   S    
C24   C33   S    
C60   O7    A    
C50   H38   S    
C39   H30   S    
C53   H112  S    
C134  H4    S    
C68   C71   S    
C80   C111  S    
C81   H54   S    
C115  H42   S    
C59   H67   S    
C75   C106  S    
C20   O30   A    
C21   O31   A    
C36   C43   S    
C22   O32   A    
C20   O4    A    
C35   C46   S    
C79   O11   A    
C77   O18   A    
C116  H119  S    
C114  H114  S    
C40   C47   S    
C55   H59   S    
C30   C126  S    
C66   H78   S    
C89   C102  S    
O45   Zn1   S    
O25   Zn14  S    
C6    H23   S    
C118  H121  S    
C64   H72   S    
C59   C64   S    
C10   C15   S    
C77   O9    A    
C31   H86   S    
C67   C89   S    
C46   H35   S    
C129  O26   A    
C121  H125  S    
C6    C15   S    
C41   C48   S    
C22   C44   S    
C88   C92   S    
C123  H127  S    
C8    C9    S    
C97   H83   S    
C34   H133  S    
C103  C108  T    
C20   C133  S    
C65   H73   S    
C90   H107  S    
C47   H46   S    
C61   H64   S    
C112  C113  S    
C112  H116  S    
O30   Zn4   S    
C2    C31   S    
C63   C67   S    
C96   H91   S    
C59   H63   S    
C25   O35   A    
C26   O36   A    
C57   H100  S    
C28   O38   A    
C16   C129  S    
C98   H93   S    
O36   Zn5   S    
O26   Zn15  S    
C18   O2    A    
C17   O27   A    
C119  C132  S    
C121  C122  S    
C18   O28   A    
C82   H39   S    
C117  C130  S    
C51   C82   S    
C11   H20   S    
O18   Zn1   S    
C39   C46   S    
C47   H36   S    
C125  O22   A    
O51   Zn11  S    
C78   O19   A    
C45   C54   S    
C7    C16   S    
C55   C81   S    
C52   H49   S    
O40   Zn16  S    
C129  O51   A    
C58   C85   S    
C48   H37   S    
C106  C110  T    
C58   H62   S    
C21   O40   A    
O41   Zn2   S    
C113  C131  S    
C114  C132  S    
C2    C93   S    
C79   O20   A    
C93   H40   S    
C49   C70   S    
C68   C99   T    
C60   O16   A    
C96   H82   S    
O11   Zn3   S    
C36   H135  S    
C84   H56   S    
C11   H16   S    
C24   C115  S    
O52   Zn5   S    
C58   H102  S    
O46   Zn9   S    
