data_mof_unit_48679.cif
_audit_creation_date              2012-12-11T15:21:09-0500
_audit_creation_method            fapswitch 2.2
_symmetry_space_group_name_H-M    P1
_symmetry_Int_Tables_number       1
_space_group_crystal_system       triclinic
_cell_length_a                    18.41892
_cell_length_b                    18.331855
_cell_length_c                    51.118098
_cell_angle_alpha                 89.974153
_cell_angle_beta                  89.78894
_cell_angle_gamma                 120.12225
_cell_volume                      14929.1505233

loop_
_atom_site_label
_atom_site_type_symbol
_atom_type_description
_atom_site_fract_x
_atom_site_fract_y
_atom_site_fract_z
_atom_type_partial_charge
C1    C     C_R   0.408974 0.584027 0.287664 0.575069
C2    C     C_R   0.525206 0.398875 0.858851 -0.106545
C3    C     C_R   0.391560 0.937726 0.092311 0.488389
C4    C     C_R   0.512810 0.038614 0.396876 0.506098
C5    C     C_R   0.498345 0.899894 0.088570 0.472713
C6    C     C_R   0.460474 0.874564 0.359271 0.216009
C7    C     C_R   0.399513 0.805421 0.138375 0.304262
C8    C     C_R   0.451995 0.836771 0.334494 0.150189
C9    C     C_R   0.390871 0.782690 0.165025 0.157428
C10   C     C_R   0.411561 0.933810 0.315713 0.173439
C11   C     C_R   0.455948 0.931915 0.177060 0.225089
C12   C     C_R   0.412817 0.966042 0.340838 0.261141
C13   C     C_R   0.554177 0.489996 0.636322 0.168761
C14   C     C_R   0.462711 0.953989 0.150395 0.277664
C15   C     C_R   0.438153 0.936791 0.362406 0.202483
C16   C     C_R   0.434194 0.890313 0.131081 0.177890
C17   C     C_R   0.457709 0.008723 0.441345 -0.159569
C18   C     C_R   0.446428 0.933550 0.049246 -0.142470
C19   C     C_R   0.380266 0.943634 0.431764 0.019383
C20   C     C_R   0.395958 0.953579 0.065080 0.003230
C21   C     C_R   0.311995 0.901234 0.449279 0.269962
C22   C     C_R   0.354714 0.992819 0.053467 0.271946
C23   C     C_R   0.080609 0.469879 0.404913 0.440448
C24   C     C_R   0.552175 0.483114 0.864376 0.169695
C25   C     C_R   0.150725 0.561054 0.087849 0.489469
C26   C     C_R   0.522357 0.060694 0.423651 0.023910
C27   C     C_R   0.501383 0.910538 0.061113 0.025719
C28   C     C_R   0.428468 0.867386 0.312751 -0.029487
C29   C     C_R   0.420268 0.846762 0.184460 -0.047421
C30   C     C_R   0.563371 0.136569 0.685779 -0.036792
C31   C     C_R   0.559023 0.131021 0.812775 -0.048296
C32   C     C_R   0.424061 0.971631 0.513438 0.060521
C33   C     C_R   0.383173 0.962044 0.981686 0.053330
C34   C     C_R   0.565380 0.092922 0.505761 0.029494
C35   C     C_R   0.538998 0.612519 0.490261 0.008460
C36   C     C_R   0.485371 0.914318 0.978218 0.054871
C37   C     C_R   0.501069 0.037532 0.523259 -0.111930
C38   C     C_R   0.436999 0.945028 0.966322 -0.104539
C39   C     C_R   0.370811 0.905816 0.530727 0.281535
C40   C     C_R   0.320011 0.969689 0.968314 0.270021
C41   C     C_R   0.378441 0.919513 0.558016 0.246447
C42   C     C_R   0.331287 0.993325 0.941516 0.246077
C43   C     C_R   0.450095 0.991076 0.568106 0.042490
C44   C     C_R   0.394456 0.989497 0.926809 0.037506
C45   C     C_R   0.514324 0.046432 0.550714 -0.156219
C46   C     C_R   0.578403 0.602476 0.012512 0.008688
C47   C     C_R   0.441229 0.956973 0.938797 -0.155517
C48   C     C_R   0.070271 0.573172 0.353769 0.248081
C49   C     C_R   0.110785 0.601419 0.142321 0.254697
C50   C     C_R   0.591268 0.111020 0.560755 -0.000405
C51   C     C_R   0.494122 0.938674 0.923477 0.016211
C52   C     C_R   0.598949 0.125522 0.588054 0.499226
C53   C     C_R   0.508550 0.964789 0.897039 0.473328
C54   C     C_R   0.460646 0.007642 0.595238 0.485258
C55   C     C_R   0.412163 0.016443 0.900413 0.508166
C56   C     C_R   0.582112 0.062943 0.648673 0.302936
C57   C     C_R   0.540082 0.552863 0.472978 -0.085127
C58   C     C_R   0.450754 0.015668 0.838929 0.313709
C59   C     C_R   0.591226 0.082654 0.675473 0.188094
C60   C     C_R   0.479002 0.056632 0.814637 0.196913
C61   C     C_R   0.520293 0.164108 0.669106 0.164407
C62   C     C_R   0.608470 0.164717 0.835674 0.196664
C63   C     C_R   0.506207 0.138424 0.642572 0.241008
C64   C     C_R   0.579267 0.122107 0.859815 0.280899
C65   C     C_R   0.541518 0.092555 0.632272 0.202873
C66   C     C_R   0.500395 0.048564 0.861393 0.174055
C67   C     C_R   0.406421 0.968249 0.486274 0.049739
C68   C     C_R   0.500048 0.553387 0.025066 -0.092387
C69   C     C_R   0.389780 0.963602 0.009638 0.047985
C70   C     C_R   0.471097 0.020916 0.468719 -0.107248
C71   C     C_R   0.442498 0.937185 0.021538 -0.088112
C72   C     C_R   0.112675 0.606645 0.329831 0.187087
C73   C     C_R   0.126978 0.619662 0.169212 0.203837
C74   C     C_R   0.547776 0.087659 0.478343 0.046754
C75   C     C_R   0.494220 0.917851 0.005870 0.064939
C76   C     C_R   0.323954 0.919683 0.476286 0.290239
C77   C     C_R   0.353607 0.000093 0.025913 0.291722
C78   C     C_R   0.593529 0.133632 0.433196 0.232241
C79   C     C_R   0.547914 0.485552 0.483102 0.057922
C80   C     C_R   0.559553 0.901370 0.045412 0.218751
C81   C     C_R   0.647220 0.146079 0.516030 0.285697
C82   C     C_R   0.518218 0.875053 0.962039 0.274586
C83   C     C_R   0.659392 0.156789 0.543380 0.265618
C84   C     C_R   0.530306 0.894366 0.935053 0.263558
C85   C     C_R   0.599929 0.151424 0.460317 0.270258
C86   C     C_R   0.560971 0.913761 0.018085 0.258358
C87   C     C_R   0.503128 0.623683 0.408505 0.457959
C88   C     C_R   0.547815 0.637899 0.092846 0.440780
C89   C     C_R   0.530862 0.510348 0.401329 0.504227
C90   C     C_R   0.429938 0.495170 0.010422 0.055034
C91   C     C_R   0.411519 0.518876 0.092618 0.483186
C92   C     C_R   0.412135 0.502332 0.355538 0.242029
C93   C     C_R   0.427463 0.487694 0.148821 0.302480
C94   C     C_R   0.389278 0.502537 0.329380 0.188857
C95   C     C_R   0.407566 0.492095 0.175121 0.211810
C96   C     C_R   0.092621 0.468291 0.318432 0.247592
C97   C     C_R   0.113372 0.481543 0.176391 0.172544
C98   C     C_R   0.523041 0.631694 0.321621 0.205849
C99   C     C_R   0.521190 0.637256 0.177093 0.254719
C100  C     C_R   0.546105 0.630272 0.347904 0.254445
C101  C     C_R   0.513689 0.668471 0.480342 0.309430
C102  C     C_R   0.545684 0.627269 0.151830 0.233894
C103  C     C_R   0.489809 0.566352 0.364737 0.194965
C104  C     C_R   0.485643 0.562881 0.135447 0.071294
C105  C     C_R   0.532677 0.559835 0.445643 -0.144572
C106  C     C_R   0.492020 0.562767 0.052199 -0.160322
C107  C     C_R   0.515009 0.621303 0.435698 -0.003541
C108  C     C_R   0.558490 0.629128 0.065938 -0.015124
C109  C     C_R   0.506332 0.676185 0.453288 0.279103
C110  C     C_R   0.632664 0.686114 0.052320 0.290516
C111  C     C_R   0.541763 0.504373 0.428413 0.016709
C112  C     C_R   0.410208 0.583892 0.212593 0.548501
C113  C     C_R   0.640712 0.675196 0.025532 0.304843
C114  C     C_R   0.416043 0.508944 0.065296 -0.008298
C115  C     C_R   0.441737 0.571059 0.312787 -0.057796
C116  C     C_R   0.446697 0.570717 0.188162 -0.053316
C117  C     C_R   0.571424 0.445289 0.687786 0.006886
C118  C     C_R   0.572385 0.435436 0.813805 0.022999
C119  C     C_R   0.558651 0.610485 0.517107 0.008545
C120  C     C_R   0.589573 0.578702 0.987014 0.017784
C121  C     C_R   0.055928 0.436827 0.343004 0.251723
C122  C     C_R   0.092189 0.461831 0.149685 0.236939
C123  C     C_R   0.535025 0.467615 0.510308 0.029160
C124  C     C_R   0.562610 0.445452 0.438702 0.272420
C125  C     C_R   0.436442 0.498040 0.982591 0.036735
C126  C     C_R   0.546991 0.533512 0.527377 -0.099341
C127  C     C_R   0.517476 0.533578 0.971247 -0.094743
C128  C     C_R   0.592430 0.682734 0.533522 0.338928
C129  C     C_R   0.668759 0.594989 0.977317 0.277461
C130  C     C_R   0.604099 0.673634 0.560455 0.239355
C131  C     C_R   0.674697 0.572097 0.951195 0.241191
C132  C     C_R   0.572388 0.592062 0.571472 -0.012745
C133  C     C_R   0.606378 0.546538 0.933931 0.028800
C134  C     C_R   0.547143 0.522439 0.554658 -0.131897
C135  C     C_R   0.348251 0.444674 0.051032 0.260243
C136  C     C_R   0.526637 0.524792 0.944201 -0.144624
C137  C     C_R   0.521984 0.441758 0.565013 -0.002196
C138  C     C_R   0.456004 0.493357 0.927632 0.008574
C139  C     C_R   0.527718 0.433407 0.592225 0.419756
C140  C     C_R   0.467368 0.485826 0.900561 0.436854
C141  C     C_R   0.566593 0.578153 0.598779 0.465546
C142  C     C_R   0.614236 0.536473 0.906882 0.496212
C143  C     C_R   0.632810 0.531590 0.648541 0.304940
C144  C     C_R   0.588498 0.544525 0.844587 0.317111
C145  C     C_3   0.032392 0.378026 0.284647 -0.060118
C146  C     C_R   0.504975 0.385122 0.520589 0.332852
C147  C     C_3   0.178785 0.408378 0.187966 -0.008857
C148  C     C_3   0.258856 0.592371 0.438578 -0.071678
C149  C     C_3   0.340199 0.677917 0.047177 -0.031448
C150  C     C_3   0.175406 0.394841 0.530140 -0.031590
C151  C     C_3   0.311215 0.661440 0.957365 -0.004148
C152  C     C_3   0.183028 0.585450 0.506692 -0.143985
C153  C     C_3   0.184232 0.724518 0.999445 -0.100362
C154  C     C_3   0.461853 0.028902 0.282628 -0.074025
C155  C     C_3   0.564424 0.026857 0.201843 -0.103862
C156  C     C_3   0.308283 0.996935 0.344539 -0.080531
C157  C     C_R   0.365786 0.470973 0.966032 0.339608
C158  C     C_3   0.571241 0.071393 0.130970 -0.095585
C159  C     C_3   0.212989 0.763271 0.444990 -0.080696
C160  C     C_3   0.379382 0.109799 0.076035 -0.085407
C161  C     C_3   0.562666 0.932064 0.641375 -0.065978
C162  C     C_3   0.378688 0.873104 0.835690 -0.059681
C163  C     C_3   0.780387 0.166393 0.557909 -0.080576
C164  C     C_3   0.659262 0.914843 0.924578 -0.067195
C165  C     C_3   0.622550 0.665682 0.290417 -0.101704
C166  C     C_3   0.594820 0.781923 0.180240 -0.019206
C167  C     C_3   0.552183 0.813562 0.443556 -0.030377
C168  C     C_R   0.985676 0.447947 0.441076 -0.139362
C169  C     C_3   0.758023 0.735064 0.072458 -0.038581
C170  C     C_3   0.731165 0.627657 0.697660 -0.050798
C171  C     C_3   0.723554 0.629318 0.802880 -0.056149
C172  C     C_3   0.741926 0.553373 0.622512 -0.030981
C173  C     C_3   0.550755 0.644541 0.843342 -0.072683
C174  C     C_3   0.610600 0.818382 0.534660 -0.006037
C175  C     C_3   0.809994 0.689807 0.985282 -0.043521
C176  C     C_3   0.408714 0.658747 0.506233 -0.111610
C177  C     C_3   0.678397 0.780424 0.995400 -0.102964
C178  C     C_3   0.320256 0.371390 0.312078 -0.045033
C179  C     C_R   0.064360 0.485661 0.050508 -0.159201
C180  C     C_3   0.388147 0.388086 0.203240 -0.090532
C181  C     C_3   0.299130 0.455947 0.382421 -0.024715
C182  C     C_3   0.449335 0.388180 0.129383 -0.084927
C183  C     C_3   0.509536 0.313141 0.422303 -0.074543
C184  C     C_3   0.213009 0.408219 0.059102 -0.074240
C185  C     C_3   0.499137 0.259474 0.508752 0.004635
C186  C     C_3   0.219652 0.386342 0.968268 -0.013704
C187  C     C_3   0.222999 0.738177 0.336249 -0.078534
C188  C     C_3   0.064419 0.687961 0.186536 -0.092315
C189  C     C_R   0.492766 0.371927 0.547849 0.244998
C190  C     C_R   0.376608 0.471411 0.938554 0.233513
C191  C     C_R   0.571466 0.440816 0.466005 0.286715
C192  C     C_R   0.046221 0.490162 0.360841 0.171138
C193  C     C_R   0.357946 0.434146 0.024022 0.279681
C194  C     C_R   0.591780 0.176353 0.712049 0.555070
C195  C     C_R   0.591047 0.175431 0.787556 0.510816
C196  C     C_R   0.825013 0.415540 0.712221 0.572093
C197  C     C_R   0.824634 0.415822 0.787540 0.511647
C198  C     C_R   0.584334 0.409872 0.712449 0.595086
C199  C     C_R   0.584493 0.408238 0.787775 0.596251
C200  C     C_R   0.923157 0.437718 0.422984 0.079209
C201  C     C_R   0.002118 0.427462 0.067925 0.061658
C202  C     C_R   0.843681 0.420135 0.432386 0.239645
C203  C     C_R   0.096700 0.523914 0.132531 0.225639
C204  C     C_R   0.931428 0.355198 0.057818 0.255787
C205  C     C_R   0.065715 0.465691 0.432090 -0.015449
C206  C     C_R   0.139030 0.553729 0.060486 -0.038342
C207  C     C_R   0.124586 0.554374 0.312000 -0.062335
C208  C     C_R   0.134888 0.562320 0.186017 -0.021846
C209  C     C_R   0.865327 0.424004 0.686067 -0.025782
C210  C     C_R   0.870586 0.429617 0.812389 -0.044985
C211  C     C_R   0.878990 0.431740 0.505230 0.043930
C212  C     C_R   0.954898 0.409529 0.986596 0.037519
C213  C     C_R   0.002793 0.416913 0.512362 0.012103
C214  C     C_R   0.640928 0.512243 0.674560 0.197150
C215  C     C_R   0.101949 0.517160 0.977923 0.003476
C216  C     C_R   0.932127 0.419242 0.522380 -0.086966
C217  C     C_R   0.020341 0.458756 0.968636 -0.085910
C218  C     C_R   0.174993 0.590670 0.287688 0.560713
C219  C     C_R   0.175532 0.591203 0.212158 0.572146
C220  C     C_R   0.817885 0.448599 0.516098 0.231515
C221  C     C_R   0.871190 0.363769 0.977504 0.211925
C222  C     C_R   0.799283 0.436556 0.543219 0.270414
C223  C     C_R   0.855236 0.350095 0.950500 0.257301
C224  C     C_R   0.851004 0.421678 0.560198 0.077046
C225  C     C_R   0.601944 0.521288 0.819401 0.208431
C226  C     C_R   0.921126 0.394790 0.932370 0.045955
C227  C     C_R   0.917105 0.412610 0.549657 -0.143281
C228  C     C_R   0.003606 0.450148 0.941431 -0.147375
C229  C     C_R   0.967299 0.394970 0.566340 0.012739
C230  C     C_R   0.069505 0.495296 0.923290 0.000624
C231  C     C_R   0.958109 0.397942 0.593612 0.508831
C232  C     C_R   0.049928 0.489862 0.896292 0.501434
C233  C     C_R   0.839580 0.417040 0.587664 0.538366
C234  C     C_R   0.905914 0.388058 0.905249 0.514633
C235  C     C_R   0.869212 0.345974 0.647668 0.302030
C236  C     C_R   0.491209 0.408148 0.676011 0.169169
C237  C     C_R   0.961399 0.403529 0.841150 0.302611
C238  C     C_R   0.865643 0.352824 0.675000 0.153741
C239  C     C_R   0.927217 0.399088 0.816052 0.185314
C240  C     C_R   0.888191 0.495477 0.670090 0.180359
C241  C     C_R   0.854314 0.470227 0.833369 0.191930
C242  C     C_R   0.415737 0.824492 0.287481 0.607262
C243  C     C_R   0.415323 0.823392 0.212216 0.557203
C244  C     C_R   0.904792 0.492403 0.643057 0.194843
C245  C     C_R   0.895869 0.482011 0.857326 0.284882
C246  C     C_R   0.888712 0.415808 0.631825 0.233690
C247  C     C_R   0.534617 0.374132 0.833759 0.179869
C248  C     C_R   0.945040 0.444542 0.861521 0.222633
C249  C     C_R   0.891455 0.430017 0.477729 0.037696
C250  C     C_R   0.974454 0.410610 0.013407 0.024957
C251  C     C_R   0.968044 0.439929 0.468300 -0.057393
C252  C     C_R   0.051203 0.476131 0.023062 -0.058029
C253  C     C_R   0.027867 0.443426 0.486125 0.005309
C254  C     C_R   0.113068 0.533674 0.005443 0.003086
C255  C     C_R   0.829234 0.416751 0.459448 -0.068663
C256  C     C_R   0.919716 0.346814 0.030748 -0.079944
C257  C     C_R   0.130020 0.484442 0.450574 0.303668
C258  C     C_R   0.483649 0.431144 0.650366 -0.124219
C259  C     C_R   0.198537 0.614001 0.042962 0.282411
C260  C     C_R   0.044886 0.386844 0.528558 0.281041
C261  C     C_R   0.169907 0.553955 0.959720 0.319911
C262  C     C_R   0.022683 0.371198 0.555400 0.227039
C263  C     C_R   0.152951 0.542755 0.932506 0.228606
C264  C     C_R   0.112002 0.478773 0.477411 0.333457
C265  C     C_R   0.180950 0.608110 0.016078 0.305323
C266  C     C_R   0.942801 0.446991 0.395993 0.504601
C267  C     C_R   0.012354 0.443414 0.095022 0.507077
C268  C     C_R   0.373350 0.923791 0.404876 0.470811
Cr1   Cr    Cr6+3 0.456550 0.732290 0.250000 1.081090
Cr2   Cr    Cr6+3 0.275740 0.543450 0.250000 1.061943
Cr3   Cr    Cr6+3 0.267710 0.724260 0.250000 1.094139
Cr4   Cr    Cr6+3 0.543450 0.275740 0.750000 1.136120
Cr5   Cr    Cr6+3 0.724260 0.267710 0.750000 1.086471
Cr6   Cr    Cr6+3 0.732290 0.456550 0.750000 1.064170
H1    H     H_    0.423198 0.400429 0.640747 0.141558
H2    H     H_    0.194203 0.386079 0.206151 0.177574
H3    H     H_    0.641215 0.635000 0.133462 0.325353
H4    H     H_    0.601075 0.816387 0.430038 0.148305
H5    H     H_    0.579077 0.836064 0.463342 0.144693
H6    H     H_    0.532303 0.857513 0.435947 0.174800
H7    H     H_    0.787583 0.723136 0.055200 0.143979
H8    H     H_    0.731184 0.679764 0.085933 0.103536
H9    H     H_    0.808212 0.789529 0.083189 0.164367
H10   H     H_    0.683008 0.613559 0.713092 0.108005
H11   H     H_    0.730525 0.672057 0.682932 0.159306
H12   H     H_    0.793510 0.659659 0.707231 0.158548
H13   H     H_    0.065991 0.674302 0.363052 0.368706
H14   H     H_    0.753110 0.589314 0.803113 0.175354
H15   H     H_    0.740255 0.668241 0.820894 0.184540
H16   H     H_    0.750575 0.673153 0.786028 0.131530
H17   H     H_    0.702599 0.512566 0.606274 0.191121
H18   H     H_    0.757097 0.516124 0.636373 0.172794
H19   H     H_    0.801873 0.603007 0.613869 0.176889
H20   H     H_    0.492064 0.604163 0.854571 0.166602
H21   H     H_    0.538143 0.636519 0.821956 0.155256
H22   H     H_    0.571553 0.711136 0.848203 0.160674
H23   H     H_    0.687995 0.734577 0.586822 0.368226
H24   H     H_    0.127084 0.712733 0.133588 0.376378
H25   H     H_    0.764251 0.548554 0.957245 0.345461
H26   H     H_    0.662678 0.860965 0.547754 0.171754
H27   H     H_    0.550048 0.786046 0.545675 0.136159
H28   H     H_    0.604790 0.859047 0.519710 0.140469
H29   H     H_    0.799556 0.728344 0.970497 0.139252
H30   H     H_    0.852987 0.669438 0.977268 0.134227
H31   H     H_    0.843200 0.731756 0.002029 0.166027
H32   H     H_    0.894249 0.314371 0.706307 0.341577
H33   H     H_    0.941705 0.385235 0.778938 0.336656
H34   H     H_    0.406352 0.608460 0.518995 0.104164
H35   H     H_    0.268763 0.627976 0.457008 0.116432
H36   H     H_    0.363182 0.630220 0.489936 0.163113
H37   H     H_    0.389515 0.696498 0.518301 0.139896
H38   H     H_    0.626302 0.786497 0.004135 0.177685
H39   H     H_    0.658062 0.746461 0.976489 0.116469
H40   H     H_    0.730782 0.844967 0.991179 0.158613
H41   H     H_    0.339157 0.343582 0.328182 0.157589
H42   H     H_    0.365883 0.390802 0.295556 0.093533
H43   H     H_    0.258534 0.321437 0.304736 0.158487
H44   H     H_    0.425143 0.433325 0.218999 0.105385
H45   H     H_    0.429167 0.372271 0.191397 0.123732
H46   H     H_    0.230568 0.614369 0.423577 0.133490
H47   H     H_    0.339775 0.329158 0.212808 0.146288
H48   H     H_    0.259277 0.405989 0.396689 0.187946
H49   H     H_    0.257336 0.456145 0.366807 0.206027
H50   H     H_    0.329157 0.517096 0.393037 0.142570
H51   H     H_    0.490226 0.393216 0.146092 0.085247
H52   H     H_    0.488207 0.427712 0.112755 0.112597
H53   H     H_    0.416625 0.321651 0.122733 0.157521
H54   H     H_    0.451409 0.312261 0.415868 0.153130
H55   H     H_    0.499647 0.283154 0.441903 0.120235
H56   H     H_    0.521884 0.274323 0.408319 0.186379
H57   H     H_    0.321402 0.607030 0.431178 0.193684
H58   H     H_    0.154572 0.362112 0.069362 0.175641
H59   H     H_    0.198344 0.405604 0.037900 0.112314
H60   H     H_    0.231852 0.471644 0.067027 0.141047
H61   H     H_    0.452015 0.205414 0.520541 0.179292
H62   H     H_    0.561749 0.289146 0.518402 0.163495
H63   H     H_    0.505158 0.233023 0.489901 0.148934
H64   H     H_    0.232788 0.335520 0.962390 0.126557
H65   H     H_    0.188943 0.401069 0.952121 0.176943
H66   H     H_    0.173657 0.361299 0.984617 0.131695
H67   H     H_    0.370997 0.328478 0.678390 0.336957
H68   H     H_    0.354047 0.681950 0.025865 0.148753
H69   H     H_    0.486705 0.256761 0.844693 0.343577
H70   H     H_    0.409211 0.288411 0.570991 0.358466
H71   H     H_    0.289660 0.397404 0.915671 0.343122
H72   H     H_    0.634043 0.381794 0.462084 0.340549
H73   H     H_    0.262002 0.318788 0.023748 0.356243
H74   H     H_    0.835441 0.226380 0.648776 0.394783
H75   H     H_    0.014942 0.338737 0.831006 0.385684
H76   H     H_    0.688416 0.423980 0.539732 0.335226
H77   H     H_    0.744875 0.250584 0.955068 0.336009
H78   H     H_    0.768069 0.520090 0.511686 0.351941
H79   H     H_    0.333288 0.618589 0.055469 0.107582
H80   H     H_    0.757213 0.338068 0.985894 0.350886
H81   H     H_    0.268167 0.719539 0.328775 0.125463
H82   H     H_    0.218262 0.731923 0.357922 0.164371
H83   H     H_    0.248276 0.805642 0.331498 0.146256
H84   H     H_    0.076003 0.749414 0.194260 0.162012
H85   H     H_    0.035278 0.640606 0.202546 0.123453
H86   H     H_    0.020071 0.670724 0.169871 0.124038
H87   H     H_    0.395129 0.730945 0.056799 0.175084
H88   H     H_    0.176763 0.345494 0.542319 0.132751
H89   H     H_    0.497959 0.352673 0.874440 0.147325
H90   H     H_    0.191768 0.451658 0.542222 0.137966
H91   H     H_    0.225830 0.413710 0.515282 0.174087
H92   H     H_    0.284114 0.699946 0.950041 0.100772
H93   H     H_    0.345327 0.649291 0.941590 0.184393
H94   H     H_    0.358685 0.699865 0.972288 0.169738
H95   H     H_    0.880990 0.597615 0.667408 0.349575
H96   H     H_    0.746020 0.450655 0.821829 0.336000
H97   H     H_    0.048233 0.282215 0.560068 0.337629
H98   H     H_    0.225231 0.624421 0.907752 0.331149
H99   H     H_    0.969276 0.613442 0.637567 0.343774
H100  H     H_    0.767354 0.400104 0.465980 0.184407
H101  H     H_    0.852619 0.551157 0.872278 0.398624
H102  H     H_    0.130758 0.567747 0.520755 0.129812
H103  H     H_    0.184204 0.630934 0.492072 0.108447
H104  H     H_    0.241514 0.618126 0.518192 0.126478
H105  H     H_    0.177446 0.746479 0.019120 0.168850
H106  H     H_    0.121746 0.686502 0.990076 0.109776
H107  H     H_    0.221561 0.781151 0.987092 0.163931
H108  H     H_    0.503327 0.005374 0.275277 0.108128
H109  H     H_    0.496769 0.082324 0.296396 0.161465
H110  H     H_    0.443557 0.053402 0.265557 0.158946
H111  H     H_    0.867808 0.288889 0.023356 0.163468
H112  H     H_    0.604804 0.062795 0.184979 0.133436
H113  H     H_    0.578506 0.977036 0.207995 0.110622
H114  H     H_    0.580806 0.071424 0.218407 0.139016
H115  H     H_    0.277892 0.949419 0.360404 0.152248
H116  H     H_    0.279681 0.968801 0.325363 0.163678
H117  H     H_    0.295122 0.048705 0.348454 0.149501
H118  H     H_    0.562435 0.068339 0.109463 0.130697
H119  H     H_    0.607916 0.040459 0.136570 0.112367
H120  H     H_    0.609704 0.138997 0.136220 0.149175
H121  H     H_    0.204325 0.749278 0.466286 0.125951
H122  H     H_    0.028005 0.426507 0.272726 0.096961
H123  H     H_    0.262265 0.751138 0.437070 0.132476
H124  H     H_    0.153120 0.719287 0.435157 0.168346
H125  H     H_    0.349323 0.137691 0.088103 0.168177
H126  H     H_    0.407296 0.150822 0.058528 0.116200
H127  H     H_    0.429786 0.109950 0.088013 0.139823
H128  H     H_    0.001050 0.338016 0.365807 0.345320
H129  H     H_    0.043614 0.341070 0.153806 0.357563
H130  H     H_    0.606014 0.041096 0.708645 0.328961
H131  H     H_    0.456232 0.048365 0.777002 0.325597
H132  H     H_    0.501965 0.911216 0.631344 0.144002
H133  H     H_    0.973055 0.339195 0.295785 0.148340
H134  H     H_    0.551566 0.914299 0.662423 0.162804
H135  H     H_    0.591405 0.897384 0.632412 0.164820
H136  H     H_    0.419513 0.865866 0.850192 0.134094
H137  H     H_    0.402303 0.874894 0.815491 0.152537
H138  H     H_    0.315335 0.816391 0.837234 0.163432
H139  H     H_    0.263492 0.832388 0.565625 0.345213
H140  H     H_    0.256883 0.039787 0.942831 0.343033
H141  H     H_    0.306787 0.783200 0.534184 0.313885
H142  H     H_    0.199460 0.927500 0.967592 0.329079
H143  H     H_    0.203949 0.875318 0.482637 0.359074
H144  H     H_    0.040116 0.335549 0.270912 0.149132
H145  H     H_    0.293471 0.063140 0.027465 0.367494
H146  H     H_    0.448051 0.735413 0.347810 0.343681
H147  H     H_    0.347417 0.688216 0.190097 0.339205
H148  H     H_    0.527674 0.831740 0.374900 0.366848
H149  H     H_    0.358793 0.690209 0.125963 0.393902
H150  H     H_    0.707971 0.221640 0.425453 0.350657
H151  H     H_    0.634046 0.854923 0.044096 0.346288
H152  H     H_    0.765683 0.225156 0.507998 0.358380
H153  H     H_    0.540561 0.781850 0.958499 0.337614
H154  H     H_    0.500503 0.257769 0.664162 0.347975
H155  H     H_    0.236391 0.466886 0.181416 0.182390
H156  H     H_    0.685910 0.275164 0.820573 0.339080
H157  H     H_    0.730256 0.397185 0.424715 0.339887
H158  H     H_    0.829259 0.247299 0.064273 0.322355
H159  H     H_    0.789610 0.139043 0.539636 0.115680
H160  H     H_    0.746272 0.115685 0.572677 0.158090
H161  H     H_    0.843339 0.210381 0.565961 0.179521
H162  H     H_    0.675062 0.906462 0.944925 0.134219
H163  H     H_    0.682385 0.982781 0.920593 0.164700
H164  H     H_    0.693123 0.894442 0.911164 0.158486
H165  H     H_    0.418473 0.165565 0.636364 0.348768
H166  H     H_    0.161372 0.358313 0.173111 0.163391
H167  H     H_    0.679804 0.202507 0.879012 0.413349
H168  H     H_    0.657205 0.271967 0.454433 0.308002
H169  H     H_    0.681169 0.955114 0.015016 0.329726
H170  H     H_    0.579605 0.611903 0.277737 0.104044
H171  H     H_    0.659306 0.647105 0.303263 0.129992
H172  H     H_    0.667621 0.717177 0.277422 0.156944
H173  H     H_    0.617193 0.831961 0.195332 0.126994
H174  H     H_    0.646580 0.801048 0.165865 0.196987
H175  H     H_    0.539456 0.779313 0.170634 0.130395
H176  H     H_    0.654742 0.733801 0.344466 0.367502
N1    N     N_R   0.021077 0.464565 0.387565 -0.389750
N2    N     N_R   0.483234 0.572145 0.106757 -0.401157
N3    N     N_R   0.547554 0.500517 0.608653 -0.381514
N4    N     N_R   0.545131 0.505657 0.890856 -0.384085
N5    N     N_R   0.086563 0.508449 0.104643 -0.355511
N6    N     N_R   0.895579 0.409999 0.603837 -0.350496
N7    N     N_R   0.968638 0.438932 0.887986 -0.350473
N8    N     N_R   0.440389 0.969058 0.388245 -0.352159
N9    N     N_R   0.442118 0.910937 0.103531 -0.375241
N10   N     N_R   0.533976 0.074239 0.604664 -0.361071
N11   N     N_R   0.471251 0.007091 0.886440 -0.368050
N12   N     N_R   0.509958 0.567884 0.392005 -0.348469
O1    O     O_R   0.475290 0.813700 0.278840 -0.448021
O2    O     O_2   0.376990 0.050278 0.890013 -0.397926
O3    O     O_3   0.624805 0.151827 0.882677 -0.629095
O4    O     O_3   0.647916 0.233156 0.469136 -0.685794
O5    O     O_3   0.631573 0.932482 0.003425 -0.698358
O6    O     O_3   0.578276 0.695786 0.305201 -0.521046
O7    O     O_3   0.575214 0.705118 0.192575 -0.530507
O8    O     O_3   0.622398 0.690784 0.357980 -0.647213
O9    O     O_3   0.630433 0.669391 0.146186 -0.643675
O10   O     O_3   0.481405 0.731701 0.444499 -0.531261
O11   O     O_3   0.696787 0.755376 0.064790 -0.485744
O12   O     O_3   0.719664 0.553236 0.685774 -0.522347
O13   O     O_2   0.569300 0.079696 0.381270 -0.402392
O14   O     O_3   0.635862 0.580617 0.799541 -0.572643
O15   O     O_3   0.702423 0.592524 0.635194 -0.550910
O16   O     O_3   0.614926 0.627797 0.850333 -0.541974
O17   O     O_3   0.651826 0.745416 0.575025 -0.677231
O18   O     O_3   0.744781 0.569994 0.942658 -0.632294
O19   O     O_3   0.630606 0.762236 0.521784 -0.522781
O20   O     O_3   0.734988 0.619410 0.994743 -0.554568
O21   O     O_3   0.861023 0.288552 0.690276 -0.649386
O22   O     O_3   0.949479 0.363904 0.795868 -0.678383
O23   O     O_3   0.490473 0.713118 0.496773 -0.553391
O24   O     O_2   0.545241 0.880246 0.099336 -0.413154
O25   O     O_3   0.707794 0.740208 0.012370 -0.555383
O26   O     O_3   0.311614 0.439373 0.321041 -0.502986
O27   O     O_3   0.347360 0.419369 0.187366 -0.546347
O28   O     O_3   0.359295 0.437570 0.372170 -0.556055
O29   O     O_3   0.388353 0.409358 0.136844 -0.467873
O30   O     O_3   0.579199 0.395863 0.422073 -0.537241
O31   O     O_3   0.275503 0.386907 0.063893 -0.526026
O32   O     O_3   0.470387 0.316677 0.503521 -0.541305
O33   O     O_3   0.291680 0.460752 0.976890 -0.497132
O34   O     O_3   0.421451 0.348154 0.689495 -0.632596
O35   O     O_2   0.662661 0.184649 0.597110 -0.402205
O36   O     O_3   0.510430 0.290946 0.828583 -0.658577
O37   O     O_3   0.447257 0.290085 0.556939 -0.651632
O38   O     O_3   0.310336 0.455067 0.922576 -0.609383
O39   O     O_3   0.610601 0.399971 0.476364 -0.676683
O40   O     O_3   0.303254 0.360251 0.011257 -0.698380
O41   O     O_3   0.855596 0.272471 0.635722 -0.608529
O42   O     O_3   0.010484 0.368037 0.846651 -0.622110
O43   O     O_3   0.731906 0.440914 0.553424 -0.655462
O44   O     O_3   0.775214 0.294673 0.941599 -0.624652
O45   O     O_3   0.784420 0.486267 0.500621 -0.697888
O46   O     O_2   0.555836 0.952001 0.883501 -0.463247
O47   O     O_3   0.805772 0.340659 0.995055 -0.723968
O48   O     O_3   0.143924 0.691069 0.324203 -0.544212
O49   O     O_3   0.141772 0.696820 0.178453 -0.531739
O50   O     O_2   0.485305 0.674322 0.399393 -0.481734
O51   O     O_2   0.592539 0.705656 0.103304 -0.385128
O52   O     O_2   0.577026 0.634339 0.613837 -0.460859
O53   O     O_2   0.682436 0.554857 0.897450 -0.401777
O54   O     O_2   0.539215 0.464139 0.385907 -0.425223
O55   O     O_R   0.475290 0.813700 0.221160 -0.537307
O56   O     O_2   0.343415 0.482813 0.103619 -0.401974
O57   O     O_2   0.518166 0.367456 0.601339 -0.460753
O58   O     O_2   0.408176 0.460403 0.885541 -0.475170
O59   O     O_R   0.448450 0.657720 0.276690 -0.428212
O60   O     O_R   0.448450 0.657720 0.223310 -0.461082
O61   O     O_R   0.524710 0.338410 0.721160 -0.404708
O62   O     O_R   0.524710 0.338410 0.778840 -0.441566
O63   O     O_R   0.551550 0.209270 0.723310 -0.439139
O64   O     O_R   0.551550 0.209270 0.776690 -0.472411
O65   O     O_R   0.661590 0.186300 0.721160 -0.469783
O66   O     O_2   0.147112 0.479816 0.396507 -0.513488
O67   O     O_R   0.661590 0.186300 0.778840 -0.483712
O68   O     O_R   0.790730 0.342280 0.723310 -0.486644
O69   O     O_R   0.790730 0.342280 0.776690 -0.483022
O70   O     O_R   0.813700 0.475290 0.721160 -0.415592
O71   O     O_R   0.813700 0.475290 0.778840 -0.500135
O72   O     O_R   0.657720 0.448450 0.723310 -0.470225
O73   O     O_R   0.657720 0.448450 0.776690 -0.511471
O74   O     O_3   0.666667 0.333333 0.750000 -0.282815
O75   O     O_R   0.338410 0.524710 0.278840 -0.464387
O76   O     O_R   0.338410 0.524710 0.221160 -0.510053
O77   O     O_2   0.217803 0.614564 0.096883 -0.404752
O78   O     O_R   0.209270 0.551550 0.276690 -0.448514
O79   O     O_R   0.209270 0.551550 0.223310 -0.479793
O80   O     O_R   0.186300 0.661590 0.278840 -0.460529
O81   O     O_R   0.186300 0.661590 0.221160 -0.466311
O82   O     O_R   0.342280 0.790730 0.276690 -0.474604
O83   O     O_R   0.342280 0.790730 0.223310 -0.464837
O84   O     O_3   0.333333 0.666667 0.250000 -0.289662
O85   O     O_2   0.891088 0.440695 0.379898 -0.390128
O86   O     O_2   0.954702 0.400724 0.110103 -0.407079
O87   O     O_2   0.780367 0.419907 0.597348 -0.438578
O88   O     O_2   0.007050 0.392035 0.608347 -0.397737
O89   O     O_2   0.836219 0.338441 0.896783 -0.409129
O90   O     O_3   0.102294 0.415044 0.301451 -0.484271
O91   O     O_3   0.110960 0.421492 0.193404 -0.591083
O92   O     O_3   0.055818 0.621415 0.371536 -0.662477
O93   O     O_3   0.108263 0.657920 0.124907 -0.642897
O94   O     O_3   0.210156 0.504627 0.442813 -0.518781
O95   O     O_3   0.268811 0.685349 0.052285 -0.489779
O96   O     O_3   0.097431 0.361594 0.516995 -0.539807
O97   O     O_3   0.251118 0.584563 0.969173 -0.489014
O98   O     O_3   0.891732 0.566016 0.681094 -0.640814
O99   O     O_2   0.104336 0.531600 0.880186 -0.441544
O100  O     O_3   0.794603 0.494467 0.831657 -0.698024
O101  O     O_3   0.049861 0.327941 0.570837 -0.644355
O102  O     O_3   0.218653 0.571307 0.915094 -0.612414
O103  O     O_3   0.935392 0.562241 0.626946 -0.697796
O104  O     O_3   0.884276 0.523613 0.878084 -0.636025
O105  O     O_3   0.178865 0.514026 0.494614 -0.557207
O106  O     O_3   0.227320 0.679243 0.000910 -0.560578
O107  O     O_3   0.388462 0.963705 0.294350 -0.551808
O108  O     O_3   0.478719 0.993368 0.196014 -0.523313
O109  O     O_3   0.396006 0.030977 0.344152 -0.525573
O110  O     O_2   0.308734 0.864818 0.396246 -0.501406
O111  O     O_3   0.492789 0.037723 0.143828 -0.512989
O112  O     O_3   0.232350 0.846722 0.439821 -0.531496
O113  O     O_3   0.317562 0.027095 0.068980 -0.525568
O114  O     O_3   0.031537 0.354029 0.348897 -0.632054
O115  O     O_3   0.069610 0.383433 0.139635 -0.642899
O116  O     O_3   0.629873 0.050073 0.690750 -0.628688
O117  O     O_3   0.426481 0.020949 0.793410 -0.643393
O118  O     O_3   0.618220 0.019260 0.638003 -0.513327
O119  O     O_3   0.371882 0.944919 0.840988 -0.483875
O120  O     O_3   0.317775 0.862515 0.574976 -0.641451
O121  O     O_2   0.341805 0.946195 0.106018 -0.407490
O122  O     O_3   0.280026 0.017951 0.929402 -0.634078
O123  O     O_3   0.317996 0.826336 0.520644 -0.685983
O124  O     O_3   0.244213 0.944132 0.980815 -0.674366
O125  O     O_3   0.256277 0.897113 0.492874 -0.645174
O126  O     O_3   0.326887 0.051341 0.014751 -0.644259
O127  O     O_3   0.461666 0.767302 0.331150 -0.661475
O128  O     O_3   0.354109 0.697665 0.171040 -0.725446
O129  O     O_3   0.489914 0.852294 0.380879 -0.669980
O130  O     O_3   0.374191 0.746122 0.118623 -0.594988
O131  O     O_3   0.654463 0.188402 0.415879 -0.620977
O132  O     O_2   0.404443 0.963615 0.610589 -0.434085
O133  O     O_3   0.615966 0.882733 0.057064 -0.610166
O134  O     O_3   0.715740 0.179206 0.499287 -0.651568
O135  O     O_3   0.531925 0.813601 0.972662 -0.713627
O136  O     O_3   0.497532 0.220320 0.678604 -0.642670
O137  O     O_3   0.684421 0.239674 0.835365 -0.669624
O138  O     O_3   0.780886 0.406738 0.414962 -0.595440
O139  O     O_3   0.875208 0.292837 0.074546 -0.629390
O140  O     O_3   0.738725 0.211932 0.552964 -0.549177
O141  O     O_3   0.572368 0.864908 0.919756 -0.546763
O142  O     O_3   0.460264 0.159026 0.625933 -0.623521

loop_
_geom_bond_atom_site_label_1
_geom_bond_atom_site_label_2
_ccdc_geom_bond_type
C63   C65   A    
C177  H38   S    
C257  O94   S    
C213  C253  A    
C209  C240  A    
Cr5   O65   S    
C121  C192  A    
C96   O90   S    
C223  C226  A    
C39   C41   A    
C255  H100  S    
C138  C190  A    
C229  C262  A    
C211  C220  A    
C21   C76   A    
C91   O56   D    
C182  O29   S    
C241  C245  A    
C148  O94   S    
C180  O27   S    
C162  H136  S    
C88   C108  A    
C153  H106  S    
C151  O97   S    
C250  C252  A    
C112  O60   A    
C240  C244  A    
C196  O68   A    
C164  O141  S    
C61   C63   A    
C80   C86   A    
Cr6   O72   S    
C180  H47   S    
C72   O48   S    
H101  O104  S    
C63   O142  S    
C5    N9    Am   
C50   C52   A    
C147  H155  S    
Cr3   O81   S    
C34   C81   A    
C72   C207  A    
C11   O108  S    
C219  O81   A    
C33   C69   A    
C119  C128  A    
C198  O61   A    
C118  C225  A    
C79   C191  A    
C1    O75   A    
C151  H94   S    
C41   C43   A    
C31   C62   A    
H32   O21   S    
C28   C242  S    
H70   O37   S    
C178  H41   S    
Cr5   O69   S    
C233  O87   D    
C50   C83   A    
C165  H172  S    
C166  H174  S    
C142  O53   D    
H98   O102  S    
C173  H22   S    
H99   O103  S    
C164  H164  S    
H148  O129  S    
C122  O115  S    
C268  O110  D    
C10   O107  S    
C127  C136  A    
C210  C241  A    
C171  H14   S    
C154  H108  S    
C156  O109  S    
C23   N1    Am   
C99   C116  A    
C265  O106  S    
C5    O24   D    
C123  C126  A    
C101  O23   S    
C117  C236  A    
Cr2   O78   S    
C195  O64   A    
C215  C254  A    
Cr1   O59   S    
C64   C66   A    
C122  C203  A    
C169  O11   S    
C224  C233  A    
C148  H46   S    
C139  O57   D    
C173  H21   S    
C195  O67   A    
C43   C54   A    
C4    C26   A    
C85   O4    S    
C92   C94   A    
C29   C243  S    
C177  H39   S    
C93   O29   S    
C230  C232  A    
Cr4   O62   S    
C138  C140  A    
C188  H84   S    
C171  H15   S    
C260  C262  A    
C73   C208  A    
C249  C255  A    
C82   C84   A    
C197  O69   A    
C247  O36   S    
C49   C73   A    
C152  H102  S    
C37   C45   A    
C25   C206  A    
H153  O135  S    
C167  H5    S    
C2    H89   S    
C81   O134  S    
H152  O134  S    
C18   C71   A    
C83   O140  S    
C111  C124  A    
C157  O33   S    
C148  H57   S    
C128  O19   S    
C87   C107  A    
C53   N11   Am   
C94   C115  A    
H165  O142  S    
C158  H120  S    
C16   N9    S    
C95   O27   S    
Cr3   O84   S    
C236  C258  A    
C33   C38   A    
C196  O70   A    
C56   C59   A    
C150  H91   S    
C246  N6    S    
C31   C195  S    
C179  C252  A    
C44   C55   A    
C90   C193  A    
C45   C50   A    
C48   O92   S    
C36   C38   A    
C40   O124  S    
C113  O25   S    
C169  H7    S    
C161  H132  S    
C39   O123  S    
C55   N11   Am   
C267  N5    Am   
C23   O66   D    
C219  O79   A    
C217  C228  A    
C119  C126  A    
C97   O91   S    
C126  C134  A    
C132  C134  A    
H139  O120  S    
C245  C248  A    
C125  C127  A    
C151  H92   S    
C1    C115  S    
C169  H9    S    
C98   O6    S    
C161  H134  S    
C124  C191  A    
C7    O130  S    
C87   N12   Am   
H147  O128  S    
C69   C77   A    
C89   N12   Am   
Cr1   O60   S    
Cr4   O63   S    
C104  N2    S    
C120  C127  A    
C112  O76   A    
Cr5   O74   S    
Cr2   O76   S    
C187  O48   S    
C248  N7    S    
C105  C107  A    
C159  O112  S    
H128  O114  S    
C133  C142  A    
C26   C78   A    
C96   C121  A    
C152  H103  S    
C19   C21   A    
C203  N5    S    
C171  H16   S    
C204  C256  A    
H75   O42   S    
C64   O3    S    
C155  H113  S    
C183  H55   S    
C184  O31   S    
C176  H34   S    
C5    C27   A    
C12   O109  S    
C188  O49   S    
C47   C51   A    
C182  H52   S    
C174  H26   S    
C62   C64   A    
C139  N3    Am   
C238  O21   S    
C234  O89   D    
C208  C219  S    
C200  C266  A    
C211  C216  A    
Cr1   O84   S    
C93   C95   A    
C23   C205  A    
C91   N2    Am   
C65   N10   S    
C48   C72   A    
C54   N10   Am   
C92   O28   S    
C81   C83   A    
H74   O41   S    
C158  H118  S    
C250  C256  A    
C177  O25   S    
H141  O123  S    
C33   C40   A    
C120  C129  A    
C222  O43   S    
C102  O9    S    
C184  H60   S    
C27   C80   A    
C220  O45   S    
C172  H18   S    
H154  O136  S    
C175  H29   S    
C182  H53   S    
C51   C53   A    
C155  O108  S    
C243  O83   A    
C170  H10   S    
C77   O126  S    
C46   C68   A    
C36   C75   A    
C68   C90   A    
C167  H4    S    
C166  H175  S    
C95   C116  A    
C30   C59   A    
Cr1   O1    S    
C38   C47   A    
C46   C120  A    
C260  O96   S    
C32   C37   A    
C222  C224  A    
C187  H82   S    
C43   C45   A    
C185  H62   S    
C100  O8    S    
C13   N3    S    
C32   C67   A    
C78   C85   A    
C200  C202  A    
C130  O17   S    
C227  C229  A    
H169  O5    S    
C263  O102  S    
C145  H122  S    
C213  C260  A    
C154  O107  S    
H167  O3    S    
H145  O126  S    
C30   C61   A    
C170  H11   S    
C145  H144  S    
C212  C250  A    
H76   O43   S    
C112  C116  S    
C174  H28   S    
C158  O111  S    
C132  C141  A    
C140  N4    Am   
C267  O86   D    
C172  O15   S    
C46   C113  A    
C73   O49   S    
H97   O101  S    
C266  O85   D    
C262  O101  S    
C201  C267  A    
C62   O137  S    
C144  O16   S    
C226  C234  A    
C91   C114  A    
C183  O30   S    
C67   C70   A    
C210  C239  A    
H168  O4    S    
H25   O18   S    
C24   N4    S    
Cr4   O74   S    
C244  O103  S    
C162  H137  S    
C142  N4    Am   
H142  O124  S    
C98   C115  A    
C141  N3    Am   
C167  O10   S    
H95   O98   S    
C173  O16   S    
C167  H6    S    
C235  O41   S    
C235  C238  A    
C244  C246  A    
C9    O128  S    
C74   C85   A    
H77   O44   S    
C144  C225  A    
C225  O14   S    
C61   O136  S    
Cr6   O73   S    
C86   O5    S    
H156  O137  S    
C168  C205  A    
C160  H125  S    
H78   O45   S    
C218  O78   A    
H150  O131  S    
C117  C198  S    
C236  O34   S    
C237  O42   S    
C41   O120  S    
H140  O122  S    
C206  C259  A    
C49   C203  A    
C25   N5    Am   
C34   C37   A    
C151  H93   S    
C185  O32   S    
C198  O72   A    
C204  O139  S    
C178  H42   S    
H157  O138  S    
C134  C137  A    
C228  C230  A    
Cr5   O68   S    
C186  H65   S    
C137  C139  A    
C145  H133  S    
C182  H51   S    
C42   C44   A    
C149  O95   S    
C154  H109  S    
C191  O39   S    
C125  C157  A    
C212  C217  A    
C176  O23   S    
Cr2   O79   S    
C101  C109  A    
C156  H115  S    
H72   O39   S    
C15   N8    S    
C7    C9    A    
C32   C39   A    
C155  H112  S    
C178  H43   S    
C57   C79   A    
C157  C190  A    
C197  C210  S    
C22   O113  S    
H151  O133  S    
C4    N8    Am   
C149  H87   S    
C179  C201  A    
C60   O117  S    
Cr2   O84   S    
C176  H37   S    
C146  C189  A    
C268  N8    Am   
C235  C246  A    
H146  O127  S    
C186  H64   S    
C105  C111  A    
H73   O40   S    
C52   O35   D    
H149  O130  S    
C107  C109  A    
C159  H123  S    
H130  O116  S    
Cr6   O70   S    
C177  H40   S    
C159  H121  S    
C147  O91   S    
C158  H119  S    
C153  H107  S    
C118  C247  A    
C96   C207  A    
C180  H44   S    
C194  O65   A    
C243  O55   A    
C56   O118  S    
C14   O111  S    
Cr3   O83   S    
C100  C103  A    
C160  O113  S    
C170  O12   S    
C31   C60   A    
C161  O118  S    
C130  C132  A    
H176  O8    S    
C143  O15   S    
H13   O92   S    
Cr6   O71   S    
C88   N2    Am   
C165  H171  S    
C183  H54   S    
C123  C146  A    
C141  O52   D    
C232  N7    Am   
C159  H124  S    
C174  H27   S    
C94   O26   S    
C3    C20   A    
C234  N7    Am   
C55   O2    D    
C131  O18   S    
C34   C74   A    
C196  C209  S    
C7    C16   A    
C174  O19   S    
C20   C22   A    
C98   C100  A    
C8    O127  S    
C187  H83   S    
C224  C227  A    
C252  C254  A    
C166  H173  S    
C213  C216  A    
C10   C28   A    
C207  C218  S    
C164  H163  S    
C168  C200  A    
C258  H1    S    
C103  N12   S    
C181  O28   S    
C22   C77   A    
C35   C101  A    
C128  C130  A    
C129  O20   S    
C189  O37   S    
Cr4   O64   S    
C153  O106  S    
C25   O77   D    
C156  H117  S    
C171  O14   S    
C220  C222  A    
C35   C57   A    
C197  O71   A    
C256  H111  S    
C152  H104  S    
C12   C15   A    
C229  C231  A    
C181  H48   S    
C30   C194  S    
C89   O54   D    
C24   C144  A    
C181  H49   S    
C264  O105  S    
C90   C125  A    
C42   O122  S    
C241  O100  S    
C13   C143  A    
C117  C214  A    
C161  H135  S    
C48   C192  A    
Cr4   O61   S    
C192  N1    S    
C99   C102  A    
C214  O12   S    
H33   O22   S    
C245  O104  S    
C99   O7    S    
H96   O100  S    
C266  N1    Am   
C51   C84   A    
C259  O95   S    
H80   O47   S    
C135  O31   S    
C57   C105  A    
C254  C265  A    
C178  O26   S    
C257  C264  A    
C153  H105  S    
C215  C261  A    
C35   C119  A    
C2    C247  A    
C4    O13   D    
C6    C8    A    
C194  O63   A    
C205  C257  A    
C155  H114  S    
C232  O99   D    
C242  O82   A    
C242  O1    A    
C106  C108  A    
C88   O51   D    
C106  C114  A    
C150  H90   S    
C17   C26   A    
C223  O44   S    
C87   O50   D    
C240  O98   S    
H129  O115  S    
C172  H19   S    
C215  C217  A    
C59   O116  S    
C163  H161  S    
C11   C14   A    
C156  H116  S    
C251  C253  A    
H24   O93   S    
C56   C65   A    
Cr3   O80   S    
C169  H8    S    
C69   C71   A    
C70   C74   A    
C160  H127  S    
C75   C86   A    
C92   C103  A    
C6    C15   A    
C58   C66   A    
C202  C255  A    
C108  C110  A    
C145  O90   S    
C133  C136  A    
C114  C135  A    
C168  C251  A    
C165  O6    S    
C199  O62   A    
C184  H58   S    
C84   O141  S    
C187  H81   S    
C185  H61   S    
C147  H2    S    
C44   C47   A    
C9    C29   A    
C137  C189  A    
C179  C206  A    
C17   C70   A    
C97   C208  A    
C188  H86   S    
C163  H160  S    
C176  H36   S    
C162  O119  S    
C170  H12   S    
C68   C106  A    
C80   O133  S    
C118  C199  S    
C93   C104  A    
C150  O96   S    
C58   C60   A    
C221  O47   S    
C212  C221  A    
Cr2   O75   S    
C249  C251  A    
C216  C227  A    
C184  H59   S    
C166  O7    S    
C186  O33   S    
C124  O30   S    
Cr3   O82   S    
C1    O59   A    
C209  C238  A    
C136  C138  A    
C140  O58   D    
C36   C82   A    
C261  C263  A    
C181  H50   S    
H69   O36   S    
C183  H56   S    
C79   C123  A    
H143  O125  S    
C211  C249  A    
C237  C248  A    
C147  H166  S    
C218  O80   A    
C3    O121  D    
C13   C258  A    
C190  O38   S    
C97   C122  A    
C259  C265  A    
C162  H138  S    
C135  C193  A    
C188  H85   S    
C3    N9    Am   
C109  O10   S    
H3    O9    S    
H71   O38   S    
H23   O17   S    
H131  O117  S    
C102  C104  A    
C261  O97   S    
C110  C113  A    
C21   O112  S    
C175  O20   S    
C10   C12   A    
C143  C214  A    
Cr6   O74   S    
C253  C264  A    
C226  C228  A    
C231  N6    Am   
C237  C239  A    
C2    C24   A    
C201  C204  A    
C14   C16   A    
C160  H126  S    
C163  O140  S    
C54   O132  D    
C49   O93   S    
C110  O11   S    
C230  C263  A    
C202  O138  S    
C150  H88   S    
C199  O73   A    
C18   C27   A    
C146  O32   S    
C131  C133  A    
C163  H159  S    
Cr5   O67   S    
C193  O40   S    
C58   O119  S    
C172  H17   S    
C186  H66   S    
C82   O135  S    
C149  H79   S    
C173  H20   S    
C89   C111  A    
C175  H30   S    
C164  H162  S    
H67   O34   S    
C121  O114  S    
C76   O125  S    
C221  C223  A    
C154  H110  S    
C152  O105  S    
C71   C75   A    
C78   O131  S    
C6    O129  S    
C8    C28   A    
C239  O22   S    
C40   C42   A    
C17   C19   A    
C18   C20   A    
H158  O139  S    
C185  H63   S    
C165  H170  S    
C11   C29   A    
C231  O88   D    
C175  H31   S    
C66   N11   S    
C149  H68   S    
C148  H35   S    
C67   C76   A    
C52   N10   Am   
Cr1   O55   S    
C53   O46   D    
C233  N6    Am   
C19   C268  A    
C129  C131  A    
C180  H45   S    
