data_mof_unit_30193.cif
_audit_creation_date              2012-12-10T19:21:56-0500
_audit_creation_method            fapswitch 2.2
_symmetry_space_group_name_H-M    P1
_symmetry_Int_Tables_number       1
_space_group_crystal_system       triclinic
_cell_length_a                    8.718969
_cell_length_b                    17.69398
_cell_length_c                    16.625054
_cell_angle_alpha                 89.95256
_cell_angle_beta                  97.309408
_cell_angle_gamma                 95.633478
_cell_volume                      2531.49518441

loop_
_atom_site_label
_atom_site_type_symbol
_atom_type_description
_atom_site_fract_x
_atom_site_fract_y
_atom_site_fract_z
_atom_type_partial_charge
C1    C     C_R   0.504135 0.355695 0.500381 0.826086
C2    C     C_R   0.500586 0.644667 0.499942 0.836034
C3    C     C_1   0.529707 0.967775 0.500392 -0.032720
C4    C     C_1   0.532066 0.035659 0.500922 -0.030493
C5    C     C_R   0.600886 0.550073 0.837767 -0.272186
C6    C     C_R   0.417200 0.450302 0.161056 -0.304371
C7    C     C_R   0.610646 0.545584 0.753453 0.523584
C8    C     C_R   0.415386 0.445031 0.246027 0.546080
C9    C     C_R   0.379216 0.458991 0.737171 0.379584
C10   C     C_R   0.575095 0.562537 0.262837 0.416063
C11   C     C_R   0.364209 0.469448 0.822030 -0.166178
C12   C     C_R   0.540240 0.576442 0.177874 -0.166062
C13   C     C_R   0.478960 0.513594 0.872877 -0.037917
C14   C     C_R   0.477248 0.515804 0.125390 -0.018800
C15   C     C_1   0.479009 0.517113 0.962262 0.122478
C16   C     C_1   0.477276 0.517600 0.036130 0.155855
C17   C     C_R   0.203591 0.497638 0.479707 0.919037
C18   C     C_R   0.796318 0.500196 0.520499 0.911854
C19   C     C_2   0.037511 0.488716 0.469876 -0.272983
C20   C     C_2   0.962528 0.504529 0.531617 -0.289234
C21   C     C_R   0.519111 0.847606 0.573106 -0.141918
C22   C     C_R   0.599877 0.160787 0.444586 -0.121932
C23   C     C_R   0.510467 0.768518 0.573056 -0.141813
C24   C     C_R   0.592733 0.239224 0.444523 -0.107405
C25   C     C_R   0.506280 0.728013 0.499979 -0.037204
C26   C     C_R   0.514790 0.273425 0.501522 -0.048659
C27   C     C_R   0.510574 0.768016 0.427023 -0.145296
C28   C     C_R   0.449862 0.228498 0.560602 -0.154169
C29   C     C_R   0.519241 0.847099 0.427284 -0.143271
C30   C     C_R   0.456982 0.150212 0.560658 -0.141643
C31   C     C_R   0.523706 0.886798 0.500291 0.128554
C32   C     C_R   0.530708 0.116314 0.502253 0.123295
Cu1   Cu    Cu3+1 0.499990 0.499980 0.580420 1.084741
Cu2   Cu    Cu3+1 0.500010 0.500020 0.419580 1.089715
H1    H     H_    0.976857 0.466204 0.412831 0.225418
H2    H     H_    0.024106 0.523435 0.590146 0.221474
H3    H     H_    0.521960 0.878164 0.629822 0.153056
H4    H     H_    0.658657 0.134879 0.399689 0.151238
H5    H     H_    0.507499 0.739223 0.630147 0.187660
H6    H     H_    0.649344 0.273210 0.400567 0.181716
H7    H     H_    0.507665 0.738340 0.369806 0.167034
H8    H     H_    0.391594 0.253489 0.605927 0.207721
H9    H     H_    0.522198 0.877237 0.370648 0.148810
H10   H     H_    0.403886 0.116069 0.605771 0.154435
H11   H     H_    0.691607 0.582095 0.877982 0.228787
H12   H     H_    0.365775 0.403519 0.121397 0.210486
N1    N     N_R   0.499960 0.499970 0.701210 -0.281216
N2    N     N_R   0.500040 0.500030 0.298790 -0.277262
O1    O     O_R   0.499990 0.391240 0.567930 -0.554689
O2    O     O_R   0.500010 0.608760 0.432070 -0.573918
O3    O     O_R   0.500000 0.391270 0.432120 -0.531643
O4    O     O_R   0.500000 0.608730 0.567880 -0.555499
O5    O     O_R   0.274830 0.499990 0.552240 -0.550731
O6    O     O_R   0.725170 0.500010 0.447760 -0.531050
O7    O     O_R   0.274840 0.500020 0.416420 -0.539808
O8    O     O_R   0.725160 0.499980 0.583580 -0.516675
S1    S     S_3+6 0.786840 0.594230 0.726912 0.040973
O9    O     O_2   0.851483 0.652615 0.791239 -0.277516
O10   O     O_2   0.902776 0.536974 0.725409 -0.257015
O11   O     O_3   0.770433 0.640313 0.638546 -0.533274
H13   H     H_    0.878396 0.657868 0.629764 0.359514
S2    S     S_3+6 0.311516 0.359643 0.275462 0.044999
O12   O     O_2   0.192569 0.330872 0.205959 -0.274715
O13   O     O_2   0.424750 0.301185 0.292202 -0.311006
O14   O     O_3   0.216158 0.368011 0.355937 -0.514193
H14   H     H_    0.181463 0.315266 0.370225 0.364615
S3    S     S_3+6 0.237836 0.386297 0.687324 0.007898
O15   O     O_2   0.078533 0.406835 0.698288 -0.251387
O16   O     O_2   0.235363 0.369127 0.599255 -0.280885
O17   O     O_3   0.264621 0.304542 0.736507 -0.553799
H15   H     H_    0.378394 0.301598 0.743229 0.324848
S4    S     S_3+6 0.762414 0.605125 0.306507 0.005186
O18   O     O_2   0.765429 0.637936 0.389821 -0.298634
O19   O     O_2   0.869778 0.543776 0.309828 -0.296276
O20   O     O_3   0.836029 0.674490 0.249021 -0.555277
H16   H     H_    0.945439 0.686351 0.273479 0.381781
C33   C     C_2   0.228304 0.433835 0.859456 0.507511
H17   H     H_    0.186940 0.374558 0.849245 0.145773
O21   O     O_2   0.159942 0.471443 0.902288 -0.496147
C34   C     C_2   0.564064 0.655102 0.146848 0.522211
H18   H     H_    0.572457 0.702844 0.188665 0.094486
O22   O     O_2   0.572350 0.668036 0.075321 -0.513719

loop_
_geom_bond_atom_site_label_1
_geom_bond_atom_site_label_2
_ccdc_geom_bond_type
C27   C29   A    
C19   C20   D    
C9    S3    S    
C33   H17   S    
Cu1   O4    S    
C21   C31   A    
Cu2   O3    S    
C22   C32   A    
C24   C26   A    
S1    O10   D    
Cu1   O1    S    
C15   C16   T    
C22   H4    S    
S2    O13   D    
C11   C33   S    
C24   H6    S    
O17   H15   S    
C14   C16   S    
C2    O2    A    
C17   O7    A    
C5    C13   A    
C18   O8    A    
Cu1   O8    S    
Cu2   O7    S    
C29   H9    S    
C30   H10   S    
S4    O20   S    
C10   C12   A    
C33   O21   D    
C21   C23   A    
Cu1   O5    S    
Cu2   O2    S    
S3    O15   D    
C34   O22   D    
C5    C7    A    
C34   H18   S    
S1    O11   S    
C6    C8    A    
C5    H11   S    
O11   H13   S    
S3    O16   D    
C7    N1    A    
O20   H16   S    
C8    N2    A    
S2    O12   D    
C6    C14   A    
C9    C11   A    
C27   H7    S    
Cu1   Cu2   S    
C3    C31   S    
C1    O3    A    
C4    C32   S    
C2    O4    A    
S4    O19   D    
C12   C14   A    
C9    N1    A    
C13   C15   S    
C10   N2    A    
C1    C26   S    
Cu1   N1    S    
C22   C24   A    
Cu2   N2    S    
C3    C4    T    
C17   O5    A    
C6    H12   S    
S2    O14   S    
S4    O18   D    
Cu2   O6    S    
C25   C27   A    
C26   C28   A    
S3    O17   S    
C28   C30   A    
C29   C31   A    
C19   H1    S    
C30   C32   A    
C11   C13   A    
S1    O9    D    
C23   H5    S    
C12   C34   S    
C28   H8    S    
C17   C19   S    
C2    C25   S    
C18   C20   S    
C23   C25   A    
C18   O6    A    
C20   H2    S    
C21   H3    S    
O14   H14   S    
C1    O1    A    
C7    S1    S    
C8    S2    S    
C10   S4    S    
