data_mof_unit_40242.cif
_audit_creation_date              2013-03-05T15:40:28-0500
_audit_creation_method            fapswitch 2.2
_symmetry_space_group_name_H-M    P1
_symmetry_Int_Tables_number       1
_space_group_crystal_system       triclinic
_cell_length_a                    19.111333
_cell_length_b                    11.074703
_cell_length_c                    18.723071
_cell_angle_alpha                 90.510357
_cell_angle_beta                  89.96814
_cell_angle_gamma                 89.679999
_cell_volume                      3962.56199471

loop_
_atom_site_label
_atom_site_type_symbol
_atom_site_description
_atom_site_fract_x
_atom_site_fract_y
_atom_site_fract_z
_atom_type_partial_charge
O1    O     O_R   0.215090 0.709860 0.828130 -0.551759
O2    O     O_R   0.784910 0.709860 0.171870 -0.465946
O3    O     O_R   0.715090 0.209860 0.828130 -0.444958
O4    O     O_R   0.284910 0.209860 0.171870 -0.401871
O5    O     O_R   0.236990 0.958390 0.823710 -0.610118
O6    O     O_R   0.763010 0.958390 0.176290 -0.375073
O7    O     O_R   0.736990 0.458390 0.823710 -0.361774
O8    O     O_R   0.263010 0.458390 0.176290 -0.468536
C1    C     C_R   0.271189 0.045199 0.852311 0.826111
C2    C     C_R   0.709572 0.993783 0.139835 0.565652
C3    C     C_R   0.775236 0.532117 0.857757 0.448108
C4    C     C_R   0.228492 0.544459 0.147490 0.335458
O9    O     O_R   0.332380 0.074750 0.830850 -0.520755
O10   O     O_R   0.667620 0.074750 0.169150 -0.488619
O11   O     O_R   0.832380 0.574750 0.830850 -0.326485
O12   O     O_R   0.167620 0.574750 0.169150 -0.253538
O13   O     O_R   0.445800 0.917770 0.825070 -0.472553
O14   O     O_R   0.554200 0.917770 0.174930 -0.269014
O15   O     O_R   0.945800 0.417770 0.825070 -0.518473
O16   O     O_R   0.054200 0.417770 0.174930 -0.429050
C5    C     C_R   0.471502 0.824201 0.852513 0.594855
C6    C     C_R   0.532600 0.819311 0.144187 0.642690
C7    C     C_R   0.964012 0.319819 0.857618 0.596123
C8    C     C_R   0.026818 0.323998 0.148611 0.639383
O17   O     O_R   0.456410 0.716580 0.829970 -0.523711
O18   O     O_R   0.543590 0.716580 0.170030 -0.535576
O19   O     O_R   0.956410 0.216580 0.829970 -0.013751
O20   O     O_R   0.043590 0.216580 0.170030 -0.467592
O21   O     O_R   0.321080 0.625290 0.822650 -0.488592
O22   O     O_R   0.678920 0.625290 0.177350 -0.603183
O23   O     O_R   0.821080 0.125290 0.822650 -0.297102
O24   O     O_R   0.178920 0.125290 0.177350 -0.457473
C9    C     C_R   0.261824 0.636949 0.851859 0.778639
C10   C     C_R   0.741589 0.628623 0.152723 0.887177
C11   C     C_R   0.761208 0.138347 0.851016 0.657320
C12   C     C_R   0.238055 0.137198 0.147721 0.663602
O25   O     O_R   0.214930 0.711450 0.668160 -0.354662
O26   O     O_R   0.785070 0.711450 0.331840 -0.373504
O27   O     O_R   0.714930 0.211450 0.668160 -0.420798
O28   O     O_R   0.285070 0.211450 0.331840 -0.374497
O29   O     O_R   0.236850 0.959870 0.675420 -0.397474
O30   O     O_R   0.763150 0.959870 0.324580 -0.448620
O31   O     O_R   0.736850 0.459870 0.675420 -0.331546
O32   O     O_R   0.263150 0.459870 0.324580 -0.417381
C13   C     C_R   0.288492 0.005483 0.639326 0.433370
C14   C     C_R   0.710150 0.003316 0.360610 0.813193
C15   C     C_R   0.772611 0.545363 0.647993 0.690893
C16   C     C_R   0.227304 0.546406 0.351894 0.651394
O33   O     O_R   0.332230 0.076350 0.670880 -0.354999
O34   O     O_R   0.667770 0.076350 0.329120 -0.403896
O35   O     O_R   0.832230 0.576350 0.670880 -0.369563
O36   O     O_R   0.167770 0.576350 0.329120 -0.431711
O37   O     O_R   0.445660 0.919250 0.676780 -0.348454
O38   O     O_R   0.554340 0.919250 0.323220 -0.372579
O39   O     O_R   0.945660 0.419250 0.676780 -0.416397
O40   O     O_R   0.054340 0.419250 0.323220 -0.334631
C17   C     C_R   0.468343 0.822552 0.646740 0.500810
C18   C     C_R   0.528333 0.824740 0.350782 0.328998
C19   C     C_R   0.967985 0.322653 0.646492 0.553439
C20   C     C_R   0.028200 0.324872 0.350714 0.618442
O41   O     O_R   0.456260 0.718170 0.670000 -0.328199
O42   O     O_R   0.543740 0.718170 0.330000 -0.311936
O43   O     O_R   0.956260 0.218170 0.670000 -0.350399
O44   O     O_R   0.043740 0.218170 0.330000 -0.395128
O45   O     O_R   0.320940 0.626760 0.674370 -0.498920
O46   O     O_R   0.679060 0.626760 0.325630 -0.396395
O47   O     O_R   0.820940 0.126760 0.674370 -0.468423
O48   O     O_R   0.179060 0.126760 0.325630 -0.495649
C21   C     C_R   0.259669 0.632110 0.648462 0.543334
C22   C     C_R   0.740692 0.632622 0.351277 0.417830
C23   C     C_R   0.758761 0.129855 0.650031 0.535241
C24   C     C_R   0.241551 0.130639 0.349857 0.562794
Cr1   Cr    Cr6+3 0.230530 0.836340 0.748870 1.336154
Cr2   Cr    Cr6+3 0.769470 0.836340 0.251130 1.340159
Cr3   Cr    Cr6+3 0.730530 0.336340 0.748870 1.294863
Cr4   Cr    Cr6+3 0.269470 0.336340 0.251130 1.007318
Cr5   Cr    Cr6+3 0.387420 0.989430 0.750820 1.174267
Cr6   Cr    Cr6+3 0.612580 0.989430 0.249180 0.948148
Cr7   Cr    Cr6+3 0.887420 0.489430 0.750820 1.384552
Cr8   Cr    Cr6+3 0.112580 0.489430 0.249180 0.575932
Cr9   Cr    Cr6+3 0.385640 0.677860 0.749230 1.214596
Cr10  Cr    Cr6+3 0.614360 0.677860 0.250770 1.158399
Cr11  Cr    Cr6+3 0.885640 0.177860 0.749230 1.269746
Cr12  Cr    Cr6+3 0.114360 0.177860 0.250770 1.210906
O49   O     O_3   0.334530 0.834540 0.749640 -0.341299
O50   O     O_3   0.665470 0.834540 0.250360 -0.383458
O51   O     O_3   0.834530 0.334540 0.749640 -0.409718
O52   O     O_3   0.165470 0.334540 0.250360 -0.322669
C25   C     C_R   0.509960 0.819271 0.068698 0.332386
C26   C     C_R   0.507920 0.843225 0.920421 0.556878
C27   C     C_R   0.984738 0.343031 0.083616 -0.018056
C28   C     C_R   0.981831 0.322887 0.934717 0.007563
C29   C     C_R   0.481725 0.925005 0.038435 0.173323
C30   C     C_R   0.491058 0.945054 0.964816 -0.164030
C31   C     C_R   0.995035 0.447961 0.041328 -0.106457
C32   C     C_R   0.005042 0.430724 0.967336 -0.179631
C33   C     C_R   0.540370 0.742868 0.950034 0.047434
C34   C     C_R   0.537740 0.727166 0.023042 -0.064408
C35   C     C_R   0.955785 0.229049 0.978579 0.493198
C36   C     C_R   0.954441 0.241752 0.052408 0.020443
C37   C     C_R   0.451781 0.015921 0.081805 0.102251
C38   C     C_R   0.490503 0.066631 0.939924 0.150239
C39   C     C_R   0.994605 0.568092 0.069745 0.336908
C40   C     C_R   0.032709 0.524850 0.926561 0.519889
C41   C     C_R   0.006646 0.667160 0.023101 -0.020016
C42   C     C_R   0.020644 0.643779 0.949736 -0.169372
C43   C     C_R   0.458541 0.136867 0.060932 -0.089143
C44   C     C_R   0.476612 0.162892 0.989079 -0.036809
C45   C     C_2   0.254156 0.581453 0.922151 -0.118504
C46   C     C_2   0.761971 0.549226 0.092496 0.181625
C47   C     C_2   0.752203 0.094278 0.921999 0.194492
C48   C     C_2   0.245028 0.083207 0.076228 0.403134
C49   C     C_2   0.256051 0.599086 0.081578 0.743632
C50   C     C_2   0.753934 0.559784 0.932677 0.329757
C51   C     C_2   0.717881 0.995518 0.061711 0.207898
C52   C     C_2   0.241997 0.101985 0.917624 0.195207
C53   C     C_2   0.302933 0.536231 0.040975 -0.167409
C54   C     C_2   0.715287 0.480897 0.974092 -0.054646
C55   C     C_2   0.778860 0.971896 0.024262 0.108217
C56   C     C_2   0.194494 0.040284 0.957240 -0.093425
C57   C     C_2   0.310855 0.556284 0.963865 -0.000780
C58   C     C_2   0.714735 0.484318 0.055311 -0.072131
C59   C     C_2   0.781361 0.992949 0.946087 0.149753
C60   C     C_2   0.187854 0.058115 0.035029 -0.190198
H1    H     H_    0.201968 0.580540 0.945157 0.176551
H2    H     H_    0.812744 0.566430 0.069703 0.092191
H3    H     H_    0.728545 0.157023 0.959205 -0.012688
H4    H     H_    0.296745 0.084149 0.052178 0.012813
C61   C     C_2   0.488281 0.826418 0.572618 0.066509
C62   C     C_2   0.490514 0.838973 0.416887 0.057252
C63   C     C_2   0.986795 0.327248 0.572022 -0.163885
C64   C     C_2   0.989405 0.340149 0.416266 -0.130293
C65   C     C_2   0.471352 0.741335 0.452660 0.086528
C66   C     C_2   0.457303 0.746548 0.528385 -0.100592
C67   C     C_2   0.968340 0.243572 0.451864 -0.145272
C68   C     C_2   0.953783 0.250038 0.527628 -0.186707
H5    H     H_    0.470146 0.652684 0.427337 0.178842
H6    H     H_    0.422795 0.677002 0.548655 0.204544
H7    H     H_    0.966728 0.154826 0.426699 0.189655
H8    H     H_    0.918008 0.182518 0.548031 0.130218
H9    H     H_    0.488273 0.928126 0.441207 0.106595
H10   H     H_    0.522397 0.896975 0.553828 -0.037965
H11   H     H_    0.987530 0.429528 0.440433 0.057584
H12   H     H_    0.022465 0.395881 0.553415 0.067665
C69   C     C_2   0.247439 0.557630 0.585660 -0.105356
C70   C     C_2   0.754547 0.558836 0.413457 0.100311
C71   C     C_2   0.742877 0.047527 0.591252 -0.145568
C72   C     C_2   0.258785 0.049666 0.408205 -0.165530
C73   C     C_2   0.238785 0.579628 0.425623 0.033647
C74   C     C_2   0.759821 0.577773 0.574469 -0.160027
C75   C     C_2   0.724300 0.042606 0.432938 -0.143011
C76   C     C_2   0.273030 0.044143 0.567580 0.093390
C77   C     C_2   0.193578 0.528192 0.472043 -0.309364
C78   C     C_2   0.808956 0.536229 0.527880 -0.308613
C79   C     C_2   0.679496 0.002694 0.483192 -0.144093
C80   C     C_2   0.320426 0.010436 0.517801 -0.026238
C81   C     C_2   0.188436 0.560294 0.547473 -0.072647
C82   C     C_2   0.812829 0.567870 0.452632 -0.102473
C83   C     C_2   0.680776 0.043489 0.557822 0.027843
C84   C     C_2   0.319617 0.052754 0.444182 -0.177316
H13   H     H_    0.155018 0.463712 0.452551 0.086564
H14   H     H_    0.852069 0.480755 0.547282 0.078586
H15   H     H_    0.637340 0.942047 0.467851 0.096531
H16   H     H_    0.365111 0.955495 0.533284 0.094261
H17   H     H_    0.293995 0.516621 0.561888 0.067929
H18   H     H_    0.709390 0.513253 0.435996 0.085331
H19   H     H_    0.787804 0.003094 0.566465 0.230469
H20   H     H_    0.215153 0.999753 0.430571 0.231752
N1    N     N_R   0.576411 0.654620 0.906763 -0.108097
O53   O     O_R   0.606063 0.683886 0.846802 -0.000001
O54   O     O_R   0.606062 0.683885 0.846802 -0.000001
N2    N     N_R   0.565068 0.616182 0.049556 -0.266414
O55   O     O_R   0.522981 0.535975 0.075537 -0.000001
O56   O     O_R   0.522981 0.535975 0.075537 -0.000001
N3    N     N_R   0.929067 0.119801 0.948960 1.633855
O57   O     O_R   0.971800 0.037548 0.924621 -1.857221
O58   O     O_R   0.971800 0.037548 0.924621 -1.857221
N4    N     N_R   0.923859 0.148474 0.094855 -0.089089
O59   O     O_R   0.895852 0.172051 0.156843 -0.000003
O60   O     O_R   0.895853 0.172052 0.156844 -0.000003
C85   C     C_2   0.118041 0.588859 0.576793 0.314996
H21   H     H_    0.076582 0.616836 0.540841 0.051830
O61   O     O_2   0.104471 0.574958 0.639919 -0.367939
C86   C     C_2   0.882305 0.603051 0.424323 0.298685
H22   H     H_    0.921477 0.638750 0.460649 0.080440
O62   O     O_2   0.898012 0.585848 0.361798 -0.322064
C87   C     C_2   0.613108 0.077826 0.591375 0.413810
H23   H     H_    0.569736 0.105859 0.557862 0.290314
O63   O     O_2   0.603852 0.068900 0.655656 -0.374716
C88   C     C_2   0.386744 0.097610 0.415163 0.502676
H24   H     H_    0.426041 0.132863 0.451501 0.098586
O64   O     O_2   0.400689 0.088786 0.351727 -0.336349
C89   C     C_2   0.285548 0.682528 0.442864 0.393054
H25   H     H_    0.288232 0.720820 0.496209 0.059504
O65   O     O_2   0.320826 0.728257 0.396031 -0.512541
C90   C     C_2   0.703193 0.665281 0.557237 0.515396
H26   H     H_    0.700727 0.709029 0.505784 0.077909
O66   O     O_2   0.658863 0.691520 0.601819 -0.384163
C91   C     C_2   0.775516 0.142232 0.444283 0.328098
H27   H     H_    0.776126 0.195311 0.493125 -0.017132
O67   O     O_2   0.816717 0.168868 0.397190 -0.421443
C92   C     C_2   0.216354 0.135185 0.556206 0.168880
H28   H     H_    0.214640 0.189889 0.508564 0.029472
O68   O     O_2   0.171422 0.152383 0.601639 -0.422019
N5    N     N_R   0.413336 0.982551 0.144911 0.112865
O69   O     O_R   0.367631 0.896176 0.140450 -0.350480
O70   O     O_R   0.431976 0.020558 0.207946 -0.240193
N6    N     N_R   0.517922 0.094056 0.870194 0.130152
O71   O     O_R   0.579141 0.053677 0.850757 -0.199800
O72   O     O_R   0.479171 0.149775 0.823570 -0.262224
N7    N     N_R   0.969856 0.590153 0.141508 0.137798
O73   O     O_R   0.912750 0.538999 0.163478 -0.320281
O74   O     O_R   0.010216 0.642309 0.188405 -0.179711
N8    N     N_R   0.076599 0.497737 0.865197 -0.025072
O75   O     O_R   0.111623 0.396590 0.862751 -0.251856
O76   O     O_R   0.089482 0.577851 0.816658 -0.130704
C93   C     C_2   0.004152 0.794994 0.048944 1.164477
H29   H     H_    0.018241 0.867797 0.014195 -2.626934
O77   O     O_2   0.987922 0.822649 0.109836 -0.335322
C94   C     C_2   0.008079 0.737259 0.894955 0.711405
H30   H     H_    0.024569 0.828325 0.902715 0.436013
O78   O     O_2   0.975606 0.712987 0.840563 -0.181266
C95   C     C_2   0.462692 0.233186 0.116531 0.227679
H31   H     H_    0.502478 0.301954 0.112518 0.052051
O79   O     O_2   0.422791 0.237735 0.167193 -0.381965
C96   C     C_2   0.483420 0.291612 0.967662 0.270866
H32   H     H_    0.465983 0.362972 0.002709 0.029336
O80   O     O_2   0.508280 0.321197 0.910719 -0.410168
C97   C     C_2   0.350271 0.444407 0.071641 0.393697
H33   H     H_    0.353474 0.355250 0.047686 0.116093
O81   O     O_2   0.387306 0.470457 0.122530 -0.499550
C98   C     C_2   0.665914 0.393381 0.940951 0.336373
H34   H     H_    0.657541 0.306252 0.964459 0.117147
O82   O     O_2   0.628766 0.422103 0.890981 -0.406379
C99   C     C_2   0.846240 0.929623 0.054174 0.377947
H35   H     H_    0.894276 0.956280 0.029368 0.376797
O83   O     O_2   0.850071 0.854395 0.100424 -0.387527
C100  C     C_2   0.145262 0.951983 0.925109 0.504222
H36   H     H_    0.135910 0.866742 0.951363 0.120981
O84   O     O_2   0.112421 0.977610 0.871317 -0.041766
C101  C     C_2   0.384003 0.546698 0.937192 0.399945
H37   H     H_    0.425336 0.591740 0.966241 -0.002895
O85   O     O_2   0.399059 0.480641 0.886906 -0.406329
C102  C     C_2   0.665110 0.406590 0.096093 0.357414
H38   H     H_    0.619155 0.369013 0.070889 0.033080
O86   O     O_2   0.676707 0.379375 0.158096 -0.390051
C103  C     C_2   0.818529 0.907889 0.897052 1.263724
H39   H     H_    0.869327 0.872158 0.911235 -6.119887
O87   O     O_2   0.792223 0.876983 0.840373 -0.239672
C104  C     C_2   0.115537 0.044990 0.063237 0.380750
H40   H     H_    0.072521 0.089007 0.036112 0.339831
O88   O     O_2   0.103123 0.977216 0.112632 -0.364985
N9    N     N_R   0.228156 0.713270 0.057628 -0.096841
O89   O     O_R   0.268390 0.789002 0.024523 -0.398562
O90   O     O_R   0.165186 0.747361 0.075019 -0.360367
N10   N     N_R   0.779796 0.668575 0.962848 0.318263
O91   O     O_R   0.736306 0.740400 0.995730 -0.345873
O92   O     O_R   0.846953 0.684113 0.968856 -0.227820
N11   N     N_R   0.654174 0.014467 0.023333 0.119447
O93   O     O_R   0.615144 0.107799 0.037996 -0.424936
O94   O     O_R   0.639046 0.945185 0.969293 -0.355689
N12   N     N_R   0.267815 0.217857 0.941567 0.128615
O95   O     O_R   0.226843 0.290987 0.977129 -0.456039
O96   O     O_R   0.327327 0.258447 0.918604 -0.183522

loop_
_geom_bond_atom_site_label_1
_geom_bond_atom_site_label_2
_geom_bond_distance
_ccdc_geom_bond_type
C18   O42   1.272345 A    
C42   C94   1.482519 S    
O4    C12   1.286801 A    
C65   H5    1.086823 S    
C29   C30   1.409499 A    
C26   C30   1.430195 A    
O39   C19   1.277448 A    
O20   Cr12  2.075030 S    
C21   C69   1.450106 S    
N1    O53   1.301685 A    
C41   C42   1.420541 A    
Cr11  O51   1.986415 S    
C31   C32   1.409533 A    
C28   C32   1.410420 A    
C68   H8    1.087666 S    
C71   C83   1.342862 D    
C20   C64   1.441734 S    
C40   C42   1.400894 A    
C33   C34   1.380420 A    
C33   N1    1.436554 S    
C67   C68   1.446475 S    
N3    O58   1.299341 A    
C69   H17   1.089694 S    
C85   H21   1.085574 S    
C102  H38   1.080855 S    
C67   H7    1.086747 S    
C19   C63   1.441128 S    
C88   H24   1.085568 S    
C92   O68   1.221361 D    
C58   C102  1.497851 S    
N6    O72   1.302488 A    
O24   C12   1.266748 A    
C17   C61   1.440025 S    
C44   C96   1.490661 S    
C78   C82   1.456752 S    
O25   C21   1.274608 A    
C54   C58   1.520835 S    
N9    O89   1.301836 A    
C86   O62   1.221409 D    
N8    O76   1.300102 A    
C36   N4    1.435686 S    
C104  O88   1.220276 D    
C2    C51   1.471519 S    
O21   C9    1.262798 A    
O8    Cr4   1.959023 S    
O23   Cr11  1.941993 S    
C86   H22   1.085541 S    
C101  H37   1.081046 S    
C72   C84   1.344401 D    
C83   C87   1.483595 S    
C17   O41   1.261413 A    
O32   Cr4   1.934381 S    
C62   H9    1.084209 S    
C1    O9    1.281505 A    
O44   Cr12  2.049543 S    
C60   C104  1.487627 S    
C73   C89   1.485487 S    
C3    O11   1.295679 A    
C76   C80   1.348176 D    
C7    O19   1.260049 A    
C4    O12   1.273991 A    
C48   H4    1.086035 S    
N2    O56   1.299180 A    
N6    O71   1.300782 A    
C89   O65   1.221061 D    
N10   O92   1.300706 A    
C12   C48   1.466868 S    
C88   O64   1.220059 D    
C99   H35   1.072685 S    
C38   C44   1.425852 A    
C22   C70   1.451919 S    
C75   C79   1.350785 D    
C27   C36   1.389492 A    
C15   O35   1.265666 A    
O3    Cr3   2.071833 S    
Cr4   O52   1.987847 S    
C26   C33   1.389585 A    
O2    Cr2   2.051634 S    
O8    C4    1.279470 A    
C34   N2    1.426158 S    
Cr6   O50   1.986452 S    
C64   H11   1.085091 S    
C103  O87   1.221511 D    
C14   C75   1.444842 S    
O42   Cr10  2.049543 S    
Cr5   O49   1.995840 S    
C91   H27   1.082805 S    
O18   Cr10  2.075030 S    
C16   C73   1.442677 S    
C45   H1    1.086345 S    
C25   C29   1.410145 A    
C99   O83   1.208955 D    
C76   C92   1.492334 S    
C81   C85   1.484161 S    
O34   Cr6   2.065606 S    
C94   O78   1.221550 D    
C94   H30   1.067024 S    
C31   C39   1.428441 A    
O29   C13   1.302622 A    
O6    Cr2   1.959023 S    
C43   C95   1.486278 S    
C5    C26   1.463973 S    
N5    O70   1.300103 A    
O31   Cr3   1.952575 S    
O24   Cr12  1.930488 S    
C100  O84   1.221728 D    
O30   Cr2   1.934381 S    
C49   N9    1.444717 S    
C92   H28   1.083147 S    
O22   C10   1.283976 A    
C47   C59   1.332499 D    
O48   Cr12  1.954982 S    
N4    O59   1.301557 A    
C80   C84   1.459868 S    
O32   C16   1.277832 A    
C95   H31   1.082237 S    
C90   O66   1.221100 D    
C63   C68   1.346857 D    
C2    O10   1.315613 A    
C85   O61   1.221161 D    
C39   N7    1.442534 S    
N9    O90   1.299661 A    
O16   Cr8   1.949164 S    
N8    O75   1.302152 A    
O7    Cr3   1.942685 S    
C61   H10   1.081558 S    
O26   Cr2   2.078119 S    
C79   H15   1.088832 S    
C93   H29   1.075839 S    
Cr10  O50   1.996043 S    
C79   C83   1.464958 S    
O11   Cr7   2.050961 S    
O13   C5    1.258250 A    
C37   N5    1.443005 S    
O40   C20   1.273633 A    
C51   C55   1.382259 D    
O43   Cr11  2.058563 S    
O48   C24   1.278571 A    
C101  O85   1.220445 D    
O22   Cr10  1.930488 S    
O7    C3    1.266970 A    
O5    C1    1.279231 A    
C97   H33   1.082244 S    
C75   C91   1.492857 S    
O46   Cr10  1.954982 S    
O39   Cr7   1.932375 S    
O13   Cr5   1.954164 S    
O45   Cr9   1.951749 S    
N7    O73   1.300690 A    
C15   C74   1.446309 S    
O3    C11   1.259506 A    
O14   Cr6   1.949164 S    
C74   C90   1.486205 S    
N10   O91   1.298417 A    
C40   N8    1.450424 S    
C98   O82   1.218213 D    
C13   O33   1.289705 A    
C39   C41   1.427949 A    
C50   C54   1.388765 D    
O47   Cr11  1.951749 S    
Cr2   O50   1.987847 S    
O15   Cr7   1.954164 S    
Cr1   O49   1.987631 S    
C23   C71   1.456088 S    
Cr7   O51   1.995840 S    
C6    O18   1.256934 A    
C71   H19   1.088798 S    
C46   H2    1.078449 S    
C49   C53   1.359459 D    
N5    O69   1.301159 A    
Cr3   O51   1.987631 S    
O26   C22   1.275719 A    
N7    O74   1.302402 A    
O21   Cr9   1.941993 S    
C96   H32   1.074134 S    
C96   O80   1.215378 D    
C32   C40   1.403193 A    
O9    Cr5   2.050961 S    
O30   C14   1.304048 A    
C65   C66   1.443437 S    
C72   H20   1.088626 S    
O4    Cr4   2.051634 S    
O23   C11   1.268201 A    
C62   C65   1.330043 D    
C9    C45   1.465080 S    
C43   C44   1.421176 A    
C29   C37   1.406808 A    
N11   O93   1.298558 A    
C8    C27   1.475043 S    
C3    C50   1.489164 S    
C51   N11   1.429510 S    
C11   C47   1.430505 S    
N2    O55   1.299181 A    
O15   C7    1.295009 A    
C8    O20   1.297367 A    
C4    C49   1.477331 S    
O38   C18   1.274365 A    
O25   Cr1   2.062358 S    
C55   C99   1.479786 S    
O45   C21   1.268997 A    
C102  O86   1.222045 D    
C5    O17   1.294954 A    
C100  H36   1.083880 S    
O37   C17   1.278628 A    
O28   C24   1.272738 A    
C82   C86   1.484741 S    
O14   C6    1.298006 A    
C1    C52   1.477762 S    
C19   O43   1.262825 A    
C78   H14   1.089476 S    
O5    Cr1   1.942685 S    
Cr12  O52   1.996043 S    
C45   C57   1.365015 D    
C90   H26   1.083103 S    
N11   O94   1.298083 A    
O17   Cr9   2.072581 S    
O6    C2    1.289801 A    
N4    O60   1.301562 A    
C103  H39   1.080489 S    
C95   O79   1.217267 D    
C48   C60   1.366251 D    
N12   O95   1.301966 A    
C70   C82   1.337715 D    
C55   C59   1.484971 S    
C66   H6    1.087559 S    
C93   O77   1.217424 D    
C50   N10   1.417686 S    
C69   C81   1.335846 D    
C14   O34   1.288228 A    
C47   H3    1.077070 S    
C54   C98   1.488249 S    
O40   Cr8   1.947250 S    
C35   C36   1.388404 A    
C25   C34   1.425115 A    
C20   O44   1.273892 A    
C13   C76   1.443737 S    
O1    Cr1   2.071833 S    
O19   Cr11  2.072581 S    
C80   H16   1.086806 S    
C104  H40   1.082487 S    
C84   C88   1.482865 S    
C87   H23   1.085504 S    
Cr8   O52   1.986452 S    
N3    O57   1.299341 A    
C24   C72   1.456255 S    
C46   C58   1.347383 D    
C41   C93   1.492549 S    
C59   C103  1.487022 S    
O2    C10   1.275261 A    
O46   C22   1.274020 A    
C38   N6    1.442021 S    
C18   C62   1.439924 S    
C64   C67   1.329469 D    
C10   C46   1.474606 S    
C73   C77   1.356399 D    
C53   C97   1.477486 S    
C98   H34   1.076864 S    
C6    C25   1.478363 S    
O33   Cr5   2.072535 S    
O47   C23   1.273341 A    
O10   Cr6   2.068595 S    
C77   C81   1.456394 S    
C57   C101  1.487142 S    
O35   Cr7   2.072535 S    
C87   O63   1.221323 D    
C52   N12   1.445071 S    
O1    C9    1.282916 A    
O29   Cr1   1.952575 S    
C61   C66   1.346163 D    
C52   C56   1.362525 D    
C16   O36   1.259024 A    
N12   O96   1.299645 A    
C35   N3    1.423864 S    
C30   C38   1.428705 A    
C27   C31   1.426466 A    
C97   O81   1.220715 D    
C89   H25   1.082949 S    
C74   C78   1.357000 D    
O28   Cr4   2.078119 S    
C77   H13   1.089838 S    
C37   C43   1.405241 A    
C91   O67   1.221025 D    
O27   C23   1.272488 A    
C7    C28   1.483459 S    
O41   Cr9   2.058563 S    
C53   C57   1.470533 S    
C70   H18   1.089033 S    
O12   Cr8   2.068595 S    
O37   Cr5   1.932375 S    
O36   Cr8   2.065606 S    
O31   C15   1.281689 A    
O16   C8    1.261904 A    
O27   Cr3   2.062358 S    
Cr9   O49   1.986415 S    
C63   H12   1.083539 S    
C56   C60   1.473336 S    
C28   C35   1.422228 A    
C56   C100  1.484558 S    
O38   Cr6   1.947250 S    
N1    O54   1.301684 A    
