data_mof_unit_20583.cif
_audit_creation_date              2012-12-10T16:38:42-0500
_audit_creation_method            fapswitch 2.2
_symmetry_space_group_name_H-M    P1
_symmetry_Int_Tables_number       1
_space_group_crystal_system       triclinic
_cell_length_a                    10.909854
_cell_length_b                    10.863031
_cell_length_c                    17.830828
_cell_angle_alpha                 97.893987
_cell_angle_beta                  72.331771
_cell_angle_gamma                 97.45446
_cell_volume                      1985.74453575

loop_
_atom_site_label
_atom_site_type_symbol
_atom_type_description
_atom_site_fract_x
_atom_site_fract_y
_atom_site_fract_z
_atom_type_partial_charge
C1    C     C_R   0.157929 0.481104 0.519020 0.605877
C2    C     C_R   0.612099 0.427150 0.917816 -0.074720
C3    C     C_R   0.689723 0.381039 0.954178 -0.106095
C4    C     C_R   0.843110 0.519780 0.482183 0.454336
C5    C     C_R   0.660425 0.392637 0.036729 0.024883
C6    C     C_R   0.549403 0.451751 0.083429 -0.007010
C7    C     C_R   0.742719 0.348289 0.072955 0.288878
C8    C     C_R   0.710309 0.355543 0.156439 0.006544
C9    C     C_R   0.517891 0.455531 0.166128 -0.132355
C10   C     C_2   0.981514 0.519165 0.471267 -0.042956
C11   C     C_2   0.022457 0.484529 0.529589 0.022985
C12   C     C_R   0.315688 0.676267 0.843359 0.253543
C13   C     C_2   0.530623 0.963829 0.473712 -0.083103
C14   C     C_2   0.458821 0.040945 0.530859 0.015521
C15   C     C_R   0.469409 0.169550 0.518249 0.461956
C16   C     C_R   0.529098 0.832882 0.482841 0.553423
C17   C     C_R   0.566036 0.435891 0.288158 0.487011
C18   C     C_R   0.431468 0.559936 0.713355 0.512093
C19   C     C_R   0.391800 0.578378 0.801536 0.000325
C20   C     C_R   0.597742 0.411470 0.202124 -0.038788
C21   C     C_R   0.280384 0.689853 0.926521 -0.122210
C22   C     C_2   0.237199 0.750759 0.100454 0.218829
C23   C     C_R   0.425427 0.495646 0.845359 -0.062137
C24   C     C_3   0.956579 0.390793 0.011185 -0.003350
C25   C     C_3   0.078630 0.334060 0.959628 -0.318647
C26   C     C_2   0.070484 0.551635 0.392827 0.224526
C27   C     C_2   0.939771 0.477554 0.613015 0.246575
C28   C     C_2   0.401973 0.014671 0.614632 0.265280
C29   C     C_2   0.791154 0.303342 0.196409 0.249689
C30   C     C_3   0.262994 0.873419 0.830538 0.010934
C31   C     C_3   0.125159 0.909818 0.865347 -0.363923
C32   C     C_2   0.426214 0.359272 0.816514 0.207518
C33   C     C_R   0.424132 0.536293 0.924737 0.017963
C34   C     C_R   0.341501 0.628592 0.967542 -0.012823
C35   C     C_R   0.501706 0.486930 0.962466 0.079161
C36   C     C_R   0.474942 0.507019 0.045879 0.031115
C37   C     C_R   0.381052 0.588806 0.088437 -0.140850
C38   C     C_R   0.319759 0.654269 0.050283 0.011051
H1    H     H_    0.588093 0.997503 0.417738 0.096898
H2    H     H_    0.159821 0.408278 0.946890 0.120221
H3    H     H_    0.103630 0.263304 0.990635 0.208039
H4    H     H_    0.063977 0.288956 0.902812 0.158496
H5    H     H_    0.031793 0.550577 0.343358 0.129521
H6    H     H_    0.858129 0.532826 0.637940 0.134903
H7    H     H_    0.310961 0.050271 0.649186 0.082298
H8    H     H_    0.771577 0.318873 0.260171 0.092226
H9    H     H_    0.309692 0.927128 0.779297 0.209500
H10   H     H_    0.319689 0.904246 0.873443 0.153549
H11   H     H_    0.072487 0.857555 0.916709 0.162818
H12   H     H_    0.430944 0.492432 0.204911 0.142599
H13   H     H_    0.126868 0.011371 0.885166 0.136537
H14   H     H_    0.072859 0.888912 0.819802 0.169398
H15   H     H_    0.427567 0.325203 0.756426 0.153246
H16   H     H_    0.773670 0.336478 0.916816 0.165909
H17   H     H_    0.207190 0.750980 0.958094 0.170957
H18   H     H_    0.362309 0.613461 0.151265 0.109605
H19   H     H_    0.642551 0.419652 0.853810 0.149924
H20   H     H_    0.181737 0.734714 0.160665 0.117496
H21   H     H_    0.974957 0.436256 0.067183 0.152068
H22   H     H_    0.936282 0.463326 0.979173 0.114002
O1    O     O_3   0.500000 0.500000 0.500000 -0.461852
O2    O     O_R   0.470800 0.371790 0.332500 -0.512315
O3    O     O_R   0.380610 0.619380 0.674980 -0.461498
O4    O     O_R   0.632640 0.524780 0.317540 -0.550174
O5    O     O_R   0.515950 0.484050 0.674980 -0.578948
O6    O     O_2   0.237069 0.851696 0.077694 -0.490655
O7    O     O_3   0.853513 0.295495 0.026412 -0.513991
O8    O     O_2   0.185399 0.583354 0.382723 -0.518421
O9    O     O_2   0.965702 0.412531 0.655811 -0.506232
O10   O     O_2   0.461555 0.962603 0.647094 -0.488594
O11   O     O_2   0.879135 0.240230 0.159256 -0.449792
O12   O     O_R   0.535460 0.243030 0.556410 -0.533348
O13   O     O_3   0.261727 0.744545 0.802718 -0.525127
O14   O     O_2   0.414596 0.280884 0.861806 -0.508713
O15   O     O_R   0.437420 0.784080 0.535340 -0.496621
O16   O     O_R   0.223560 0.397520 0.472140 -0.503046
O17   O     O_R   0.803560 0.575360 0.436110 -0.549411
O18   O     O_R   0.209690 0.568800 0.556400 -0.529167
O19   O     O_R   0.763190 0.458310 0.535350 -0.546584
O20   O     O_R   0.414000 0.207090 0.472140 -0.540581
O21   O     O_R   0.613120 0.765800 0.436110 -0.531478
Zn1   Zn    Zn3+2 0.577310 0.422690 0.565550 0.942756
Zn2   Zn    Zn3+2 0.403760 0.371330 0.445150 0.988826
Zn3   Zn    Zn3+2 0.634990 0.589920 0.423760 0.960366
Zn4   Zn    Zn3+2 0.383940 0.616050 0.565540 1.033340

loop_
_geom_bond_atom_site_label_1
_geom_bond_atom_site_label_2
_ccdc_geom_bond_type
C2    C35   A    
O2    Zn2   S    
C16   O15   A    
C35   C36   A    
C1    C11   S    
C31   H14   S    
C6    C9    A    
C2    H19   S    
C7    C8    A    
C18   O5    A    
C15   O12   A    
C8    C20   A    
C8    C29   S    
C30   H10   S    
C36   C37   A    
O1    Zn1   S    
C17   O4    A    
C32   O14   D    
C30   C31   S    
C3    H16   S    
C18   O3    A    
C22   C38   S    
C17   C20   S    
C18   C19   S    
O4    Zn3   S    
C24   O7    S    
C37   H18   S    
C27   H6    S    
O15   Zn4   S    
C22   O6    D    
C23   C33   A    
C27   O9    D    
C10   C26   S    
C12   O13   S    
O3    Zn4   S    
C1    O18   A    
C31   H11   S    
O20   Zn2   S    
O16   Zn2   S    
C26   H5    S    
C28   H7    S    
C30   H9    S    
C24   C25   S    
C4    O19   A    
O1    Zn2   S    
C25   H3    S    
C21   H17   S    
C30   O13   S    
C21   C34   A    
O17   Zn3   S    
C12   C21   A    
C19   C23   A    
C37   C38   A    
C17   O2    A    
C9    C20   A    
C15   O20   A    
C11   C27   S    
C24   H22   S    
C33   C34   A    
O1    Zn4   S    
O18   Zn4   S    
C4    C10   S    
C32   H15   S    
O21   Zn3   S    
C5    C7    A    
C34   C38   A    
C1    O16   A    
C28   O10   D    
C9    H12   S    
C31   H13   S    
C3    C5    A    
O1    Zn3   S    
C25   H4    S    
C22   H20   S    
O19   Zn1   S    
C29   H8    S    
C26   O8    D    
C23   C32   S    
C2    C3    A    
C4    O17   A    
C25   H2    S    
O5    Zn1   S    
C5    C6    A    
C24   H21   S    
C12   C19   A    
C16   O21   A    
C33   C35   A    
C6    C36   A    
C13   H1    S    
C10   C11   D    
C7    O7    S    
C13   C16   S    
C14   C15   S    
C14   C28   S    
C13   C14   D    
O12   Zn1   S    
C29   O11   D    
