data_mof_unit_63442.cif
_audit_creation_date              2012-12-10T16:56:44-0500
_audit_creation_method            fapswitch 2.2
_symmetry_space_group_name_H-M    P1
_symmetry_Int_Tables_number       1
_space_group_crystal_system       triclinic
_cell_length_a                    21.728509
_cell_length_b                    21.726751
_cell_length_c                    22.213559
_cell_angle_alpha                 119.166952
_cell_angle_beta                  118.995506
_cell_angle_gamma                 90.890121
_cell_volume                      7561.61967057

loop_
_atom_site_label
_atom_site_type_symbol
_atom_type_description
_atom_site_fract_x
_atom_site_fract_y
_atom_site_fract_z
_atom_type_partial_charge
C1    C     C_R   0.498842 0.117116 0.496766 0.781547
C2    C     C_R   0.501158 0.882883 0.503233 0.781534
C3    C     C_1   0.875201 0.374520 0.250491 -0.119746
C4    C     C_1   0.124800 0.625480 0.749509 -0.119759
C5    C     C_3   0.709012 0.205325 0.917083 0.225150
C6    C     C_3   0.290973 0.794664 0.082917 0.225133
C7    C     C_3   0.743841 0.332795 0.047061 0.330355
C8    C     C_3   0.256702 0.667477 0.952942 0.330354
C9    C     C_3   0.790133 0.290454 0.082909 0.108060
C10   C     C_3   0.209872 0.709555 0.917091 0.108072
C11   C     C_3   0.737819 0.215628 0.048652 -0.337760
C12   C     C_3   0.261683 0.784681 0.951350 -0.337771
C13   C     C_3   0.683918 0.169600 0.951758 0.037884
C14   C     C_3   0.315614 0.830749 0.048244 0.037840
C15   C     C_1   0.836937 0.336678 0.175142 -0.004059
C16   C     C_1   0.163067 0.663327 0.824858 -0.004077
C17   C     C_1   0.662782 0.160519 0.824737 -0.059084
C18   C     C_1   0.337213 0.839471 0.175262 -0.059090
C19   C     C_1   0.625044 0.123839 0.749436 -0.176326
C20   C     C_1   0.374955 0.876155 0.250564 -0.176310
C21   C     C_R   0.515909 0.125331 0.377061 -0.172459
C22   C     C_R   0.484115 0.874680 0.622956 -0.172454
C23   C     C_R   0.580028 0.079823 0.659835 0.814210
C24   C     C_R   0.419972 0.920175 0.340165 0.814199
C25   C     C_R   0.532600 0.132757 0.327253 -0.137381
C26   C     C_R   0.467438 0.867261 0.672776 -0.137400
C27   C     C_R   0.544709 0.200967 0.336963 -0.125923
C28   C     C_R   0.455327 0.799052 0.663069 -0.125869
C29   C     C_R   0.537439 0.261382 0.394326 -0.171204
C30   C     C_R   0.462584 0.738631 0.605696 -0.171202
C31   C     C_R   0.517644 0.254369 0.443253 0.092973
C32   C     C_R   0.482367 0.745637 0.556757 0.092963
C33   C     C_R   0.510929 0.186617 0.437867 0.099055
C34   C     C_R   0.489082 0.813389 0.562141 0.099069
C35   C     C_R   0.498137 0.181892 0.492515 -0.099312
C36   C     C_R   0.501863 0.818108 0.507484 -0.099289
C37   C     C_R   0.488133 0.241671 0.547668 -0.194667
C38   C     C_R   0.511854 0.758324 0.452322 -0.194697
C39   C     C_R   0.491556 0.306673 0.550412 -0.194428
C40   C     C_R   0.508431 0.693323 0.449579 -0.194467
C41   C     C_R   0.505427 0.313397 0.498352 -0.106640
C42   C     C_R   0.494572 0.686604 0.501648 -0.106631
C43   C     C_R   0.759262 0.513603 0.453748 -0.178254
C44   C     C_R   0.240740 0.486402 0.546257 -0.178112
C45   C     C_R   0.735839 0.458421 0.601344 -0.170227
C46   C     C_R   0.264158 0.541572 0.398650 -0.170226
C47   C     C_R   0.818086 0.501760 0.507409 -0.107108
C48   C     C_R   0.181914 0.498241 0.492592 -0.107143
C49   C     C_R   0.883029 0.501198 0.503317 0.785963
C50   C     C_R   0.116971 0.498802 0.496683 0.786046
C51   C     C_R   0.920320 0.419847 0.340138 0.812549
C52   C     C_R   0.079680 0.580153 0.659862 0.812634
C53   C     C_R   0.619064 0.497595 0.500157 0.783871
C54   C     C_R   0.380936 0.502405 0.499843 0.783873
C55   C     C_R   0.502535 0.380883 0.499653 0.782707
C56   C     C_R   0.497464 0.619117 0.500347 0.782707
C57   C     C_R   0.744222 0.480201 0.554484 0.094077
C58   C     C_R   0.255776 0.519796 0.445513 0.094098
C59   C     C_R   0.872286 0.479864 0.619577 -0.170925
C60   C     C_R   0.127711 0.520129 0.380418 -0.170895
C61   C     C_R   0.863472 0.460947 0.667214 -0.138112
C62   C     C_R   0.136523 0.539043 0.332778 -0.138070
C63   C     C_R   0.795060 0.448919 0.657012 -0.128941
C64   C     C_R   0.204935 0.551071 0.342980 -0.128993
C65   C     C_R   0.694153 0.510170 0.450795 -0.192293
C66   C     C_R   0.305849 0.489835 0.549209 -0.192240
C67   C     C_R   0.686347 0.494437 0.501121 -0.107943
C68   C     C_R   0.313653 0.505563 0.498879 -0.107981
C69   C     C_R   0.812126 0.486911 0.560219 0.097518
C70   C     C_R   0.187872 0.513086 0.439779 0.097483
C71   C     C_3   0.697361 0.282817 0.949673 -0.532888
C72   C     C_3   0.303156 0.717427 0.050330 -0.532796
C73   C     C_3   0.794449 0.221479 0.953634 0.041072
C74   C     C_3   0.205508 0.777926 0.046359 0.041067
C75   C     C_3   0.841382 0.270783 0.050991 -0.482626
C76   C     C_3   0.158580 0.728628 0.949002 -0.482621
Cu1   Cu    Cu3+1 0.438180 0.999990 0.500010 0.961986
Cu2   Cu    Cu3+1 0.561820 0.000010 0.499990 0.962040
Cu3   Cu    Cu3+1 0.000200 0.561800 0.499990 0.977142
Cu4   Cu    Cu3+1 0.999800 0.438200 0.500010 0.976886
Cu5   Cu    Cu3+1 0.541330 0.541310 0.582630 0.955847
Cu6   Cu    Cu3+1 0.458670 0.458690 0.417370 0.955728
H1    H     H_    0.788009 0.432794 0.692925 0.138772
H2    H     H_    0.211984 0.567194 0.307064 0.138754
H3    H     H_    0.705283 0.225967 0.076695 0.212714
H4    H     H_    0.294189 0.774754 0.923306 0.212571
H5    H     H_    0.636951 0.274912 0.922244 0.234399
H6    H     H_    0.363624 0.725736 0.077776 0.234510
H7    H     H_    0.772398 0.183422 0.068263 0.170228
H8    H     H_    0.226732 0.816666 0.931745 0.170243
H9    H     H_    0.478409 0.238303 0.589611 0.160720
H10   H     H_    0.521570 0.761688 0.410371 0.160703
H11   H     H_    0.506020 0.070960 0.366398 0.146851
H12   H     H_    0.494004 0.929049 0.633616 0.146818
H13   H     H_    0.536727 0.085514 0.281378 0.139913
H14   H     H_    0.463321 0.914509 0.718658 0.139864
H15   H     H_    0.559231 0.206962 0.299417 0.141879
H16   H     H_    0.440815 0.793063 0.700624 0.141898
H17   H     H_    0.548462 0.313494 0.400440 0.146484
H18   H     H_    0.451559 0.686521 0.599584 0.146499
H19   H     H_    0.683522 0.447566 0.594850 0.144053
H20   H     H_    0.316474 0.552428 0.405144 0.144050
H21   H     H_    0.482233 0.351705 0.592676 0.159662
H22   H     H_    0.517745 0.648286 0.407307 0.159632
H23   H     H_    0.649912 0.520966 0.409798 0.161072
H24   H     H_    0.350091 0.479042 0.590209 0.161121
H25   H     H_    0.763445 0.524790 0.413110 0.176268
H26   H     H_    0.236559 0.475219 0.586898 0.176306
H27   H     H_    0.926875 0.489859 0.630884 0.146366
H28   H     H_    0.073122 0.510134 0.369112 0.146391
H29   H     H_    0.909824 0.455116 0.711855 0.137234
H30   H     H_    0.090170 0.544871 0.288135 0.137296
H31   H     H_    0.783966 0.383421 0.069169 0.089048
H32   H     H_    0.216924 0.616591 0.930819 0.089078
H33   H     H_    0.714372 0.311796 0.927662 0.152928
H34   H     H_    0.286474 0.688206 0.072327 0.152883
H35   H     H_    0.808525 0.254790 0.933863 0.150732
H36   H     H_    0.191803 0.744425 0.066138 0.150722
H37   H     H_    0.880641 0.322978 0.074865 0.152050
H38   H     H_    0.119680 0.676198 0.925135 0.152039
H39   H     H_    0.876586 0.242329 0.077207 0.200148
H40   H     H_    0.122998 0.756869 0.922774 0.200128
H41   H     H_    0.628004 0.174320 0.936664 0.200080
H42   H     H_    0.371637 0.826444 0.063336 0.200171
O1    O     O_R   0.447780 0.090160 0.499990 -0.579386
O2    O     O_R   0.552220 0.909840 0.500010 -0.579376
O3    O     O_R   0.555310 0.465120 0.430190 -0.588504
O4    O     O_R   0.444690 0.534880 0.569810 -0.588467
O5    O     O_R   0.534910 0.444720 0.569790 -0.589769
O6    O     O_R   0.465090 0.555280 0.430210 -0.589809
O7    O     O_R   0.465120 0.374940 0.430230 -0.581866
O8    O     O_R   0.534880 0.625060 0.569770 -0.581855
O9    O     O_R   0.552200 0.090180 0.499980 -0.587505
O10   O     O_R   0.447800 0.909820 0.500020 -0.587510
O11   O     O_R   0.508070 0.060270 0.620570 -0.584516
O12   O     O_R   0.491930 0.939730 0.379430 -0.584483
O13   O     O_R   0.612490 0.060290 0.620560 -0.575731
O14   O     O_R   0.387510 0.939710 0.379440 -0.575748
O15   O     O_R   0.910000 0.552200 0.500000 -0.577001
O16   O     O_R   0.090000 0.447800 0.500000 -0.577043
O17   O     O_R   0.909970 0.447830 0.500020 -0.587896
O18   O     O_R   0.090030 0.552170 0.499980 -0.587858
O19   O     O_R   0.939920 0.491910 0.379430 -0.573202
O20   O     O_R   0.060080 0.508090 0.620570 -0.573429
O21   O     O_R   0.939890 0.387530 0.379440 -0.582353
O22   O     O_R   0.060110 0.612470 0.620560 -0.582269
O23   O     O_R   0.625100 0.534890 0.569750 -0.581906
O24   O     O_R   0.374900 0.465110 0.430250 -0.581926
C77   C     C_3   0.671671 0.085425 0.911458 -0.879763
H43   H     H_    0.643636 0.064735 0.931814 0.232493
H44   H     H_    0.634966 0.053275 0.842351 0.241836
H45   H     H_    0.724420 0.072973 0.930290 0.249466
C78   C     C_3   0.327320 0.914845 0.088550 -0.879749
H46   H     H_    0.355077 0.935854 0.068178 0.232523
H47   H     H_    0.274382 0.926930 0.069740 0.249466
H48   H     H_    0.364067 0.947009 0.157655 0.241868
S1    S     S_3+6 0.684598 0.366415 0.082654 -0.015221
O25   O     O_2   0.728805 0.413112 0.176371 -0.288969
O26   O     O_2   0.651886 0.413857 0.052261 -0.267050
O27   O     O_3   0.614737 0.294792 0.044115 -0.573491
H49   H     H_    0.584776 0.318403 0.065319 0.382458
S2    S     S_3+6 0.316114 0.634573 0.917375 -0.015249
O28   O     O_2   0.349357 0.587256 0.947716 -0.266581
O29   O     O_2   0.271925 0.587952 0.823661 -0.289563
O30   O     O_3   0.385543 0.706654 0.955988 -0.573493
H50   H     H_    0.415250 0.683430 0.934180 0.382387
C79   C     C_3   0.817991 0.152299 0.920262 -0.834025
H51   H     H_    0.777433 0.110942 0.852174 0.245220
H52   H     H_    0.872705 0.169884 0.931178 0.225133
H53   H     H_    0.825545 0.125056 0.953264 0.236395
C80   C     C_3   0.181504 0.846749 0.079712 -0.834029
H54   H     H_    0.126890 0.828743 0.068797 0.225136
H55   H     H_    0.222001 0.888169 0.147798 0.245258
H56   H     H_    0.173569 0.874048 0.046696 0.236386

loop_
_geom_bond_atom_site_label_1
_geom_bond_atom_site_label_2
_ccdc_geom_bond_type
C66   C68   A    
C80   H54   S    
S1    O25   D    
C5    C71   S    
C30   H18   S    
C27   C29   A    
C22   H12   S    
Cu3   O15   S    
C73   C79   S    
Cu5   Cu6   S    
Cu1   O1    S    
C47   C49   S    
Cu1   Cu2   S    
C6    C72   S    
C80   H55   S    
C45   C57   A    
O30   H50   S    
C74   C76   S    
C14   C78   S    
C4    C52   S    
C12   H8    S    
C35   C37   A    
C57   C67   A    
C77   H44   S    
C7    C71   S    
C13   H41   S    
C50   O16   A    
Cu3   O18   S    
C21   C33   A    
C51   O21   A    
C28   H16   S    
C38   H10   S    
C53   O23   A    
C18   C20   T    
C60   C62   A    
C61   C63   A    
C47   C69   A    
C41   C55   S    
C62   C64   A    
C1    O9    A    
C53   O3    A    
C42   C56   S    
C44   C66   A    
C49   O15   A    
Cu3   O19   S    
C20   C24   S    
C65   C67   A    
C49   O17   A    
C52   O22   A    
C31   C33   A    
Cu6   O6    S    
C43   C47   A    
C5    C13   S    
C8    H32   S    
C24   O12   A    
C62   H30   S    
C40   C42   A    
S1    O26   D    
C46   C58   A    
C29   C31   A    
C73   C75   S    
C10   C76   S    
C66   H24   S    
C6    C18   S    
C10   C12   S    
C65   H23   S    
C72   H6    S    
C6    C74   S    
Cu3   O22   S    
S2    O29   D    
C44   H26   S    
C26   H14   S    
C22   C34   A    
C80   H56   S    
C59   C61   A    
C14   H42   S    
C29   H17   S    
C30   C32   A    
C73   H35   S    
Cu1   O14   S    
C79   H52   S    
C77   H45   S    
C79   H51   S    
C37   H9    S    
C58   C70   A    
C74   H36   S    
C43   H25   S    
Cu4   O20   S    
Cu4   O16   S    
C54   O4    A    
C45   C63   A    
C59   H27   S    
C63   H1    S    
C32   C34   A    
C4    C16   T    
C19   C23   S    
C40   H22   S    
S2    O30   S    
C46   H20   S    
C11   H7    S    
Cu5   O5    S    
C60   C70   A    
C43   C65   A    
C71   H33   S    
C23   O11   A    
C76   H38   S    
C78   H48   S    
C48   C50   S    
C9    C11   S    
C74   C80   S    
C56   O8    A    
C45   H19   S    
C59   C69   A    
C71   H5    S    
C79   H53   S    
C2    O2    A    
C58   C68   A    
Cu4   O21   S    
C12   C14   S    
C25   H13   S    
C5    C17   S    
C55   O7    A    
C52   O20   A    
Cu5   O4    S    
C25   C27   A    
C78   H47   S    
Cu1   O10   S    
C61   H29   S    
Cu2   O13   S    
C3    C15   T    
C1    C35   S    
C54   O24   A    
S2    O28   D    
C2    C36   S    
C6    C14   S    
C7    C9    S    
C21   C25   A    
C27   H15   S    
C3    C51   S    
C31   C41   A    
C75   H39   S    
C8    C72   S    
C23   O13   A    
C48   C70   A    
Cu5   O8    S    
Cu6   O24   S    
C2    O10   A    
C39   H21   S    
C7    S1    S    
C51   O19   A    
S1    O27   S    
C9    C75   S    
C72   H34   S    
C26   C28   A    
C64   H2    S    
C1    O1    A    
C24   O14   A    
O27   H49   S    
C7    H31   S    
C55   O5    A    
C9    C15   S    
C76   H40   S    
C28   C30   A    
C37   C39   A    
C75   H37   S    
C8    S2    S    
C77   H43   S    
C38   C40   A    
C11   C13   S    
C33   C35   A    
Cu5   O23   S    
C21   H11   S    
C11   H3    S    
C36   C38   A    
C17   C19   T    
C34   C36   A    
C5    C73   S    
C53   C67   S    
Cu2   O9    S    
Cu6   O3    S    
C60   H28   S    
C13   C77   S    
Cu3   Cu4   S    
C44   C48   A    
C54   C68   S    
C39   C41   A    
C8    C10   S    
Cu4   O17   S    
C22   C26   A    
C46   C64   A    
C12   H4    S    
C32   C42   A    
C10   C16   S    
Cu1   O11   S    
C57   C69   A    
Cu6   O7    S    
Cu2   O12   S    
C56   O6    A    
C50   O18   A    
C78   H46   S    
Cu2   O2    S    
