data_mof_unit_45980.cif
_audit_creation_date              2013-03-05T16:37:32-0500
_audit_creation_method            fapswitch 2.2
_symmetry_space_group_name_H-M    P1
_symmetry_Int_Tables_number       1
_space_group_crystal_system       triclinic
_cell_length_a                    13.582923
_cell_length_b                    18.493471
_cell_length_c                    18.582425
_cell_angle_alpha                 89.415885
_cell_angle_beta                  90.987449
_cell_angle_gamma                 81.899199
_cell_volume                      4620.18059684

loop_
_atom_site_label
_atom_site_type_symbol
_atom_site_description
_atom_site_fract_x
_atom_site_fract_y
_atom_site_fract_z
_atom_type_partial_charge
O1    O     O_R   0.500000 0.439160 0.601820 -0.580040
O2    O     O_R   0.500000 0.560840 0.398180 -0.641172
O3    O     O_R   0.500040 0.560790 0.601820 -0.612338
O4    O     O_R   0.499960 0.439210 0.398180 -0.570301
C1    C     C_R   0.501806 0.499489 0.635558 0.853066
C2    C     C_R   0.501281 0.500199 0.364454 0.837409
O5    O     O_R   0.640320 0.430440 0.499980 -0.661289
O6    O     O_R   0.359680 0.569560 0.500020 -0.633272
O7    O     O_R   0.640370 0.552060 0.499990 -0.524056
O8    O     O_R   0.359630 0.447940 0.500010 -0.569480
C3    C     C_R   0.686162 0.486379 0.500651 0.888685
C4    C     C_R   0.313826 0.513640 0.499980 0.879607
Zn1   Zn    Zn3+2 0.499970 0.418790 0.500000 0.987551
Zn2   Zn    Zn3+2 0.500030 0.581210 0.500000 0.969432
C5    C     C_1   0.210033 0.524840 0.505648 -0.117200
C6    C     C_1   0.789943 0.475344 0.508988 -0.137323
C7    C     C_2   0.018499 0.533660 0.520051 -0.012677
C8    C     C_2   0.981063 0.469819 0.527858 -0.010692
C9    C     C_1   0.877437 0.469899 0.517926 -0.057893
C10   C     C_1   0.122446 0.531417 0.512225 -0.032449
C11   C     C_R   0.620741 0.521906 0.273751 -0.317705
C12   C     C_R   0.622499 0.452389 0.728287 -0.280165
H1    H     H_    0.660988 0.547242 0.315160 0.165011
H2    H     H_    0.663543 0.420657 0.687133 0.175589
C13   C     C_R   0.662121 0.511322 0.205799 0.547962
C14   C     C_R   0.664000 0.452348 0.797319 0.553971
C15   C     C_R   0.608039 0.481037 0.151701 -0.008429
C16   C     C_R   0.611010 0.493273 0.850681 -0.002702
C17   C     C_R   0.517487 0.456421 0.167496 -0.255133
C18   C     C_R   0.520669 0.537464 0.833416 -0.264714
H3    H     H_    0.476177 0.433675 0.124931 0.195772
H4    H     H_    0.480336 0.568544 0.875440 0.197815
C19   C     C_R   0.478249 0.463342 0.236628 -0.007252
C20   C     C_R   0.480992 0.540361 0.763261 -0.014167
C21   C     C_R   0.530333 0.497477 0.289603 -0.180247
C22   C     C_R   0.532029 0.495869 0.710946 -0.178218
C23   C     C_R   0.642893 0.416243 0.037493 -0.399640
C24   C     C_R   0.650067 0.548874 0.965536 -0.395043
H5    H     H_    0.638271 0.364963 0.065111 0.182296
H6    H     H_    0.650771 0.600484 0.937596 0.181730
C25   C     C_R   0.642006 0.418378 0.962438 0.552578
C26   C     C_R   0.644661 0.547709 0.040297 0.570159
C27   C     C_R   0.642311 0.485658 0.926426 -0.024355
C28   C     C_R   0.638671 0.481050 0.076452 -0.030624
C29   C     C_R   0.433385 0.281576 0.456853 0.624123
C30   C     C_R   0.566861 0.719522 0.542080 0.593888
C31   C     C_R   0.432793 0.205184 0.456014 -0.407803
C32   C     C_R   0.568187 0.795829 0.540435 -0.349242
H7    H     H_    0.380026 0.182535 0.421763 0.147444
H8    H     H_    0.624217 0.819312 0.570916 0.165635
C33   C     C_R   0.500445 0.157992 0.498429 0.206500
C34   C     C_R   0.499173 0.841977 0.498352 0.113203
C35   C     C_R   0.570832 0.188469 0.541440 -0.075465
C36   C     C_R   0.429713 0.810709 0.455748 -0.096938
C37   C     C_R   0.564956 0.265935 0.544174 -0.051362
C38   C     C_R   0.429795 0.733590 0.459134 -0.053088
N1    N     N_R   0.499990 0.310560 0.500020 -0.145976
N2    N     N_R   0.500010 0.689440 0.499980 -0.172155
C39   C     C_R   0.459836 0.041845 0.557030 0.323444
C40   C     C_R   0.539391 0.958299 0.440316 0.292717
C41   C     C_R   0.459728 0.965102 0.556747 0.308689
C42   C     C_R   0.533577 0.035331 0.438258 0.354050
C43   C     C_R   0.501130 0.922948 0.499057 -0.214324
C44   C     C_R   0.496029 0.077287 0.497306 -0.107468
C45   C     C_2   0.041551 0.397009 0.540900 0.333053
H9    H     H_    0.008368 0.347871 0.530939 0.071754
O9    O     O_2   0.126417 0.390665 0.565271 -0.575193
C46   C     C_2   0.958034 0.607289 0.512441 0.383400
H10   H     H_    0.992912 0.652827 0.492765 0.082580
O10   O     O_2   0.871097 0.618901 0.530025 -0.543873
C47   C     C_2   0.654040 0.141171 0.580286 0.350813
H11   H     H_    0.698052 0.163609 0.621371 0.107942
O11   O     O_2   0.677091 0.076896 0.565631 -0.593167
C48   C     C_2   0.359684 0.859048 0.407332 0.507752
H12   H     H_    0.339383 0.916341 0.419733 0.015001
O12   O     O_2   0.327044 0.836441 0.351569 -0.556990
C49   C     C_2   0.627753 0.298897 0.596243 0.413376
H13   H     H_    0.685644 0.328910 0.578303 0.075373
O13   O     O_2   0.616557 0.290498 0.660685 -0.610059
C50   C     C_2   0.349782 0.700993 0.422503 0.571965
H14   H     H_    0.366674 0.657349 0.384645 0.072637
O14   O     O_2   0.262774 0.723145 0.434758 -0.584934
O15   O     O_3   0.414790 0.083461 0.612138 -0.643089
C51   C     C_3   0.474183 0.074107 0.675832 0.180503
H15   H     H_    0.516210 0.121199 0.680665 0.151167
H16   H     H_    0.528967 0.023024 0.677624 0.165219
C52   C     C_3   0.406457 0.073987 0.740628 -0.342843
H17   H     H_    0.353715 0.125723 0.740854 0.228625
H18   H     H_    0.362695 0.027729 0.736415 0.234650
C53   C     C_3   0.466384 0.066596 0.811204 -0.960759
H19   H     H_    0.516780 0.013780 0.813289 0.272571
H20   H     H_    0.414963 0.068319 0.857155 0.271576
H21   H     H_    0.511236 0.112111 0.816556 0.270253
O16   O     O_3   0.578322 0.917569 0.382885 -0.633506
C54   C     C_3   0.680992 0.895768 0.396003 0.140633
H22   H     H_    0.696953 0.874863 0.452171 0.143332
H23   H     H_    0.722115 0.942866 0.386452 0.176998
C55   C     C_3   0.717967 0.834473 0.344438 -0.342119
H24   H     H_    0.674309 0.788501 0.352025 0.240464
H25   H     H_    0.706538 0.854887 0.288017 0.232311
C56   C     C_3   0.828020 0.806472 0.357596 -0.913941
H26   H     H_    0.873357 0.851343 0.349739 0.267939
H27   H     H_    0.852497 0.762383 0.319012 0.273036
H28   H     H_    0.840591 0.783953 0.413179 0.275279
O17   O     O_3   0.424407 0.930473 0.615230 -0.604029
C57   C     C_3   0.320986 0.930570 0.605937 0.119371
H29   H     H_    0.301083 0.912456 0.551225 0.112660
H30   H     H_    0.280913 0.986480 0.614457 0.136123
C58   C     C_3   0.285171 0.878992 0.661440 -0.353391
H31   H     H_    0.304688 0.895900 0.716507 0.221703
H32   H     H_    0.202882 0.882943 0.656962 0.180433
C59   C     C_3   0.331011 0.799691 0.650084 -0.751982
H33   H     H_    0.312007 0.781669 0.595368 0.251340
H34   H     H_    0.301515 0.763910 0.690326 0.256089
H35   H     H_    0.413131 0.793598 0.656956 0.261543
O18   O     O_3   0.571835 0.069770 0.380830 -0.612872
C60   C     C_3   0.503460 0.074755 0.322138 0.110895
H36   H     H_    0.424398 0.084579 0.339482 0.106835
H37   H     H_    0.515160 0.023330 0.290989 0.190599
C61   C     C_3   0.521729 0.138302 0.273255 -0.338387
H38   H     H_    0.514642 0.189430 0.304871 0.242368
H39   H     H_    0.598488 0.127745 0.252258 0.231054
C62   C     C_3   0.447581 0.148682 0.210114 -0.930026
H40   H     H_    0.453715 0.098457 0.177264 0.263570
H41   H     H_    0.463553 0.194785 0.175511 0.277406
H42   H     H_    0.370476 0.161466 0.229973 0.264917
O19   O     O_3   0.752324 0.534328 0.190693 -0.606912
C63   C     C_3   0.829480 0.487592 0.226533 0.055658
H43   H     H_    0.827638 0.429615 0.211193 0.137956
H44   H     H_    0.822969 0.492651 0.285992 0.134892
C64   C     C_3   0.929616 0.509056 0.205024 -0.288218
H45   H     H_    0.938516 0.502747 0.145964 0.233860
H46   H     H_    0.931653 0.567281 0.218439 0.233558
C65   C     C_3   0.015843 0.461786 0.244113 -0.951612
H47   H     H_    0.009679 0.468709 0.303264 0.257729
H48   H     H_    0.087417 0.478403 0.227040 0.283095
H49   H     H_    0.016014 0.403315 0.230937 0.272604
O20   O     O_3   0.753132 0.408822 0.813611 -0.598676
C66   C     C_3   0.831734 0.442826 0.786218 0.053826
H50   H     H_    0.837596 0.493916 0.816170 0.143942
H51   H     H_    0.820765 0.455971 0.727657 0.126387
C67   C     C_3   0.929227 0.391157 0.796196 -0.308569
H52   H     H_    0.943292 0.378967 0.854474 0.234440
H53   H     H_    0.923237 0.339064 0.768211 0.234323
C68   C     C_3   0.016553 0.424549 0.765731 -0.906740
H54   H     H_    0.004819 0.435880 0.707141 0.278983
H55   H     H_    0.086188 0.385777 0.773791 0.272997
H56   H     H_    0.024932 0.476218 0.793658 0.265201
C69   C     C_2   0.381910 0.437536 0.251973 0.416221
H57   H     H_    0.347303 0.447358 0.303801 0.072002
O21   O     O_2   0.339510 0.405163 0.206606 -0.595078
C70   C     C_2   0.385943 0.588032 0.745925 0.385701
H58   H     H_    0.351156 0.586998 0.693039 0.067807
O22   O     O_2   0.345007 0.629239 0.790694 -0.580839
O23   O     O_3   0.635837 0.355377 0.924155 -0.599796
C71   C     C_3   0.535433 0.343342 0.919667 0.042762
H59   H     H_    0.483468 0.395018 0.909599 0.136386
H60   H     H_    0.514927 0.317672 0.970676 0.147599
C72   C     C_3   0.523438 0.291968 0.857202 -0.263538
H61   H     H_    0.546846 0.316661 0.806614 0.271951
H62   H     H_    0.572015 0.239076 0.866995 0.226663
C73   C     C_3   0.415862 0.278072 0.848081 -0.952037
H63   H     H_    0.391733 0.251057 0.897098 0.265154
H64   H     H_    0.409582 0.241917 0.801400 0.277805
H65   H     H_    0.366039 0.330307 0.837949 0.272423
O24   O     O_3   0.639692 0.612713 0.077198 -0.605099
C74   C     C_3   0.539036 0.643499 0.085902 0.082536
H66   H     H_    0.531578 0.664188 0.141759 0.181111
H67   H     H_    0.484714 0.603726 0.079781 0.116757
C75   C     C_3   0.511438 0.707659 0.033283 -0.367506
H68   H     H_    0.565400 0.747190 0.039674 0.241871
H69   H     H_    0.514816 0.687511 0.977168 0.218022
C76   C     C_3   0.406751 0.746664 0.046403 -0.898417
H70   H     H_    0.351387 0.708352 0.039161 0.269447
H71   H     H_    0.388882 0.792670 0.007335 0.268656
H72   H     H_    0.401664 0.768824 0.101765 0.269619
O25   O     O_3   0.371951 0.327605 0.410540 -0.633138
C77   C     C_3   0.270177 0.321398 0.420688 0.090180
H73   H     H_    0.231012 0.376468 0.433353 0.194314
H74   H     H_    0.255763 0.284828 0.466384 0.150436
C78   C     C_3   0.224550 0.296539 0.350957 -0.362303
H75   H     H_    0.233027 0.336293 0.307067 0.265058
H76   H     H_    0.263952 0.242371 0.335434 0.219827
C79   C     C_3   0.114211 0.291271 0.359442 -0.959425
H77   H     H_    0.103912 0.250276 0.401753 0.267647
H78   H     H_    0.082833 0.274184 0.307791 0.272038
H79   H     H_    0.073111 0.345131 0.374305 0.260859
O26   O     O_3   0.637551 0.674023 0.582000 -0.578862
C80   C     C_3   0.626235 0.688938 0.656118 0.088122
H80   H     H_    0.551731 0.678160 0.674041 0.142297
H81   H     H_    0.634969 0.746460 0.668321 0.129078
C81   C     C_3   0.706491 0.639566 0.699011 -0.280345
H82   H     H_    0.696681 0.581631 0.691074 0.213887
H83   H     H_    0.781040 0.647278 0.679056 0.251776
C82   C     C_3   0.701752 0.657129 0.779079 -0.991028
H84   H     H_    0.718513 0.713437 0.788139 0.274234
H85   H     H_    0.757370 0.618366 0.809549 0.259218
H86   H     H_    0.626717 0.652691 0.799835 0.277346

loop_
_geom_bond_atom_site_label_1
_geom_bond_atom_site_label_2
_geom_bond_distance
_ccdc_geom_bond_type
C24   H6    1.083165 S    
C52   H17   1.111601 S    
C56   H26   1.110757 S    
C15   C17   1.404895 A    
C35   C37   1.425039 A    
C54   H22   1.116332 S    
C51   C52   1.527990 S    
C64   C65   1.527318 S    
C63   H43   1.115799 S    
C65   H49   1.110829 S    
C59   H34   1.110188 S    
C68   H54   1.111150 S    
C54   C55   1.527622 S    
C62   H40   1.110774 S    
C31   H7    1.080996 S    
C49   H13   1.079715 S    
C79   H77   1.110865 S    
C8    C45   1.490481 S    
O5    C3    1.280466 A    
C29   N1    1.367346 A    
C39   C44   1.413424 A    
C48   O12   1.220773 D    
C40   C43   1.410565 A    
O1    C1    1.288358 A    
C71   H59   1.117223 S    
C39   O15   1.385748 S    
C24   C26   1.392558 A    
C69   O21   1.221285 D    
C37   C49   1.471543 S    
C66   C67   1.527198 S    
C77   H74   1.117190 S    
C76   H72   1.110922 S    
Zn1   N1    2.001506 S    
C57   H29   1.114424 S    
C55   H24   1.112150 S    
C1    C22   1.451215 S    
C17   C19   1.399454 A    
C7    C10   1.416705 S    
C2    C21   1.451781 S    
C40   C42   1.415699 A    
C8    C9    1.416224 S    
C29   C31   1.414150 A    
O4    Zn1   1.925596 S    
C80   H81   1.112060 S    
C42   C44   1.411126 A    
C58   H32   1.111409 S    
C36   C48   1.492592 S    
C52   H18   1.111024 S    
C15   C28   1.465778 S    
O15   C51   1.416061 S    
C34   C36   1.410183 A    
C46   H10   1.086058 S    
C45   O9    1.220847 D    
C72   H62   1.111588 S    
C41   O17   1.382639 S    
C61   C62   1.525798 S    
C14   O20   1.383147 S    
C82   H86   1.109377 S    
C32   H8    1.082561 S    
C56   H27   1.110459 S    
C76   H70   1.110956 S    
C30   N2    1.368505 A    
C25   C27   1.407317 A    
C67   C68   1.526830 S    
O2    C2    1.288384 A    
C26   C28   1.411007 A    
C59   H33   1.110693 S    
C68   H55   1.110380 S    
C61   H39   1.111572 S    
C77   H73   1.110001 S    
C74   C75   1.530621 S    
C73   H64   1.110023 S    
C76   H71   1.110383 S    
C5    C10   1.187275 T    
Zn2   N2    2.001508 S    
C36   C38   1.426796 A    
C39   C41   1.419511 A    
C48   H12   1.084714 S    
C18   C20   1.399659 A    
C81   C82   1.526643 S    
C51   H15   1.110098 S    
C50   O14   1.221115 D    
C58   C59   1.528556 S    
C74   H66   1.111229 S    
C47   O11   1.220549 D    
C20   C70   1.485569 S    
C62   H42   1.110961 S    
C31   C33   1.400814 A    
C64   H46   1.111755 S    
C78   H75   1.110753 S    
C34   C43   1.501604 S    
C24   C27   1.398365 A    
C74   H67   1.118105 S    
O26   C80   1.414123 S    
C33   C35   1.416056 A    
C81   H83   1.111648 S    
C80   C81   1.527081 S    
C71   H60   1.112921 S    
O7    Zn2   1.906491 S    
C42   O18   1.383134 S    
C72   C73   1.525789 S    
C73   H65   1.110973 S    
C3    C6    1.401255 S    
C53   H20   1.110306 S    
C72   H61   1.111669 S    
C4    C5    1.401723 S    
C32   C34   1.397944 A    
O6    C4    1.280200 A    
C41   C43   1.409776 A    
C7    C8    1.357110 D    
C49   O13   1.220805 D    
C37   N1    1.374395 A    
O7    C3    1.284124 A    
O3    Zn2   1.925594 S    
O8    C4    1.284638 A    
O4    C2    1.287215 A    
C70   O22   1.221245 D    
C64   H45   1.111710 S    
C45   H9    1.085907 S    
C56   H28   1.111092 S    
C55   H25   1.111594 S    
C11   H1    1.084236 S    
C12   C14   1.392198 A    
O24   C74   1.417636 S    
C12   H2    1.082433 S    
C60   C61   1.528396 S    
O1    Zn1   1.932966 S    
O19   C63   1.413441 S    
C35   C47   1.497982 S    
C63   C64   1.528056 S    
C68   H56   1.110876 S    
C79   H78   1.110293 S    
C61   H38   1.111800 S    
C53   H21   1.110720 S    
C73   H63   1.110785 S    
C78   C79   1.526271 S    
C80   H80   1.114397 S    
C11   C13   1.395396 A    
C7    C46   1.491816 S    
O6    Zn2   1.948439 S    
C71   C72   1.528442 S    
C33   C44   1.502487 S    
C51   H16   1.116992 S    
C50   H14   1.078866 S    
O3    C1    1.286912 A    
O8    Zn1   1.906493 S    
C63   H44   1.113790 S    
C65   H48   1.110444 S    
C66   H50   1.113208 S    
C54   H23   1.113335 S    
C65   H47   1.111122 S    
C11   C21   1.401768 A    
C29   O25   1.386245 S    
C13   C15   1.402086 A    
C55   C56   1.526165 S    
C12   C22   1.401098 A    
O17   C57   1.412115 S    
C16   C27   1.462938 S    
C14   C16   1.400173 A    
C38   C50   1.474933 S    
C79   H79   1.110988 S    
C81   H82   1.109164 S    
C23   C28   1.401271 A    
C60   H37   1.112016 S    
C13   O19   1.384682 S    
C47   H11   1.083096 S    
C17   H3    1.084169 S    
C19   C69   1.485775 S    
C69   H57   1.084716 S    
C18   H4    1.084193 S    
C66   H51   1.115491 S    
C53   H19   1.110841 S    
C57   H30   1.112703 S    
C6    C9    1.187097 T    
C16   C18   1.405358 A    
C19   C21   1.408028 A    
C38   N2    1.376699 A    
O18   C60   1.414017 S    
C20   C22   1.407627 A    
C23   C25   1.394653 A    
O16   C54   1.412295 S    
O2    Zn2   1.932967 S    
C25   O23   1.383079 S    
C77   C78   1.529450 S    
C62   H41   1.110502 S    
O20   C66   1.412739 S    
C82   H84   1.110669 S    
C30   C32   1.413866 A    
O5    Zn1   1.948441 S    
C70   H58   1.084594 S    
C23   H5    1.083799 S    
O25   C77   1.418800 S    
C75   H68   1.111566 S    
C52   C53   1.526243 S    
C58   H31   1.111605 S    
O23   C71   1.413654 S    
C46   O10   1.220881 D    
C67   H52   1.111684 S    
C75   H69   1.110425 S    
C30   O26   1.383919 S    
C60   H36   1.117252 S    
C57   C58   1.529146 S    
C59   H35   1.110204 S    
C67   H53   1.111754 S    
C26   O24   1.383998 S    
C78   H76   1.110528 S    
C82   H85   1.108849 S    
C75   C76   1.525845 S    
C40   O16   1.381857 S    
