data_mof_unit_38858.cif
_audit_creation_date              2012-12-10T18:07:29-0500
_audit_creation_method            fapswitch 2.2
_symmetry_space_group_name_H-M    P1
_symmetry_Int_Tables_number       1
_space_group_crystal_system       triclinic
_cell_length_a                    11.52443
_cell_length_b                    12.736799
_cell_length_c                    13.262415
_cell_angle_alpha                 82.917406
_cell_angle_beta                  93.723918
_cell_angle_gamma                 101.976589
_cell_volume                      1888.25440573

loop_
_atom_site_label
_atom_site_type_symbol
_atom_type_description
_atom_site_fract_x
_atom_site_fract_y
_atom_site_fract_z
_atom_type_partial_charge
Br1   Br    Br    0.789782 0.749617 0.639659 -0.398234
Br2   Br    Br    0.527353 0.051912 0.739340 -0.330616
Br3   Br    Br    0.776780 0.950413 0.770244 -0.331325
Br4   Br    Br    0.563205 0.364723 0.181425 -0.367020
Br5   Br    Br    0.220994 0.173467 0.973725 -0.348167
Br6   Br    Br    0.264922 0.296212 0.304042 -0.288474
C1    C     C_R   0.488125 0.439774 0.690715 0.982282
C2    C     C_R   0.661240 0.638970 0.907036 -0.262275
C3    C     C_R   0.632957 0.550129 0.850161 0.533483
C4    C     C_R   0.717617 0.500940 0.500640 0.899235
C5    C     C_R   0.531596 0.508618 0.137313 0.301296
C6    C     C_R   0.590616 0.698983 0.162199 0.394680
C7    C     C_R   0.471918 0.403043 0.798905 -0.167115
C8    C     C_R   0.309576 0.086097 0.359980 0.341373
C9    C     C_R   0.652258 0.812725 0.620595 0.302017
C10   C     C_R   0.654425 0.904610 0.669651 0.125421
C11   C     C_R   0.569927 0.967300 0.641174 0.331420
C12   C     C_R   0.546567 0.590595 0.201969 -0.304870
C13   C     C_R   0.502813 0.952030 0.549935 -0.136814
C14   C     C_R   0.487090 0.848781 0.513991 -0.008342
C15   C     C_R   0.451870 0.035133 0.492488 -0.055403
C16   C     C_R   0.519600 0.559189 0.309567 0.970002
C17   C     C_R   0.357443 0.005491 0.421478 -0.263226
C18   C     C_R   0.317921 0.895854 0.409849 0.304223
C19   C     C_R   0.395558 0.825193 0.437622 0.514083
C20   C     C_R   0.496571 0.146866 0.498183 0.534072
C21   C     C_R   0.347031 0.192922 0.378264 0.383067
C22   C     C_R   0.282380 0.498973 0.499599 0.904276
C23   C     C_R   0.381599 0.312694 0.827856 0.357013
C24   C     C_1   0.838806 0.502708 0.500895 -0.068985
C25   C     C_1   0.940907 0.501491 0.500466 0.061407
C26   C     C_1   0.059149 0.498693 0.499661 0.056830
C27   C     C_1   0.161215 0.497323 0.499269 -0.105029
C28   C     C_R   0.627281 0.720760 0.060318 0.372508
C29   C     C_R   0.336293 0.300293 0.925922 0.090324
C30   C     C_R   0.377186 0.381254 0.990635 0.416905
C31   C     C_R   0.479362 0.461704 0.966125 -0.016905
C32   C     C_R   0.528533 0.471175 0.870904 -0.113703
C33   C     C_R   0.531188 0.537062 0.033470 0.010958
C34   C     C_R   0.603456 0.635700 0.997469 -0.134105
H1    H     H_    0.734417 0.704467 0.885177 0.203334
H2    H     H_    0.788144 0.579230 0.793196 0.363768
H3    H     H_    0.630236 0.851106 0.186028 0.397058
H4    H     H_    0.151547 0.899069 0.384216 0.392514
H5    H     H_    0.258349 0.010420 0.242411 0.389055
H6    H     H_    0.596752 0.246318 0.579046 0.389697
H7    H     H_    0.331767 0.743478 0.323743 0.366972
H8    H     H_    0.670923 0.834671 0.950838 0.377608
H9    H     H_    0.263135 0.192389 0.780969 0.386908
H10   H     H_    0.234224 0.346568 0.069168 0.392200
N1    N     N_R   0.440320 0.222190 0.444690 -0.223822
N2    N     N_R   0.559060 0.776980 0.554780 -0.132502
O1    O     O_R   0.471500 0.366730 0.627160 -0.583012
O2    O     O_3   0.207776 0.855394 0.366842 -0.747008
O3    O     O_3   0.231842 0.064794 0.277949 -0.662199
O4    O     O_3   0.601764 0.179427 0.551004 -0.703059
O5    O     O_3   0.384583 0.737625 0.385404 -0.687457
O6    O     O_3   0.684341 0.823897 0.025416 -0.707649
O7    O     O_3   0.335735 0.242492 0.756718 -0.690372
O8    O     O_3   0.317016 0.386743 0.075961 -0.690660
O9    O     O_3   0.708412 0.535361 0.778948 -0.740734
O10   O     O_R   0.509620 0.544830 0.662520 -0.604843
O11   O     O_R   0.646490 0.410960 0.482310 -0.623994
O12   O     O_R   0.684610 0.589050 0.517670 -0.555630
O13   O     O_R   0.490380 0.455170 0.337480 -0.564104
O14   O     O_R   0.528500 0.633270 0.372840 -0.497644
O15   O     O_R   0.315390 0.410950 0.482330 -0.585205
O16   O     O_R   0.353510 0.589040 0.517690 -0.576061
O17   O     O_3   0.604341 0.779708 0.225413 -0.696254
Zn1   Zn    Zn3+2 0.474550 0.381080 0.476390 1.057633
Zn2   Zn    Zn3+2 0.525450 0.618920 0.523610 1.069196

loop_
_geom_bond_atom_site_label_1
_geom_bond_atom_site_label_2
_ccdc_geom_bond_type
C8    C17   A    
C22   C27   S    
C30   C31   A    
C17   C18   A    
C1    O10   A    
H8    O6    S    
C31   C32   A    
Br1   C9    S    
N1    Zn1   S    
C8    C21   A    
H7    O5    S    
Br6   C21   S    
C23   C29   A    
C25   C26   S    
H9    O7    S    
O11   Zn1   S    
C6    O17   S    
O15   Zn1   S    
H10   O8    S    
C26   C27   T    
C4    O11   A    
C6    C12   A    
C8    O3    S    
C9    N2    A    
C16   O13   A    
N2    Zn2   S    
C20   N1    A    
C2    H1    S    
Br2   C11   S    
C5    C33   A    
H2    O9    S    
C7    C32   A    
C10   C11   A    
C19   O5    S    
O14   Zn2   S    
O16   Zn2   S    
C28   C34   A    
O1    Zn1   S    
Br5   C29   S    
C7    C23   A    
C3    C32   A    
C22   O16   A    
C15   C20   A    
C21   N1    A    
O10   Zn2   S    
C30   O8    S    
C15   C17   A    
Br4   C5    S    
C24   C25   T    
C31   C33   A    
C3    O9    S    
C5    C12   A    
C14   C19   A    
C1    O1    A    
C23   O7    S    
C6    C28   A    
C9    C10   A    
H4    O2    S    
C1    C7    S    
C22   O15   A    
C18   C19   A    
H5    O3    S    
C14   N2    A    
O12   Zn2   S    
H6    O4    S    
C33   C34   A    
C28   O6    S    
C4    C24   S    
C16   O14   A    
C2    C34   A    
C11   C13   A    
O13   Zn1   S    
C12   C16   S    
C18   O2    S    
C4    O12   A    
Br3   C10   S    
C13   C14   A    
H3    O17   S    
C2    C3    A    
C13   C15   A    
C29   C30   A    
C20   O4    S    
