data_mof_unit_24233.cif
_audit_creation_date              2012-12-11T15:41:06-0500
_audit_creation_method            fapswitch 2.2
_symmetry_space_group_name_H-M    P1
_symmetry_Int_Tables_number       1
_space_group_crystal_system       triclinic
_cell_length_a                    19.242915
_cell_length_b                    11.053135
_cell_length_c                    18.754957
_cell_angle_alpha                 90.460889
_cell_angle_beta                  90.092575
_cell_angle_gamma                 90.531219
_cell_volume                      3988.77069712

loop_
_atom_site_label
_atom_site_type_symbol
_atom_type_description
_atom_site_fract_x
_atom_site_fract_y
_atom_site_fract_z
_atom_type_partial_charge
C1    C     C_R   0.724475 0.961693 0.855792 0.540704
C2    C     C_R   0.272979 0.955448 0.146518 0.543345
C3    C     C_R   0.224475 0.461693 0.855792 0.540704
C4    C     C_R   0.772979 0.455448 0.146518 0.543345
C5    C     C_R   0.692348 0.447323 0.041973 0.009479
C6    C     C_R   0.299573 0.463527 0.963007 0.001478
C7    C     C_R   0.192349 0.947326 0.041973 0.009479
C8    C     C_R   0.799573 0.963529 0.963007 0.001479
C9    C     C_R   0.681534 0.415515 0.971109 0.015544
C10   C     C_R   0.307780 0.451903 0.035939 0.011470
C11   C     C_R   0.181535 0.915517 0.971109 0.015544
C12   C     C_R   0.807779 0.951904 0.035939 0.011470
C13   C     C_R   0.773347 0.269890 0.978735 -0.152603
C14   C     C_R   0.184435 0.419874 0.049278 -0.159591
C15   C     C_R   0.273346 0.769889 0.978735 -0.152603
C16   C     C_R   0.684435 0.919873 0.049277 -0.159591
C17   C     C_R   0.783216 0.299870 0.050627 -0.153307
C18   C     C_R   0.176713 0.427893 0.975704 -0.150185
C19   C     C_R   0.283215 0.799869 0.050627 -0.153307
C20   C     C_R   0.676713 0.927892 0.975704 -0.150184
C21   C     C_3   0.674669 0.576697 0.028923 -0.257249
C22   C     C_3   0.367250 0.405284 0.947128 -0.293141
C23   C     C_3   0.174672 0.076700 0.028921 -0.257248
C24   C     C_3   0.867250 0.905287 0.947128 -0.293141
C25   C     C_3   0.662523 0.541714 0.951442 -0.262484
C26   C     C_3   0.376306 0.390971 0.026949 -0.257172
C27   C     C_3   0.162525 0.041717 0.951441 -0.262483
C28   C     C_3   0.876307 0.890974 0.026949 -0.257171
C29   C     C_R   0.726033 0.334481 0.936720 0.012583
C30   C     C_R   0.251156 0.421615 0.079455 0.014669
C31   C     C_R   0.226033 0.834482 0.936720 0.012583
C32   C     C_R   0.751155 0.921615 0.079455 0.014670
C33   C     C_R   0.517739 0.174649 0.414969 -0.000911
C34   C     C_R   0.545130 0.168145 0.561388 0.001997
C35   C     C_R   0.017739 0.674649 0.414969 -0.000909
C36   C     C_R   0.045130 0.668145 0.561388 0.001997
C37   C     C_R   0.521776 0.282639 0.455991 0.005529
C38   C     C_R   0.532121 0.275590 0.528098 -0.008134
C39   C     C_R   0.021776 0.782639 0.455991 0.005530
C40   C     C_R   0.032121 0.775590 0.528098 -0.008134
C41   C     C_R   0.535057 0.058528 0.523014 -0.008980
C42   C     C_R   0.534563 0.063294 0.447427 -0.013882
C43   C     C_R   0.035057 0.558528 0.523014 -0.008980
C44   C     C_R   0.034563 0.563294 0.447427 -0.013883
C45   C     C_R   0.530215 0.177984 0.850673 0.551965
C46   C     C_R   0.469922 0.177362 0.149353 0.541962
C47   C     C_R   0.030215 0.677984 0.850673 0.551965
C48   C     C_R   0.969921 0.677362 0.149353 0.541962
C49   C     C_3   0.466636 0.378782 0.467654 -0.078549
C50   C     C_3   0.472404 0.355722 0.546904 -0.099804
C51   C     C_3   0.966635 0.878782 0.467655 -0.078549
C52   C     C_3   0.972404 0.855722 0.546904 -0.099805
C53   C     C_R   0.756814 0.419222 0.424021 0.013611
C54   C     C_R   0.246183 0.416377 0.576582 0.014716
C55   C     C_R   0.256813 0.919222 0.424021 0.013611
C56   C     C_R   0.746183 0.916377 0.576581 0.014717
C57   C     C_R   0.814508 0.392730 0.465565 0.034052
C58   C     C_R   0.197443 0.347583 0.539931 0.019609
C59   C     C_R   0.314508 0.892730 0.465565 0.034052
C60   C     C_R   0.697443 0.847583 0.539931 0.019609
C61   C     C_R   0.809155 0.382697 0.538624 -0.009382
C62   C     C_R   0.200632 0.337990 0.467166 -0.000130
C63   C     C_R   0.309154 0.882696 0.538624 -0.009381
C64   C     C_R   0.700632 0.837991 0.467166 -0.000130
C65   C     C_R   0.687284 0.429278 0.531085 -0.161546
C66   C     C_R   0.298671 0.472324 0.463203 -0.182346
C67   C     C_R   0.187284 0.929278 0.531085 -0.161546
C68   C     C_R   0.798671 0.972325 0.463203 -0.182347
C69   C     C_R   0.692263 0.435023 0.456634 -0.176584
C70   C     C_R   0.298010 0.476917 0.537712 -0.171852
C71   C     C_R   0.192263 0.935023 0.456634 -0.176584
C72   C     C_R   0.798010 0.976918 0.537712 -0.171852
C73   C     C_3   0.853845 0.278438 0.457713 -0.276048
C74   C     C_3   0.183299 0.215573 0.548350 -0.286692
C75   C     C_3   0.353844 0.778438 0.457713 -0.276049
C76   C     C_3   0.683299 0.715573 0.548350 -0.286691
C77   C     C_3   0.844708 0.264077 0.536351 -0.275435
C78   C     C_3   0.185934 0.206200 0.468234 -0.251369
C79   C     C_3   0.344707 0.764076 0.536351 -0.275435
C80   C     C_3   0.685935 0.706200 0.468234 -0.251368
C81   C     C_R   0.746340 0.402850 0.572862 0.000650
C82   C     C_R   0.250275 0.399809 0.427117 0.000598
C83   C     C_R   0.246340 0.902849 0.572861 0.000650
C84   C     C_R   0.750274 0.899810 0.427117 0.000597
C85   C     C_R   0.724155 0.313810 0.859555 0.562983
C86   C     C_R   0.262122 0.363990 0.147698 0.542177
C87   C     C_R   0.224155 0.813810 0.859555 0.562983
C88   C     C_R   0.762122 0.863990 0.147698 0.542177
C89   C     C_R   0.728044 0.954651 0.648026 0.539453
C90   C     C_R   0.271996 0.954710 0.351671 0.536511
C91   C     C_R   0.228044 0.454651 0.648026 0.539453
C92   C     C_R   0.771996 0.454710 0.351671 0.536511
C93   C     C_R   0.560821 0.178891 0.637014 0.554316
C94   C     C_R   0.473896 0.177451 0.351944 0.546072
C95   C     C_R   0.060821 0.678891 0.637014 0.554317
C96   C     C_R   0.973896 0.677451 0.351944 0.546073
C97   C     C_R   0.738091 0.358617 0.645234 0.546886
C98   C     C_R   0.261176 0.359926 0.354352 0.537527
C99   C     C_R   0.238091 0.858617 0.645234 0.546886
C100  C     C_R   0.761176 0.859926 0.354352 0.537526
C101  C     C_2   0.498526 0.171326 0.921175 -0.117214
C102  C     C_2   0.501691 0.166385 0.078893 -0.123348
C103  C     C_2   0.998526 0.671326 0.921175 -0.117214
C104  C     C_2   0.001690 0.666385 0.078893 -0.123349
C105  C     C_2   0.485841 0.070845 0.036628 -0.170885
C106  C     C_2   0.500276 0.069835 0.959708 -0.165479
C107  C     C_2   0.985841 0.570845 0.036628 -0.170885
C108  C     C_2   0.000276 0.569835 0.959707 -0.165479
C109  C     C_R   0.746928 0.397229 0.081223 0.013844
C110  C     C_R   0.235221 0.441395 0.931308 0.018506
C111  C     C_R   0.246928 0.897229 0.081223 0.013844
C112  C     C_R   0.735221 0.941395 0.931308 0.018506
Cr1   Cr    Cr6+3 0.769260 0.163750 0.750730 0.995992
Cr2   Cr    Cr6+3 0.230740 0.163750 0.249270 0.992799
Cr3   Cr    Cr6+3 0.269260 0.663750 0.750730 0.995992
Cr4   Cr    Cr6+3 0.730740 0.663750 0.249270 0.992799
Cr5   Cr    Cr6+3 0.612640 0.009910 0.748780 0.995250
Cr6   Cr    Cr6+3 0.387360 0.009910 0.251220 0.983933
Cr7   Cr    Cr6+3 0.112640 0.509910 0.748780 0.995250
Cr8   Cr    Cr6+3 0.887360 0.509910 0.251220 0.983933
Cr9   Cr    Cr6+3 0.614190 0.322400 0.747710 0.995851
Cr10  Cr    Cr6+3 0.385810 0.322400 0.252290 0.984284
Cr11  Cr    Cr6+3 0.114190 0.822400 0.747710 0.995851
Cr12  Cr    Cr6+3 0.885810 0.822400 0.252290 0.984284
H1    H     H_    0.459618 0.991702 0.058095 0.158957
H2    H     H_    0.512091 0.983705 0.934599 0.144087
H3    H     H_    0.959618 0.491702 0.058095 0.158957
H4    H     H_    0.012091 0.483705 0.934599 0.144087
H5    H     H_    0.915399 0.855202 0.444872 0.186202
H6    H     H_    0.989804 0.935547 0.579061 0.136048
H7    H     H_    0.415400 0.355203 0.444872 0.186203
H8    H     H_    0.489804 0.435548 0.579061 0.136049
H9    H     H_    0.636987 0.441369 0.555626 0.137834
H10   H     H_    0.340498 0.515011 0.434431 0.122197
H11   H     H_    0.136987 0.941369 0.555626 0.137834
H12   H     H_    0.840499 0.015011 0.434431 0.122197
H13   H     H_    0.647119 0.456379 0.424935 0.125565
H14   H     H_    0.339998 0.522490 0.565542 0.119755
H15   H     H_    0.147119 0.956379 0.424935 0.125565
H16   H     H_    0.839998 0.022490 0.565542 0.119755
H17   H     H_    0.908576 0.292792 0.441320 0.131120
H18   H     H_    0.131377 0.193696 0.570301 0.127522
H19   H     H_    0.408576 0.792792 0.441320 0.131120
H20   H     H_    0.631377 0.693696 0.570301 0.127522
H21   H     H_    0.824940 0.211166 0.424797 0.140410
H22   H     H_    0.225996 0.168284 0.575889 0.142196
H23   H     H_    0.324940 0.711166 0.424797 0.140410
H24   H     H_    0.725995 0.668284 0.575889 0.142195
H25   H     H_    0.805149 0.196381 0.549781 0.172596
H26   H     H_    0.231532 0.156013 0.448378 0.168223
H27   H     H_    0.305149 0.696380 0.549781 0.172595
H28   H     H_    0.731533 0.656014 0.448379 0.168222
H29   H     H_    0.893202 0.260838 0.567623 0.140233
H30   H     H_    0.135122 0.182965 0.443172 0.134312
H31   H     H_    0.393202 0.760837 0.567622 0.140233
H32   H     H_    0.635122 0.682964 0.443172 0.134312
H33   H     H_    0.529144 0.244566 0.057797 0.110434
H34   H     H_    0.483053 0.255903 0.945813 0.109745
H35   H     H_    0.029144 0.744566 0.057797 0.110434
H36   H     H_    0.983053 0.755903 0.945813 0.109745
H37   H     H_    0.806869 0.203250 0.954632 0.144269
H38   H     H_    0.138975 0.400516 0.081396 0.135039
H39   H     H_    0.306867 0.703248 0.954633 0.144268
H40   H     H_    0.638975 0.900514 0.081396 0.135040
H41   H     H_    0.824051 0.254916 0.079767 0.138265
H42   H     H_    0.125041 0.419730 0.953544 0.138511
H43   H     H_    0.324050 0.754914 0.079768 0.138265
H44   H     H_    0.625041 0.919727 0.953543 0.138511
H45   H     H_    0.219844 0.139037 0.036534 0.156662
H46   H     H_    0.905176 0.969701 0.923311 0.141042
H47   H     H_    0.719840 0.639036 0.036535 0.156663
H48   H     H_    0.405176 0.469697 0.923311 0.141042
H49   H     H_    0.626397 0.604102 0.056967 0.139635
H50   H     H_    0.360905 0.317842 0.917967 0.137569
H51   H     H_    0.126400 0.104108 0.056966 0.139636
H52   H     H_    0.860906 0.817845 0.917967 0.137569
H53   H     H_    0.607182 0.548395 0.934964 0.139432
H54   H     H_    0.374796 0.294862 0.043922 0.153820
H55   H     H_    0.107185 0.048401 0.934963 0.139432
H56   H     H_    0.874797 0.794865 0.043922 0.153821
H57   H     H_    0.700469 0.584232 0.914392 0.152794
H58   H     H_    0.420044 0.445937 0.049107 0.144056
H59   H     H_    0.200473 0.084233 0.914391 0.152794
H60   H     H_    0.920044 0.945941 0.049108 0.144055
O1    O     O_R   0.784290 0.290360 0.830540 -0.515051
O2    O     O_R   0.215710 0.290360 0.169460 -0.529464
O3    O     O_R   0.284290 0.790360 0.830540 -0.515051
O4    O     O_R   0.715710 0.790360 0.169460 -0.529464
O5    O     O_R   0.554690 0.080440 0.673480 -0.506066
O6    O     O_R   0.445310 0.080440 0.326520 -0.505593
O7    O     O_R   0.054690 0.580440 0.673480 -0.506066
O8    O     O_R   0.945310 0.580440 0.326520 -0.505593
O9    O     O_R   0.543980 0.282110 0.666770 -0.537231
O10   O     O_R   0.456020 0.282110 0.333230 -0.537501
O11   O     O_R   0.043980 0.782110 0.666770 -0.537231
O12   O     O_R   0.956020 0.782110 0.333230 -0.537500
O13   O     O_R   0.679070 0.374030 0.674430 -0.517119
O14   O     O_R   0.320930 0.374030 0.325570 -0.518151
O15   O     O_R   0.179070 0.874030 0.674430 -0.517119
O16   O     O_R   0.820930 0.874030 0.325570 -0.518152
O17   O     O_3   0.665360 0.165350 0.749070 -0.287329
O18   O     O_3   0.334640 0.165350 0.250930 -0.243745
O19   O     O_3   0.165360 0.665350 0.749070 -0.287329
O20   O     O_3   0.834640 0.665350 0.250930 -0.243744
O21   O     O_R   0.762610 0.041070 0.825230 -0.513286
O22   O     O_R   0.237390 0.041070 0.174770 -0.498544
O23   O     O_R   0.262610 0.541070 0.825230 -0.513286
O24   O     O_R   0.737390 0.541070 0.174770 -0.498544
O25   O     O_R   0.667390 0.924160 0.829970 -0.525572
O26   O     O_R   0.332610 0.924160 0.170030 -0.527032
O27   O     O_R   0.167390 0.424160 0.829970 -0.525571
O28   O     O_R   0.832610 0.424160 0.170030 -0.527032
O29   O     O_R   0.553980 0.081420 0.821780 -0.496215
O30   O     O_R   0.446020 0.081420 0.178220 -0.503284
O31   O     O_R   0.053980 0.581420 0.821780 -0.496215
O32   O     O_R   0.946020 0.581420 0.178220 -0.503284
O33   O     O_R   0.543210 0.283170 0.826740 -0.521280
O34   O     O_R   0.456790 0.283170 0.173260 -0.523614
O35   O     O_R   0.043210 0.783170 0.826740 -0.521280
O36   O     O_R   0.956790 0.783170 0.173260 -0.523614
O37   O     O_R   0.678350 0.375000 0.822720 -0.496875
O38   O     O_R   0.321650 0.375000 0.177280 -0.499452
O39   O     O_R   0.178350 0.875000 0.822720 -0.496875
O40   O     O_R   0.821650 0.875000 0.177280 -0.499451
O41   O     O_R   0.785060 0.289300 0.670580 -0.516747
O42   O     O_R   0.214940 0.289300 0.329420 -0.523442
O43   O     O_R   0.285060 0.789300 0.670580 -0.516747
O44   O     O_R   0.714940 0.789300 0.329420 -0.523442
O45   O     O_R   0.763330 0.040090 0.676940 -0.512299
O46   O     O_R   0.236670 0.040090 0.323060 -0.513442
O47   O     O_R   0.263330 0.540090 0.676940 -0.512299
O48   O     O_R   0.736670 0.540090 0.323060 -0.513442
O49   O     O_R   0.668160 0.923110 0.670000 -0.533312
O50   O     O_R   0.331840 0.923110 0.330000 -0.521184
O51   O     O_R   0.168160 0.423110 0.670000 -0.533313
O52   O     O_R   0.831840 0.423110 0.330000 -0.521184
C113  C     C_3   0.491193 0.508748 0.449836 -0.304441
C114  C     C_3   0.494592 0.532882 0.370095 -0.407054
H61   H     H_    0.533987 0.474189 0.344441 0.173759
H62   H     H_    0.442933 0.517606 0.345035 0.177805
H63   H     H_    0.510009 0.628494 0.361518 0.103688
H64   H     H_    0.454535 0.573940 0.474335 0.131149
H65   H     H_    0.543013 0.527942 0.473683 0.132998
C115  C     C_3   0.411157 0.284751 0.583508 -0.261489
C116  C     C_3   0.370247 0.195151 0.536444 -0.445997
H66   H     H_    0.333195 0.242309 0.502100 0.161122
H67   H     H_    0.404212 0.141660 0.501429 0.160929
H68   H     H_    0.341225 0.131274 0.570800 0.131010
H69   H     H_    0.429892 0.232263 0.629349 0.181762
H70   H     H_    0.376037 0.348132 0.610283 0.140516
C117  C     C_3   0.991192 0.008748 0.449836 -0.304441
C118  C     C_3   0.994589 0.032884 0.370096 -0.407054
H71   H     H_    0.033985 0.974193 0.344440 0.173758
H72   H     H_    0.942930 0.017605 0.345037 0.177807
H73   H     H_    0.010004 0.128498 0.361519 0.103687
H74   H     H_    0.954534 0.073940 0.474337 0.131149
H75   H     H_    0.043012 0.027941 0.473682 0.132999
C119  C     C_3   0.911156 0.784750 0.583508 -0.261489
C120  C     C_3   0.870247 0.695149 0.536444 -0.445989
H76   H     H_    0.833197 0.742309 0.502098 0.161120
H77   H     H_    0.904212 0.641653 0.501431 0.160927
H78   H     H_    0.841222 0.631276 0.570801 0.131009
H79   H     H_    0.929891 0.732263 0.629349 0.181761
H80   H     H_    0.876036 0.848131 0.610282 0.140516
C121  C     C_3   0.487555 0.963663 0.555871 -0.259079
C122  C     C_3   0.523510 0.849207 0.579179 -0.430017
H81   H     H_    0.526160 0.783081 0.534449 0.111031
H82   H     H_    0.575468 0.871660 0.598422 0.219298
H83   H     H_    0.494881 0.806710 0.623923 0.127719
H84   H     H_    0.458093 0.001737 0.601605 0.167810
H85   H     H_    0.447320 0.938996 0.516495 0.149856
C123  C     C_3   0.570645 0.961327 0.407480 -0.265578
C124  C     C_3   0.536099 0.900541 0.343248 -0.400620
H86   H     H_    0.564392 0.816078 0.330363 0.123106
H87   H     H_    0.481437 0.875408 0.354870 0.172394
H88   H     H_    0.540885 0.958089 0.295276 0.172605
H89   H     H_    0.622221 0.995938 0.390345 0.150597
H90   H     H_    0.578352 0.887283 0.445350 0.163367
C125  C     C_3   0.987556 0.463663 0.555871 -0.259079
C126  C     C_3   0.023511 0.349207 0.579179 -0.430018
H91   H     H_    0.026161 0.283081 0.534449 0.111031
H92   H     H_    0.075469 0.371660 0.598423 0.219299
H93   H     H_    0.994881 0.306709 0.623922 0.127718
H94   H     H_    0.958094 0.501736 0.601605 0.167810
H95   H     H_    0.947320 0.438995 0.516495 0.149855
C127  C     C_3   0.070645 0.461328 0.407480 -0.265578
C128  C     C_3   0.036099 0.400541 0.343248 -0.400620
H96   H     H_    0.064392 0.316078 0.330363 0.123107
H97   H     H_    0.981437 0.375408 0.354870 0.172393
H98   H     H_    0.040885 0.458089 0.295276 0.172605
H99   H     H_    0.122221 0.495939 0.390345 0.150596
H100  H     H_    0.078353 0.387284 0.445350 0.163368

loop_
_geom_bond_atom_site_label_1
_geom_bond_atom_site_label_2
_ccdc_geom_bond_type
Cr12  O36   S    
C55   C59   A    
C41   C121  S    
C53   C69   A    
C18   H42   S    
C49   H7    S    
C127  H99   S    
Cr4   O44   S    
C15   H39   S    
C16   C20   A    
C92   O48   A    
C124  H88   S    
C115  C116  S    
C64   C84   A    
C123  C124  S    
C56   C72   A    
Cr3   O19   S    
C45   O29   A    
C128  H97   S    
Cr1   O17   S    
C116  H66   S    
C3    O27   A    
C82   C98   S    
C19   H43   S    
Cr10  O10   S    
Cr4   O20   S    
C4    O24   A    
C114  H62   S    
C2    C111  S    
C31   C87   S    
C51   C52   S    
C84   C100  S    
C49   C113  S    
Cr11  O39   S    
C60   C76   S    
C87   O39   A    
C121  H84   S    
C94   O6    A    
Cr3   O43   S    
C37   C38   A    
C66   C82   A    
C10   C30   A    
Cr1   O41   S    
C54   C70   A    
C11   C27   S    
C68   C72   A    
C52   C119  S    
Cr5   O29   S    
C28   H56   S    
C75   H19   S    
C113  H64   S    
Cr7   O51   S    
C101  H34   S    
C70   H14   S    
C21   H49   S    
C104  H35   S    
C24   H52   S    
Cr12  O16   S    
C123  H90   S    
C94   O10   A    
C119  H80   S    
C120  H77   S    
C17   C109  A    
C57   C61   A    
C19   C111  A    
C59   C63   A    
C105  H1    S    
C60   C64   A    
C3    O23   A    
C107  H3    S    
C117  H74   S    
C66   C70   A    
C26   H58   S    
C42   C123  S    
C27   H59   S    
Cr9   O17   S    
C43   C125  S    
C76   H24   S    
Cr10  O38   S    
C116  H68   S    
C91   O47   A    
C73   C77   S    
C75   C79   S    
C104  C107  D    
C55   C71   A    
C118  H71   S    
Cr8   O28   S    
C39   C51   S    
C4    C109  S    
C67   C83   A    
C33   C94   S    
C51   H5    S    
C35   C96   S    
C16   H40   S    
C33   C42   A    
Cr11  O15   S    
C55   C90   S    
C1    C112  S    
C3    C110  S    
C32   C88   S    
C91   O51   A    
C122  H82   S    
C57   C73   S    
C77   H29   S    
C66   H10   S    
Cr12  O40   S    
C61   C77   S    
C107  C108  S    
C88   O40   A    
C2    O22   A    
C24   H46   S    
C29   C85   S    
C113  C114  S    
Cr4   O48   S    
Cr6   O18   S    
C85   O1    A    
C115  H69   S    
C1    O25   A    
C97   O13   A    
C126  H91   S    
C39   C40   A    
C87   O3    A    
C79   H31   S    
C108  H4    S    
C73   H21   S    
Cr1   O21   S    
C5    C9    A    
Cr3   O3    S    
C23   H45   S    
Cr5   O49   S    
C8    C12   A    
Cr1   O1    S    
Cr12  O12   S    
C5    C21   S    
Cr10  O14   S    
Cr4   O24   S    
Cr5   O5    S    
C118  H73   S    
C100  O16   A    
C56   C89   S    
C74   C78   S    
Cr8   O20   S    
C58   C74   S    
C101  C106  D    
Cr11  O35   S    
Cr9   O33   S    
C62   C78   S    
C76   C80   S    
C122  H83   S    
Cr1   O45   S    
C93   O5    A    
C16   C32   A    
Cr7   O27   S    
C127  H100  S    
C96   O8    A    
Cr5   O25   S    
C119  C120  S    
C28   H60   S    
C61   C81   A    
C36   C95   S    
C7    C23   S    
C124  H87   S    
C72   H16   S    
C49   C50   S    
C90   O46   A    
C85   O37   A    
C99   O43   A    
C58   C62   A    
C97   O41   A    
Cr11  O19   S    
C46   O34   A    
C41   C42   A    
C126  H93   S    
C9    C25   S    
C117  C118  S    
C73   H17   S    
C15   C19   A    
C114  H63   S    
C12   C28   S    
C125  H95   S    
C13   C29   A    
C27   H55   S    
C8    C112  A    
C25   H53   S    
C103  H36   S    
C23   H51   S    
C6    C22   S    
C102  C105  D    
C100  O44   A    
C21   C25   S    
C20   C112  A    
C47   O31   A    
C125  C126  S    
Cr2   O18   S    
C62   C82   A    
C83   C99   S    
C64   C80   S    
Cr11  O11   S    
C34   C41   A    
Cr9   O9    S    
C47   C103  S    
C113  H65   S    
C68   C84   A    
C24   C28   S    
Cr7   O19   S    
C77   H25   S    
C53   C57   A    
C78   H30   S    
C75   H23   S    
C21   H47   S    
C33   C37   A    
C56   C60   A    
C63   C83   A    
C14   H38   S    
C35   C39   A    
Cr2   O42   S    
C37   C49   S    
C65   C81   A    
C128  H96   S    
C128  H98   S    
Cr6   O30   S    
C125  H94   S    
C68   H12   S    
C15   C31   A    
C50   H8    S    
C86   O2    A    
C116  H67   S    
C118  H72   S    
C48   O36   A    
C114  H61   S    
C95   O11   A    
C74   H22   S    
C93   O9    A    
C18   C110  A    
Cr7   O7    S    
C6    C10   A    
C13   C17   A    
C44   C127  S    
C105  C106  S    
C106  H2    S    
Cr2   O2    S    
Cr10  O18   S    
C121  H85   S    
C54   C91   S    
C17   H41   S    
C117  H75   S    
Cr6   O6    S    
C5    C109  A    
C65   C69   A    
C7    C111  A    
C67   C71   A    
C92   O52   A    
C96   O12   A    
C22   C26   S    
C99   O15   A    
Cr9   O37   S    
C36   C43   A    
C48   O32   A    
Cr7   O31   S    
C123  H89   S    
Cr3   O23   S    
C45   O33   A    
C14   C18   A    
C67   H11   S    
C119  H79   S    
C34   C93   S    
C43   C44   A    
C120  H78   S    
C63   C79   S    
C7    C11   A    
Cr4   O4    S    
C115  H70   S    
Cr12  O20   S    
C126  H92   S    
C50   C115  S    
Cr8   O8    S    
C127  C128  S    
C89   O49   A    
C48   C104  S    
C90   O50   A    
C8    C24   S    
C46   O30   A    
C103  C108  D    
C23   C27   S    
C30   C86   S    
C51   C117  S    
C121  C122  S    
Cr3   O47   S    
C95   O7    A    
C10   C26   S    
C74   H18   S    
C11   C31   A    
C46   C102  S    
C12   C32   A    
C6    C110  A    
C14   C30   A    
Cr5   O17   S    
C102  H33   S    
C22   H50   S    
C25   H57   S    
C80   H32   S    
C26   H54   S    
C69   H13   S    
C20   H44   S    
C2    O26   A    
C98   O14   A    
C36   C40   A    
C71   H15   S    
C40   C52   S    
C47   O35   A    
Cr2   O22   S    
Cr6   O50   S    
C53   C92   S    
C124  H86   S    
C35   C44   A    
Cr9   O13   S    
C45   C101  S    
C120  H76   S    
C59   C75   S    
C1    O21   A    
C78   H26   S    
C79   H27   S    
C54   C58   A    
C80   H28   S    
Cr10  O34   S    
C34   C38   A    
C76   H20   S    
Cr2   O46   S    
C13   H37   S    
C38   C50   S    
C9    C29   A    
Cr8   O32   S    
C4    O28   A    
Cr6   O26   S    
C52   H6    S    
Cr8   O52   S    
C81   C97   S    
C22   H48   S    
C122  H81   S    
C88   O4    A    
C86   O38   A    
C89   O45   A    
C65   H9    S    
C98   O42   A    
