data_mof_unit_22629.cif
_audit_creation_date              2012-12-11T15:48:41-0500
_audit_creation_method            fapswitch 2.2
_symmetry_space_group_name_H-M    P1
_symmetry_Int_Tables_number       1
_space_group_crystal_system       triclinic
_cell_length_a                    10.985139
_cell_length_b                    10.97992
_cell_length_c                    18.838651
_cell_angle_alpha                 90.105044
_cell_angle_beta                  90.104082
_cell_angle_gamma                 60.750939
_cell_volume                      1982.53560335

loop_
_atom_site_label
_atom_site_type_symbol
_atom_type_description
_atom_site_fract_x
_atom_site_fract_y
_atom_site_fract_z
_atom_type_partial_charge
C1    C     C_R   0.239997 0.644786 0.610434 0.544924
C2    C     C_3   0.730022 0.517079 0.798565 0.052858
C3    C     C_3   0.696125 0.669852 0.814163 0.056119
C4    C     C_3   0.670589 0.639217 0.678276 0.004961
C5    C     C_3   0.797065 0.664896 0.690767 0.410446
C6    C     C_3   0.697980 0.505404 0.720035 -0.179672
C7    C     C_R   0.685041 0.145751 0.820514 -0.018173
C8    C     C_R   0.779588 0.170423 0.782699 -0.039647
C9    C     C_R   0.773498 0.178491 0.708476 -0.000074
C10   C     C_R   0.584644 0.124912 0.708326 0.171400
C11   C     C_R   0.582373 0.133068 0.781263 -0.035169
C12   C     C_R   0.651854 0.617413 0.602559 0.571918
C13   C     C_3   0.933163 0.087373 0.784360 -0.139765
C14   C     C_3   0.928652 0.091562 0.704054 0.089112
C15   C     C_R   0.676062 0.156488 0.670227 -0.037061
C16   C     C_R   0.178397 0.673620 0.834779 0.014262
C17   C     C_R   0.164026 0.572582 0.796232 -0.041989
C18   C     C_R   0.177157 0.564465 0.722525 0.032397
C19   C     C_R   0.199161 0.771400 0.723289 -0.138465
C20   C     C_R   0.203678 0.770265 0.797010 0.163583
C21   C     C_3   0.252077 0.418700 0.804454 0.150620
C22   C     C_3   0.270042 0.410067 0.724238 0.151439
C23   C     C_R   0.630000 0.224518 0.601345 0.529622
C24   C     C_R   0.193964 0.664331 0.684566 -0.048711
C25   C     C_R   0.667202 0.681337 0.172340 0.075272
C26   C     C_R   0.751088 0.554936 0.205434 0.109833
C27   C     C_R   0.751995 0.542064 0.277453 0.015769
C28   C     C_R   0.591152 0.787480 0.289816 -0.155653
C29   C     C_R   0.594390 0.800745 0.215595 -0.092690
C30   C     C_3   0.766005 0.414441 0.192110 0.083305
C31   C     C_3   0.767463 0.399360 0.272071 -0.168692
C32   C     C_R   0.665089 0.654741 0.320771 0.006293
C33   C     C_R   0.673549 0.112809 0.183306 0.057624
C34   C     C_R   0.219337 0.651080 0.402408 0.567578
C35   C     C_R   0.556730 0.127767 0.218449 -0.045902
C36   C     C_R   0.545410 0.150062 0.290423 0.014263
C37   C     C_R   0.782460 0.106444 0.297104 -0.183631
C38   C     C_R   0.791419 0.090269 0.223408 -0.130743
C39   C     C_3   0.408624 0.230919 0.202976 -0.236798
C40   C     C_3   0.397543 0.265043 0.281268 0.126819
C41   C     C_R   0.653779 0.150233 0.329954 0.020069
C42   C     C_R   0.147506 0.664444 0.183173 -0.013565
C43   C     C_R   0.219798 0.725160 0.213938 0.043257
C44   C     C_R   0.230979 0.727965 0.285657 0.025150
C45   C     C_R   0.643202 0.622903 0.392853 0.548076
C46   C     C_R   0.109022 0.597767 0.301163 -0.048100
C47   C     C_R   0.103328 0.587378 0.227293 0.223233
C48   C     C_3   0.210160 0.865607 0.205908 0.093710
C49   C     C_3   0.222388 0.868005 0.285866 -0.184939
C50   C     C_R   0.169656 0.672437 0.330609 -0.013786
C51   C     C_R   0.702952 0.098428 0.894733 0.566547
C52   C     C_R   0.720851 0.686146 0.889741 0.561778
C53   C     C_R   0.117892 0.707395 0.905845 0.562017
C54   C     C_R   0.681817 0.092052 0.107598 0.566480
C55   C     C_R   0.698480 0.692633 0.098720 0.543091
C56   C     C_R   0.618350 0.224820 0.396838 0.565769
C57   C     C_R   0.090167 0.709895 0.113299 0.547756
C58   C     C_3   0.543610 0.769379 0.789902 0.099159
C59   C     C_3   0.533695 0.759762 0.709041 -0.243533
C60   C     C_3   0.796325 0.703334 0.770096 -0.150672
Cr1   Cr    Cr6+3 0.392960 0.397920 0.502240 1.034523
Cr2   Cr    Cr6+3 0.398340 0.708480 0.501250 1.019793
Cr3   Cr    Cr6+3 0.708670 0.393570 0.496460 1.013318
Cr4   Cr    Cr6+3 0.937650 0.938540 0.007610 1.012489
Cr5   Cr    Cr6+3 0.625330 0.937370 0.994520 1.062295
Cr6   Cr    Cr6+3 0.937940 0.625230 0.001190 1.024285
H1    H     H_    0.788222 0.411895 0.697327 0.217317
H2    H     H_    0.903424 0.644286 0.791719 0.145655
H3    H     H_    0.500907 0.122093 0.807152 0.255757
H4    H     H_    0.964522 0.983333 0.806790 0.157412
H5    H     H_    0.981515 0.145548 0.809078 0.201751
H6    H     H_    0.962766 0.989203 0.677683 0.127925
H7    H     H_    0.477179 0.732560 0.815859 0.193983
H8    H     H_    0.192609 0.368959 0.825771 0.201607
H9    H     H_    0.376620 0.378463 0.704749 0.144000
H10   H     H_    0.527756 0.878512 0.322060 0.114180
H11   H     H_    0.537361 0.902866 0.191849 0.168899
H12   H     H_    0.865509 0.339427 0.165727 0.129449
H13   H     H_    0.347586 0.179031 0.187085 0.124248
H14   H     H_    0.396350 0.316813 0.167232 0.164325
H15   H     H_    0.074697 0.540701 0.335016 0.143638
H16   H     H_    0.110615 0.951530 0.185849 0.131879
H17   H     H_    0.507506 0.859762 0.682875 0.194694
H18   H     H_    0.319937 0.863167 0.304978 0.181558
H19   H     H_    0.125900 0.949214 0.311874 0.078452
H20   H     H_    0.765246 0.815630 0.776348 0.127803
H21   H     H_    0.605930 0.488826 0.715233 0.133233
O1    O     O_R   0.507380 0.255700 0.581440 -0.518206
O2    O     O_R   0.524480 0.695810 0.424040 -0.501110
O3    O     O_R   0.736390 0.504290 0.414790 -0.521431
O4    O     O_R   0.691300 0.277290 0.422170 -0.519049
O5    O     O_3   0.499990 0.499990 0.499980 -0.260414
O6    O     O_R   0.089400 0.825690 0.930570 -0.512088
O7    O     O_R   0.818460 0.054440 0.929850 -0.508784
O8    O     O_R   0.606060 0.077150 0.915510 -0.480513
O9    O     O_R   0.646550 0.806680 0.917570 -0.444738
O10   O     O_R   0.837170 0.593410 0.915250 -0.556392
O11   O     O_R   0.065200 0.635530 0.931570 -0.496203
O12   O     O_R   0.280320 0.527350 0.578930 -0.517003
O13   O     O_R   0.068260 0.828890 0.091840 -0.549319
O14   O     O_R   0.798870 0.057410 0.079340 -0.516103
O15   O     O_R   0.584930 0.080350 0.076780 -0.517780
O16   O     O_R   0.626960 0.809650 0.067060 -0.511565
O17   O     O_R   0.816040 0.596610 0.076510 -0.513708
O18   O     O_R   0.045610 0.638500 0.081060 -0.489610
O19   O     O_3   0.833640 0.833710 0.001100 -0.277911
O20   O     O_R   0.260510 0.739590 0.584590 -0.531481
O21   O     O_R   0.532300 0.695080 0.573820 -0.515491
O22   O     O_R   0.744840 0.503500 0.576370 -0.512594
O23   O     O_R   0.699120 0.276560 0.571960 -0.511365
O24   O     O_R   0.498940 0.256500 0.419860 -0.488800
O25   O     O_R   0.272500 0.528080 0.429150 -0.462133
O26   O     O_R   0.252060 0.740380 0.423010 -0.526979
O27   O     O_3   0.497401 0.908403 0.809163 -0.694557
H22   H     H_    0.395522 0.961044 0.799865 0.374763
O28   O     O_3   0.922790 0.540946 0.677449 -0.642808
H23   H     H_    0.942431 0.535420 0.625786 0.376630
O29   O     O_3   0.487626 0.096658 0.676700 -0.678189
H24   H     H_    0.521881 0.055917 0.629121 0.331846
O30   O     O_3   0.990805 0.166373 0.676441 -0.657957
H25   H     H_    0.982025 0.164119 0.624097 0.338177
H26   H     H_    0.211827 0.851793 0.696651 0.190651
O31   O     O_3   0.225033 0.870674 0.829809 -0.725342
H27   H     H_    0.273426 0.832450 0.875513 0.345329
O32   O     O_3   0.374533 0.382728 0.843408 -0.717616
H28   H     H_    0.425348 0.426248 0.820540 0.341949
O33   O     O_3   0.207340 0.338793 0.692771 -0.608626
H29   H     H_    0.224273 0.338012 0.641040 0.359344
O34   O     O_3   0.645788 0.422569 0.161507 -0.718973
H30   H     H_    0.657354 0.425621 0.109445 0.333832
H31   H     H_    0.674940 0.396223 0.293434 0.180563
H32   H     H_    0.446876 0.739097 0.697434 0.122622
H33   H     H_    0.869985 0.318344 0.292951 0.104393
H34   H     H_    0.869703 0.100978 0.326522 0.113586
H35   H     H_    0.886750 0.069620 0.197538 0.122012
O35   O     O_3   0.385652 0.396323 0.294814 -0.683462
H36   H     H_    0.453697 0.408403 0.265140 0.348195
H37   H     H_    0.319460 0.247430 0.310244 0.155547
O36   O     O_3   0.050760 0.505503 0.200971 -0.709663
H38   H     H_    0.109099 0.453389 0.159832 0.337086
O37   O     O_3   0.326704 0.855607 0.171005 -0.710129
H39   H     H_    0.309942 0.850456 0.119603 0.343313
O38   O     O_3   0.791797 0.770458 0.646230 -0.713413
H40   H     H_    0.709889 0.859173 0.659863 0.313716
H41   H     H_    0.843706 0.444497 0.807564 0.170418
O39   O     O_3   0.650293 0.478430 0.841932 -0.745572
H42   H     H_    0.704937 0.437090 0.885878 0.339554

loop_
_geom_bond_atom_site_label_1
_geom_bond_atom_site_label_2
_ccdc_geom_bond_type
C44   C49   S    
C57   O18   A    
C19   H26   S    
C8    C13   S    
C34   O25   A    
C32   C45   S    
C54   O14   A    
C35   C36   A    
C31   H33   S    
C1    O12   A    
O27   H22   S    
O31   H27   S    
C2    C6    S    
C2    H41   S    
C7    C11   A    
C40   O35   S    
C26   C27   A    
C18   C24   A    
Cr5   O15   S    
Cr6   O10   S    
C28   C29   A    
C59   H17   S    
Cr4   O6    S    
O34   H30   S    
C2    C3    S    
C10   C15   A    
C30   C31   S    
C3    C52   S    
C5    O38   S    
Cr2   O21   S    
C13   H4    S    
O38   H40   S    
Cr2   O2    S    
C55   O16   A    
C52   O10   A    
O28   H23   S    
C4    C59   S    
C16   C53   S    
C20   O31   S    
C31   H31   S    
O29   H24   S    
Cr5   O9    S    
C19   C20   A    
C16   C17   A    
C40   H37   S    
Cr3   O5    S    
C4    C12   S    
C45   O2    A    
C43   C48   S    
C56   O24   A    
Cr1   O5    S    
C3    C60   S    
C15   C23   S    
C21   C22   S    
C37   C41   A    
C36   C41   A    
Cr1   O12   S    
C22   H9    S    
Cr6   O19   S    
C42   C57   S    
C12   O22   A    
C56   O4    A    
C25   C29   A    
Cr4   O14   S    
C59   H32   S    
C34   C50   S    
Cr5   O8    S    
C27   C31   S    
C49   H19   S    
C28   C32   A    
Cr2   O26   S    
C4    C6    S    
C39   C40   S    
C12   O21   A    
C60   H20   S    
C8    C9    A    
Cr2   O20   S    
C13   H5    S    
C58   C59   S    
C57   O13   A    
C53   O6    A    
C21   H8    S    
C17   C21   S    
C6    H21   S    
Cr2   O5    S    
C34   O26   A    
C39   H13   S    
Cr3   O22   S    
C35   C39   S    
C9    C14   S    
C41   C56   S    
C37   C38   A    
C10   O29   S    
Cr1   O1    S    
Cr6   O17   S    
C46   H15   S    
C36   C40   S    
C16   C20   A    
C17   C18   A    
C38   H35   S    
C45   O3    A    
C1    O20   A    
C48   C49   S    
C26   C30   S    
C14   O30   S    
C23   O1    A    
C5    O28   S    
O32   H28   S    
C42   C43   A    
Cr5   O16   S    
Cr6   O18   S    
C47   O36   S    
O33   H29   S    
C28   H10   S    
Cr5   O19   S    
O30   H25   S    
C49   H18   S    
O39   H42   S    
C44   C50   A    
C33   C54   S    
C23   O23   A    
C46   C47   A    
C6    H1    S    
C5    C60   S    
C27   C32   A    
C18   C22   S    
C14   H6    S    
C54   O15   A    
C25   C55   S    
O35   H36   S    
O36   H38   S    
C11   H3    S    
Cr4   O19   S    
C53   O11   A    
C2    O39   S    
C30   O34   S    
C46   C50   A    
C33   C38   A    
C39   H14   S    
Cr6   O11   S    
Cr3   O23   S    
C19   C24   A    
C25   C26   A    
C7    C51   S    
O37   H39   S    
C22   O33   S    
C43   C44   A    
C4    C5    S    
C55   O17   A    
Cr3   O3    S    
C33   C35   A    
C48   H16   S    
C48   O37   S    
C52   O9    A    
C42   C47   A    
C9    C15   A    
C7    C8    A    
C10   C11   A    
C51   O7    A    
Cr4   O7    S    
C30   H12   S    
C3    C58   S    
Cr4   O13   S    
C29   H11   S    
C60   H2    S    
C1    C24   S    
Cr3   O4    S    
C58   O27   S    
C37   H34   S    
C13   C14   S    
Cr1   O25   S    
C21   O32   S    
C58   H7    S    
C51   O8    A    
Cr1   O24   S    
