data_mof_unit_24150.cif
_audit_creation_date              2012-12-11T16:51:23-0500
_audit_creation_method            fapswitch 2.2
_symmetry_space_group_name_H-M    P1
_symmetry_Int_Tables_number       1
_space_group_crystal_system       triclinic
_cell_length_a                    24.434419
_cell_length_b                    17.207811
_cell_length_c                    15.544286
_cell_angle_alpha                 89.751466
_cell_angle_beta                  128.974491
_cell_angle_gamma                 90.436065
_cell_volume                      5080.94941065

loop_
_atom_site_label
_atom_site_type_symbol
_atom_type_description
_atom_site_fract_x
_atom_site_fract_y
_atom_site_fract_z
_atom_type_partial_charge
C1    C     C_R   0.846953 0.861255 0.236559 -0.177047
C2    C     C_R   0.140343 0.187434 0.502206 0.069609
C3    C     C_3   0.431007 0.181301 0.135425 -0.309893
C4    C     C_R   0.316076 0.617250 0.498215 0.072332
C5    C     C_R   0.640343 0.687434 0.502205 0.069608
C6    C     C_R   0.854663 0.131783 0.140502 0.147973
C7    C     C_R   0.144756 0.128602 0.861810 0.148322
C8    C     C_R   0.354661 0.631781 0.140501 0.147982
C9    C     C_R   0.644756 0.628602 0.861810 0.148322
C10   C     C_R   0.776388 0.840118 0.606235 0.157920
C11   C     C_R   0.153291 0.717572 0.393719 0.138798
C12   C     C_R   0.276388 0.340118 0.606236 0.157931
C13   C     C_R   0.153670 0.863819 0.771044 -0.175426
C14   C     C_R   0.653290 0.217569 0.393719 0.138796
C15   C     C_R   0.760894 0.861601 0.506132 0.034359
C16   C     C_R   0.174533 0.747754 0.494062 0.044578
C17   C     C_R   0.260895 0.361601 0.506132 0.034357
C18   C     C_R   0.674531 0.247751 0.494062 0.044578
C19   C     C_R   0.691345 0.850951 0.408146 -0.205689
C20   C     C_R   0.225149 0.706748 0.591905 -0.201095
C21   C     C_R   0.191345 0.350951 0.408147 -0.205689
C22   C     C_R   0.725148 0.206746 0.591906 -0.201097
C23   C     C_R   0.145748 0.301467 0.408492 -0.200103
C24   C     C_R   0.346953 0.361256 0.236558 -0.177044
C25   C     C_R   0.766748 0.151731 0.591737 -0.197969
C26   C     C_R   0.645747 0.801467 0.408492 -0.200105
C27   C     C_R   0.266748 0.651731 0.591736 -0.197971
C28   C     C_R   0.170198 0.262623 0.506595 0.036434
C29   C     C_R   0.757088 0.138789 0.493735 0.038351
C30   C     C_R   0.670198 0.762623 0.506594 0.036435
C31   C     C_R   0.257088 0.638789 0.493734 0.038351
C32   C     C_R   0.231795 0.290814 0.606586 0.158354
C33   C     C_R   0.694117 0.163266 0.393414 0.140417
C34   C     C_R   0.731795 0.790814 0.606585 0.158357
C35   C     C_R   0.653675 0.363826 0.771057 -0.175416
C36   C     C_R   0.194118 0.663268 0.393413 0.140421
C37   C     C_3   0.792329 0.749668 0.708225 -0.505764
C38   C     C_3   0.179495 0.697990 0.292073 -0.483995
C39   C     C_3   0.292329 0.249668 0.708226 -0.505751
C40   C     C_3   0.679492 0.197987 0.292071 -0.483985
C41   C     C_R   0.094901 0.863303 0.406898 -0.150990
C42   C     C_R   0.886065 0.897870 0.592828 -0.166912
C43   C     C_R   0.594900 0.363302 0.406898 -0.150989
C44   C     C_R   0.386065 0.397869 0.592829 -0.166906
C45   C     C_3   0.840798 0.803957 0.707963 -0.516706
C46   C     C_R   0.884887 0.103283 0.591244 -0.121973
C47   C     C_3   0.134960 0.757296 0.292739 -0.513382
C48   C     C_3   0.340798 0.303957 0.707964 -0.516723
C49   C     C_3   0.634957 0.257291 0.292738 -0.513375
C50   C     C_2   0.144207 0.749720 0.865784 0.609274
C51   C     C_2   0.851674 0.749479 0.134497 0.610116
C52   C     C_2   0.644226 0.249738 0.865826 0.609264
C53   C     C_2   0.351673 0.249480 0.134496 0.610118
C54   C     C_2   0.194346 0.708863 0.874920 -0.339149
C55   C     C_2   0.802657 0.707178 0.127804 -0.338576
C56   C     C_2   0.694347 0.208869 0.874925 -0.339211
C57   C     C_R   0.089469 0.143982 0.408615 -0.122282
C58   C     C_2   0.302657 0.207179 0.127803 -0.338574
C59   C     C_2   0.808329 0.160354 0.026800 -0.243431
C60   C     C_2   0.189810 0.156523 0.975753 -0.240447
C61   C     C_2   0.308325 0.660347 0.026798 -0.243447
C62   C     C_2   0.689810 0.656522 0.975753 -0.240444
C63   C     C_2   0.738502 0.155839 0.967156 -0.028483
C64   C     C_2   0.259686 0.151925 0.038047 -0.030583
C65   C     C_2   0.238498 0.655841 0.967161 -0.028543
C66   C     C_2   0.759686 0.651925 0.038047 -0.030578
C67   C     C_R   0.170368 0.863360 0.590728 -0.126442
C68   C     C_R   0.384887 0.603283 0.591244 -0.121975
C69   C     C_R   0.811861 0.896272 0.409533 -0.132383
C70   C     C_R   0.670366 0.363357 0.590728 -0.126442
C71   C     C_R   0.311862 0.396272 0.409533 -0.132383
C72   C     C_R   0.059258 0.862260 0.764425 -0.091213
C73   C     C_R   0.934414 0.865532 0.226369 -0.099308
C74   C     C_R   0.559265 0.362271 0.764446 -0.091227
C75   C     C_R   0.434414 0.365532 0.226368 -0.099308
C76   C     C_R   0.876397 0.822723 0.196353 -0.026392
C77   C     C_R   0.119872 0.822436 0.802867 -0.024983
C78   C     C_R   0.376397 0.322724 0.196352 -0.026393
C79   C     C_R   0.589469 0.643982 0.408615 -0.122283
C80   C     C_R   0.619882 0.322449 0.802895 -0.024953
C81   C     C_R   0.148719 0.822284 0.497620 0.068802
C82   C     C_R   0.817599 0.881073 0.502372 0.080984
C83   C     C_R   0.648717 0.322281 0.497621 0.068802
C84   C     C_R   0.317599 0.381072 0.502372 0.080983
C85   C     C_R   0.811226 0.100217 0.407435 -0.144877
C86   C     C_R   0.161868 0.143620 0.593168 -0.146464
C87   C     C_R   0.311226 0.600216 0.407435 -0.144884
C88   C     C_R   0.661868 0.643620 0.593167 -0.146464
C89   C     C_R   0.924116 0.109593 0.199569 -0.159263
C90   C     C_R   0.816076 0.117250 0.498215 0.072330
C91   C     C_R   0.074441 0.109366 0.799215 -0.140291
C92   C     C_R   0.424114 0.609592 0.199568 -0.159262
C93   C     C_R   0.574441 0.609366 0.799215 -0.140288
C94   C     C_R   0.166213 0.107920 0.801222 -0.130618
C95   C     C_R   0.834471 0.111855 0.203218 -0.112926
C96   C     C_R   0.666214 0.607920 0.801222 -0.130618
C97   C     C_R   0.334471 0.611855 0.203220 -0.112941
C98   C     C_3   0.067176 0.678774 0.869481 -0.297056
C99   C     C_3   0.931007 0.681300 0.135427 -0.309883
C100  C     C_3   0.567234 0.178830 0.869653 -0.296983
H1    H     H_    0.095800 0.286288 0.330079 0.125562
H2    H     H_    0.157362 0.817005 0.309371 0.203520
H3    H     H_    0.369773 0.344531 0.779597 0.197917
H4    H     H_    0.657357 0.317001 0.309367 0.203523
H5    H     H_    0.873846 0.773157 0.692713 0.196965
H6    H     H_    0.078155 0.751771 0.220426 0.190541
H7    H     H_    0.373846 0.273157 0.692713 0.196946
H8    H     H_    0.578151 0.251765 0.220426 0.190536
H9    H     H_    0.715059 0.123942 0.997136 0.149945
H10   H     H_    0.284063 0.119393 0.010674 0.151654
H11   H     H_    0.215057 0.623955 0.997149 0.149945
H12   H     H_    0.811561 0.128403 0.670166 0.123588
H13   H     H_    0.784063 0.619393 0.010674 0.151655
H14   H     H_    0.210975 0.724113 0.826553 0.111490
H15   H     H_    0.785690 0.722439 0.175410 0.116659
H16   H     H_    0.710956 0.224106 0.826528 0.111505
H17   H     H_    0.285691 0.222439 0.175410 0.116659
H18   H     H_    0.831531 0.192185 0.996113 0.134909
H19   H     H_    0.165775 0.189270 0.003833 0.136632
H20   H     H_    0.331528 0.692168 0.996103 0.134909
H21   H     H_    0.665775 0.689269 0.003834 0.136630
H22   H     H_    0.069848 0.851980 0.322135 0.100165
H23   H     H_    0.595799 0.786289 0.330079 0.125561
H24   H     H_    0.906012 0.906556 0.676841 0.103101
H25   H     H_    0.569847 0.351978 0.322135 0.100166
H26   H     H_    0.406012 0.406554 0.676841 0.103097
H27   H     H_    0.216116 0.852016 0.674551 0.085207
H28   H     H_    0.763750 0.900747 0.325275 0.081846
H29   H     H_    0.716112 0.352011 0.674552 0.085208
H30   H     H_    0.263751 0.400747 0.325275 0.081848
H31   H     H_    0.021839 0.847691 0.777383 0.111872
H32   H     H_    0.962690 0.856522 0.195296 0.113611
H33   H     H_    0.521851 0.347712 0.777416 0.111790
H34   H     H_    0.311560 0.628402 0.670165 0.123589
H35   H     H_    0.462689 0.356524 0.195295 0.113612
H36   H     H_    0.763867 0.090816 0.323605 0.099601
H37   H     H_    0.198288 0.160078 0.678703 0.113892
H38   H     H_    0.263867 0.590815 0.323605 0.099606
H39   H     H_    0.698287 0.660079 0.678703 0.113892
H40   H     H_    0.952885 0.107088 0.168054 0.094960
H41   H     H_    0.043493 0.108291 0.827034 0.093740
H42   H     H_    0.452882 0.607086 0.168051 0.094959
H43   H     H_    0.543493 0.608291 0.827034 0.093740
H44   H     H_    0.219569 0.105340 0.830199 0.093321
H45   H     H_    0.798285 0.688438 0.692801 0.196183
H46   H     H_    0.782231 0.112981 0.179023 0.094095
H47   H     H_    0.719569 0.605339 0.830200 0.093322
H48   H     H_    0.282232 0.612980 0.179026 0.094084
H49   H     H_    0.905177 0.100608 0.676190 0.083914
H50   H     H_    0.060958 0.160213 0.323164 0.092517
H51   H     H_    0.405177 0.600608 0.676190 0.083915
H52   H     H_    0.560958 0.660213 0.323163 0.092518
H53   H     H_    0.674795 0.871986 0.329395 0.122941
H54   H     H_    0.238453 0.723082 0.670223 0.121869
H55   H     H_    0.174795 0.371985 0.329396 0.122943
H56   H     H_    0.148276 0.658266 0.219571 0.189082
H57   H     H_    0.738453 0.223080 0.670224 0.121868
H58   H     H_    0.799313 0.847059 0.224119 0.100926
H59   H     H_    0.206088 0.854127 0.799255 0.094541
H60   H     H_    0.299313 0.347060 0.224119 0.100926
H61   H     H_    0.706093 0.354135 0.799269 0.094544
H62   H     H_    0.793846 0.758605 0.780517 0.215044
H63   H     H_    0.226504 0.724794 0.307436 0.207801
H64   H     H_    0.293846 0.258605 0.780518 0.215043
H65   H     H_    0.726500 0.224792 0.307432 0.207809
H66   H     H_    0.082933 0.623288 0.854218 0.139043
H67   H     H_    0.298285 0.188438 0.692802 0.196182
H68   H     H_    0.021196 0.704018 0.789717 0.133224
H69   H     H_    0.050236 0.665049 0.919407 0.177504
H70   H     H_    0.975486 0.709171 0.214553 0.136167
H71   H     H_    0.949479 0.668615 0.087554 0.177443
H72   H     H_    0.916839 0.624977 0.152528 0.145988
H73   H     H_    0.582874 0.123419 0.854001 0.138892
H74   H     H_    0.521164 0.204205 0.790102 0.133361
H75   H     H_    0.550494 0.164912 0.919811 0.177455
H76   H     H_    0.416838 0.124979 0.152523 0.145992
H77   H     H_    0.475484 0.209171 0.214553 0.136167
H78   H     H_    0.648273 0.158261 0.219571 0.189055
H79   H     H_    0.449481 0.168618 0.087554 0.177439
H80   H     H_    0.869773 0.844531 0.779596 0.197917
N1    N     N_R   0.888400 0.921830 0.294620 -0.031321
N2    N     N_R   0.874350 0.922400 0.443380 -0.036401
N3    N     N_R   0.625650 0.422400 0.556620 -0.037883
N4    N     N_R   0.374350 0.422400 0.443380 -0.036401
N5    N     N_R   0.054230 0.922730 0.705400 -0.042988
N6    N     N_R   0.945770 0.922730 0.294600 -0.041584
N7    N     N_R   0.554230 0.422730 0.705400 -0.042978
N8    N     N_R   0.445770 0.422730 0.294600 -0.041584
N9    N     N_R   0.873790 0.077030 0.443380 -0.038344
N10   N     N_R   0.126210 0.077030 0.556620 -0.041865
N11   N     N_R   0.373790 0.577030 0.443380 -0.038344
N12   N     N_R   0.111600 0.921830 0.705380 -0.030797
N13   N     N_R   0.626210 0.577030 0.556620 -0.041865
N14   N     N_R   0.945200 0.076700 0.294600 -0.040890
N15   N     N_R   0.054800 0.076700 0.705400 -0.041714
N16   N     N_R   0.445200 0.576700 0.294600 -0.040890
N17   N     N_R   0.554800 0.576700 0.705400 -0.041715
N18   N     N_R   0.111030 0.077600 0.705380 -0.044800
N19   N     N_R   0.888970 0.077600 0.294620 -0.045278
N20   N     N_R   0.611030 0.577600 0.705380 -0.044800
N21   N     N_R   0.388970 0.577600 0.294620 -0.045276
N22   N     N_R   0.919490 0.077280 0.556590 -0.038545
N23   N     N_R   0.388400 0.421830 0.294620 -0.031320
N24   N     N_R   0.080510 0.077280 0.443410 -0.041265
N25   N     N_R   0.419490 0.577280 0.556590 -0.038546
N26   N     N_R   0.580510 0.577280 0.443410 -0.041266
N27   N     N_R   0.611600 0.421830 0.705380 -0.030800
N28   N     N_R   0.079940 0.922160 0.443410 -0.040157
N29   N     N_R   0.920060 0.922160 0.556590 -0.039625
N30   N     N_R   0.579940 0.422160 0.443410 -0.040158
N31   N     N_R   0.420060 0.422160 0.556590 -0.039622
N32   N     N_R   0.125650 0.922400 0.556620 -0.037881
Ni1   Ni    Ni4+2 0.882160 0.999430 0.370180 0.207094
Ni2   Ni    Ni4+2 0.117840 0.999430 0.629820 0.212313
Ni3   Ni    Ni4+2 0.382160 0.499430 0.370180 0.207096
Ni4   Ni    Ni4+2 0.617840 0.499430 0.629820 0.212314
Ni5   Ni    Ni4+2 0.012460 0.999430 0.370180 0.212850
Ni6   Ni    Ni4+2 0.987540 0.999430 0.629820 0.208266
Ni7   Ni    Ni4+2 0.512460 0.499430 0.370180 0.212850
Ni8   Ni    Ni4+2 0.487540 0.499430 0.629820 0.208269
O1    O     O_3   0.123987 0.731791 0.929257 -0.606618
O2    O     O_3   0.872217 0.730738 0.071916 -0.613863
O3    O     O_3   0.624055 0.231833 0.929371 -0.606602
O4    O     O_3   0.372216 0.230738 0.071915 -0.613862

loop_
_geom_bond_atom_site_label_1
_geom_bond_atom_site_label_2
_ccdc_geom_bond_type
C98   O1    S    
N25   Ni8   S    
C3    O4    S    
C66   H13   S    
C34   C37   S    
C43   C83   A    
C14   C18   A    
C11   C47   S    
C75   N8    A    
C42   C82   A    
C38   H56   S    
C12   C48   S    
N10   N24   A    
C43   H25   S    
C49   H4    S    
C73   N6    A    
C2    C57   A    
C42   H24   S    
C24   N23   A    
C4    C87   A    
C53   O4    S    
C15   C19   A    
N31   Ni8   S    
C44   H26   S    
C50   C54   D    
C13   N12   A    
C20   H54   S    
C72   H31   S    
N29   Ni6   S    
N23   Ni3   S    
C1    H58   S    
C95   N19   A    
C71   C84   A    
C10   C15   A    
C39   H64   S    
C75   H35   S    
C14   C49   S    
C99   H71   S    
C51   O2    S    
C85   N9    A    
C40   C49   S    
C74   H33   S    
C29   C33   A    
C35   C80   A    
N3    Ni4   S    
C60   H19   S    
N11   N25   A    
C32   C39   S    
C43   N30   A    
C19   C26   A    
C3    H79   S    
C65   H11   S    
C16   C81   S    
C69   C82   A    
C45   H80   S    
N11   Ni3   S    
C98   H69   S    
C79   N26   A    
N21   Ni3   S    
C69   H28   S    
C37   H45   S    
C22   C25   A    
C12   C17   A    
N2    Ni1   S    
C8    C92   A    
C5    C79   A    
N17   Ni8   S    
C92   H42   S    
C86   H37   S    
N28   N32   A    
C69   N2    A    
N15   N18   A    
C89   H40   S    
C99   O2    S    
C7    C91   A    
C47   H2    S    
C74   C80   A    
C12   C32   A    
C50   O1    S    
C25   C29   A    
C1    C76   A    
C95   H46   S    
C14   C33   A    
C6    C59   S    
N12   Ni2   S    
C29   C90   S    
C45   H5    S    
N14   Ni5   S    
N7    Ni8   S    
C58   C64   S    
N6    Ni5   S    
C13   C77   A    
C86   N10   A    
C33   C40   S    
N5    Ni6   S    
C30   C34   A    
C27   C31   A    
C9    C62   S    
C28   C32   A    
N1    N6    A    
C51   C76   S    
C15   C82   S    
C54   C65   S    
C62   C66   D    
N4    Ni3   S    
C99   H72   S    
C56   H16   S    
C100  O3    S    
C92   N16   A    
C48   H3    S    
C58   H17   S    
C17   C21   A    
N30   Ni7   S    
N3    N30   A    
C41   H22   S    
C63   H9    S    
N17   N20   A    
C93   N17   A    
C8    C97   A    
C88   H39   S    
C72   C77   A    
C67   H27   S    
C91   N15   A    
C11   C16   A    
C70   N3    A    
C87   N11   A    
C64   H10   S    
N14   N19   A    
C49   H8    S    
C16   C20   A    
C47   H6    S    
C41   C81   A    
C57   H50   S    
C46   H49   S    
C100  H75   S    
C38   C47   S    
C18   C83   S    
C21   H55   S    
C56   C63   S    
N1    Ni1   S    
C67   N32   A    
C10   C34   A    
C35   H61   S    
C23   C28   A    
C70   C83   A    
N10   Ni2   S    
C9    C96   A    
C40   H65   S    
C98   H66   S    
C42   N29   A    
N9    Ni1   S    
C40   H78   S    
C35   N27   A    
C38   H63   S    
C20   C27   A    
N32   Ni2   S    
C67   C81   A    
C59   H18   S    
C21   C23   A    
C100  H74   S    
C19   H53   S    
C97   H48   S    
C26   H23   S    
C87   H38   S    
C37   C45   S    
N18   Ni2   S    
C50   C77   S    
C9    C93   A    
C7    C60   S    
C100  H73   S    
C55   C66   S    
C52   C56   D    
N13   Ni4   S    
C4    C68   A    
C74   N7    A    
N8    Ni7   S    
C24   C78   A    
N28   Ni5   S    
C96   N20   A    
C7    C94   A    
C11   C36   A    
C1    N1    A    
N13   N26   A    
N19   Ni1   S    
C27   H34   S    
C71   N4    A    
C97   N21   A    
C44   C84   A    
C93   H43   S    
C54   H14   S    
N5    N12   A    
C85   C90   A    
C96   H47   S    
C26   C30   A    
C46   C90   A    
C22   H57   S    
C91   H41   S    
N9    N22   A    
C6    C89   A    
C8    C61   S    
N8    N23   A    
C59   C63   D    
N24   Ni5   S    
C60   C64   D    
C44   N31   A    
C99   H70   S    
C17   C84   S    
C41   N28   A    
C18   C22   A    
C53   C78   S    
C3    H77   S    
C94   H44   S    
N4    N31   A    
C68   H51   S    
C71   H30   S    
N22   Ni6   S    
C25   H12   S    
C23   H1    S    
C55   H15   S    
C89   N14   A    
C88   N13   A    
C57   N24   A    
C36   C38   S    
N27   Ni4   S    
N20   Ni4   S    
C2    C86   A    
C51   C55   D    
N2    N29   A    
C39   H67   S    
C75   C78   A    
C72   N5    A    
C73   H32   S    
C4    C31   S    
C85   H36   S    
C48   H7    S    
C61   C65   D    
C3    H76   S    
C46   N22   A    
C24   H60   S    
C73   C76   A    
C37   H62   S    
C52   O3    S    
N16   Ni7   S    
C6    C95   A    
C5    C30   S    
C10   C45   S    
N7    N27   A    
C68   N25   A    
C5    C88   A    
C31   C36   A    
C79   H52   S    
C2    C28   S    
C53   C58   D    
C94   N18   A    
N16   N21   A    
C52   C80   S    
C70   H29   S    
C13   H59   S    
C62   H21   S    
C98   H68   S    
N15   Ni6   S    
N26   Ni7   S    
C39   C48   S    
C61   H20   S    
