data_mof_unit_64104.cif
_audit_creation_date              2012-12-11T18:34:49-0500
_audit_creation_method            fapswitch 2.2
_symmetry_space_group_name_H-M    P1
_symmetry_Int_Tables_number       1
_space_group_crystal_system       triclinic
_cell_length_a                    8.310065
_cell_length_b                    14.442049
_cell_length_c                    23.134477
_cell_angle_alpha                 94.97909
_cell_angle_beta                  89.652879
_cell_angle_gamma                 91.721315
_cell_volume                      2764.72766364

loop_
_atom_site_label
_atom_site_type_symbol
_atom_type_description
_atom_site_fract_x
_atom_site_fract_y
_atom_site_fract_z
_atom_type_partial_charge
Ba1   Ba    Ba6+2 0.846250 0.544220 0.470860 1.712663
Ba2   Ba    Ba6+2 0.343570 0.455860 0.529140 1.756282
C1    C     C_3   0.574549 0.867062 0.293349 -0.260987
C2    C     C_R   0.180693 0.528444 0.929457 -0.062145
C3    C     C_R   0.144972 0.508750 0.869187 0.629031
C4    C     C_3   0.093240 0.730794 0.301957 0.316088
C5    C     C_R   0.873350 0.468458 0.892707 0.644551
C6    C     C_R   0.919183 0.457555 0.951085 -0.066055
C7    C     C_R   0.070964 0.494585 0.970153 -0.053634
C8    C     C_R   0.323636 0.577116 0.950847 -0.032190
C9    C     C_R   0.354513 0.586997 0.010934 -0.063921
C10   C     C_R   0.251259 0.547337 0.050961 -0.002441
C11   C     C_R   0.112612 0.498457 0.030176 -0.044139
C12   C     C_3   0.596710 0.781427 0.325931 0.334240
C13   C     C_R   0.816914 0.415517 0.991981 -0.024392
C14   C     C_R   0.868014 0.412527 0.049750 -0.088070
C15   C     C_R   0.014953 0.454157 0.069582 -0.039919
C16   C     C_3   0.078958 0.753390 0.239265 -0.313539
C17   C     C_R   0.068167 0.449813 0.127694 0.627170
C18   C     C_R   0.280878 0.559207 0.111700 0.600053
C19   C     C_2   0.827802 0.420174 0.765864 -0.091063
C20   C     C_3   0.793208 0.404572 0.701480 -0.117270
C21   C     C_1   0.001550 0.524805 0.686929 -0.030824
C22   C     C_2   0.030322 0.540135 0.744552 -0.067275
C23   C     C_3   0.503559 0.322194 0.357405 0.218149
C24   C     C_2   0.945158 0.480875 0.787691 0.171406
C25   C     C_R   0.404019 0.537424 0.231634 -0.075481
C26   C     C_R   0.443856 0.550884 0.290787 0.000148
C27   C     C_R   0.188788 0.483502 0.316862 -0.010265
C28   C     C_3   0.212747 0.759516 0.621381 0.252730
C29   C     C_R   0.138391 0.482142 0.258173 -0.081889
C30   C     C_R   0.245592 0.508408 0.213037 0.186969
C31   C     C_2   0.876674 0.474641 0.666613 -0.209413
C32   C     C_R   0.691635 0.936791 0.530873 -0.052943
C33   C     C_R   0.515766 0.801087 0.495505 -0.004515
C34   C     C_3   0.439144 0.290972 0.296889 -0.174372
C35   C     C_R   0.389626 0.768268 0.458402 -0.243961
C36   C     C_R   0.280362 0.829612 0.437434 0.051888
C37   C     C_R   0.317681 0.924491 0.442345 -0.131811
C38   C     C_R   0.458799 0.958739 0.470805 0.015194
C39   C     C_R   0.555820 0.898251 0.500073 -0.037084
C40   C     C_3   0.229905 0.856135 0.658469 -0.064232
C41   C     C_R   0.642221 0.090338 0.498228 0.013169
C42   C     C_R   0.739016 0.030861 0.528422 0.024953
C43   C     C_R   0.692135 0.184499 0.495148 -0.073218
C44   C     C_R   0.841060 0.214702 0.518786 -0.343217
C45   C     C_3   0.040379 0.206394 0.692412 0.376547
C46   C     C_R   0.934098 0.158398 0.550643 -0.026022
C47   C     C_R   0.883719 0.065904 0.555042 -0.142918
C48   C     C_R   0.501692 0.053236 0.470589 0.001480
C49   C     C_3   0.963157 0.246985 0.334604 0.271506
C50   C     C_3   0.964391 0.149745 0.358333 -0.304347
C51   C     C_3   0.685768 0.666961 0.639650 0.273311
C52   C     C_3   0.689008 0.689532 0.705102 -0.344677
C53   C     C_3   0.389089 0.869228 0.691468 -0.413694
C54   C     C_3   0.087262 0.873370 0.700284 -0.290575
C55   C     C_2   0.992482 0.236237 0.269596 0.835809
C56   C     C_3   0.975087 0.117857 0.716789 -0.374605
C57   C     C_2   0.816786 0.087215 0.347357 0.877667
C58   C     C_2   0.567904 0.277542 0.251883 0.923158
C59   C     C_3   0.105441 0.272767 0.742457 -0.240850
C60   C     C_3   0.540730 0.113353 0.651285 -0.335548
C61   C     C_2   0.661327 0.367175 0.976074 0.936588
C62   C     C_2   0.435738 0.628261 0.913829 0.968599
C63   C     C_2   0.095383 0.631859 0.768099 0.936358
C64   C     C_2   0.913629 0.302484 0.504073 0.875904
C65   C     C_2   0.140544 0.771469 0.563811 0.764517
C66   C     C_3   0.561006 0.238234 0.734166 0.302984
C67   C     C_3   0.506115 0.138128 0.715479 -0.190948
C68   C     C_R   0.336401 0.524262 0.332738 -0.313204
H1    H     H_    0.672847 0.800738 0.364721 0.100051
H2    H     H_    0.750471 0.634726 0.726206 0.080054
H3    H     H_    0.564823 0.691301 0.722448 0.165350
H4    H     H_    0.475642 0.757743 0.340110 -0.087323
H5    H     H_    0.518299 0.922356 0.322414 0.114919
H6    H     H_    0.401913 0.352659 0.383122 0.048227
H7    H     H_    0.599927 0.376767 0.355105 0.047539
H8    H     H_    0.364030 0.226214 0.298676 0.135346
H9    H     H_    0.362718 0.345193 0.282512 0.030215
H10   H     H_    0.494895 0.849377 0.255357 0.109554
H11   H     H_    0.118715 0.693749 0.209719 0.092615
H12   H     H_    0.232901 0.914107 0.629703 0.099429
H13   H     H_    0.939111 0.239864 0.671834 -0.066132
H14   H     H_    0.068602 0.089756 0.743797 0.111536
H15   H     H_    0.868600 0.132580 0.744791 0.084328
H16   H     H_    0.939845 0.065064 0.681115 0.094722
H17   H     H_    0.552932 0.249524 0.782182 0.062718
H18   H     H_    0.689092 0.244921 0.721663 -0.067815
H19   H     H_    0.571846 0.089990 0.741221 0.064766
H20   H     H_    0.018239 0.667418 0.307843 0.079801
H21   H     H_    0.376076 0.127608 0.724380 0.139229
H22   H     H_    0.791109 0.377714 0.079679 0.143974
H23   H     H_    0.845936 0.279157 0.344585 0.019636
H24   H     H_    0.460894 0.626396 0.026671 0.151104
H25   H     H_    0.499396 0.549855 0.201233 0.151316
H26   H     H_    0.769548 0.371990 0.793128 0.114347
H27   H     H_    0.016373 0.458998 0.249251 0.179658
H28   H     H_    0.372042 0.530028 0.377846 0.066553
H29   H     H_    0.221246 0.716971 0.310394 -0.067278
H30   H     H_    0.814492 0.495218 0.629152 0.045072
H31   H     H_    0.367901 0.694216 0.449831 0.069643
H32   H     H_    0.236348 0.971484 0.424128 0.058477
H33   H     H_    0.958224 0.021235 0.578113 0.102203
H34   H     H_    0.071358 0.111748 0.341080 0.057479
H35   H     H_    0.764804 0.893946 0.555448 0.137419
H36   H     H_    0.426660 0.096590 0.446868 0.097519
H37   H     H_    0.951970 0.767570 0.229277 0.154887
H38   H     H_    0.155877 0.815492 0.231834 0.127195
H39   H     H_    0.332030 0.728253 0.615162 -0.017855
H40   H     H_    0.408211 0.811229 0.718070 0.153198
H41   H     H_    0.490376 0.875203 0.660573 0.136844
H42   H     H_    0.390337 0.934668 0.720491 0.121478
H43   H     H_    0.973049 0.873725 0.675592 0.120283
H44   H     H_    0.077703 0.819631 0.731622 0.170215
H45   H     H_    0.979527 0.158730 0.405990 0.072883
H46   H     H_    0.104012 0.940902 0.725905 0.094347
H47   H     H_    0.930533 0.172379 0.191516 0.342181
H48   H     H_    0.898806 0.992931 0.398511 0.285852
H49   H     H_    0.748008 0.335865 0.207825 0.348187
H50   H     H_    0.013645 0.282932 0.777109 0.041739
H51   H     H_    0.210826 0.243683 0.762784 0.131843
H52   H     H_    0.141515 0.340575 0.726366 0.132176
H53   H     H_    0.490579 0.165517 0.624508 0.186833
H54   H     H_    0.672530 0.111868 0.644157 0.076238
H55   H     H_    0.486832 0.043935 0.637145 0.112101
H56   H     H_    0.809499 0.654102 0.624152 0.036020
H57   H     H_    0.429514 0.342644 0.998086 0.315707
H58   H     H_    0.663749 0.673192 0.899590 0.333115
H59   H     H_    0.285115 0.720386 0.776571 0.321452
H60   H     H_    0.802829 0.372495 0.568675 0.237190
H61   H     H_    0.232596 0.653645 0.527450 0.248720
H62   H     H_    0.607175 0.603987 0.630123 0.078200
H63   H     H_    0.692895 0.893269 0.277994 0.175528
H64   H     H_    0.752659 0.757317 0.716409 0.125164
N1    N     N_R   0.988086 0.486832 0.850539 -0.426142
N2    N     N_R   0.197569 0.505521 0.150515 -0.419018
O1    O     O_2   0.901900 0.448470 0.362340 -0.477021
O2    O     O_2   0.267947 0.169486 0.547911 -0.479664
O3    O     O_3   0.168340 0.183360 0.654066 -0.584386
O4    O     O_3   0.142240 0.449440 0.433360 -0.406755
O5    O     O_3   0.549340 0.612930 0.525560 -0.505260
O6    O     O_2   0.396530 0.270940 0.479440 -0.412869
O7    O     O_3   0.562415 0.244964 0.382385 -0.631400
O8    O     O_2   0.484174 0.482327 0.705882 -0.415666
O9    O     O_3   0.459707 0.301436 0.709982 -0.565317
O10   O     O_2   0.254663 0.507269 0.833865 -0.536266
O11   O     O_2   0.730833 0.464914 0.880192 -0.539244
O12   O     O_3   0.627150 0.742576 0.613311 -0.661504
O13   O     O_2   0.000701 0.393954 0.156793 -0.587019
O14   O     O_2   0.377739 0.619990 0.129547 -0.603593
O15   O     O_3   0.645560 0.619080 0.391970 -0.492321
O16   O     O_2   0.778693 0.546340 0.292837 -0.466801
O17   O     O_3   0.091180 0.298473 0.363144 -0.612427
O18   O     O_3   0.672674 0.713186 0.289246 -0.596346
O19   O     O_2   0.793170 0.729090 0.520590 -0.396289
O20   O     O_3   0.052800 0.667320 0.419180 -0.439110
O21   O     O_2   0.943281 0.834248 0.445955 -0.425059
O22   O     O_2   0.100987 0.280401 0.248004 -0.615785
O23   O     O_3   0.038638 0.806012 0.338661 -0.599464
O24   O     O_R   0.898415 0.173477 0.233919 -0.700228
O25   O     O_2   0.708215 0.108210 0.316275 -0.509539
O26   O     O_R   0.803159 0.003461 0.373213 -0.750783
O27   O     O_2   0.573701 0.203876 0.221761 -0.513267
O28   O     O_R   0.673452 0.351516 0.241782 -0.777973
O29   O     O_2   0.650249 0.314344 0.931914 -0.590671
O30   O     O_R   0.528965 0.378983 0.013318 -0.761251
O31   O     O_2   0.384379 0.668704 0.873873 -0.578255
O32   O     O_R   0.599666 0.635699 0.927355 -0.735876
O33   O     O_2   0.016062 0.680186 0.802985 -0.627901
O34   O     O_2   0.287790 0.551560 0.637690 -0.442794
O35   O     O_R   0.250936 0.660386 0.753489 -0.693741
O36   O     O_2   0.024798 0.300446 0.470081 -0.540903
O37   O     O_R   0.880681 0.384845 0.536699 -0.660370
O38   O     O_2   0.068039 0.841113 0.555005 -0.617488
O39   O     O_R   0.144303 0.698445 0.521222 -0.686856
O40   O     O_3   0.047460 0.550640 0.566640 -0.426205
O41   O     O_3   0.544140 0.380990 0.608030 -0.482125
O42   O     O_3   0.106714 0.699990 0.648973 -0.660710
O43   O     O_3   0.640350 0.387150 0.474440 -0.463549
O44   O     O_3   0.136890 0.332750 0.580830 -0.427037
P1    P     P_3+3 0.074990 0.420800 0.372080 1.074054
P2    P     P_3+3 0.618830 0.715330 0.538180 0.964535
P3    P     P_3+3 0.080029 0.785605 0.410438 1.033490
P4    P     P_3+3 0.114710 0.579280 0.627920 1.034453
P5    P     P_3+3 0.124921 0.210014 0.583520 1.004854
P6    P     P_3+3 0.636146 0.604870 0.315984 0.984949
P7    P     P_3+3 0.576110 0.270038 0.457432 0.954524
P8    P     P_3+3 0.572257 0.393362 0.683297 1.001961

loop_
_geom_bond_atom_site_label_1
_geom_bond_atom_site_label_2
_ccdc_geom_bond_type
C42   C47   A    
C6    C7    A    
O15   P6    S    
O3    P5    S    
C19   C24   D    
Ba1   O40   S    
C53   H42   S    
C12   H1    S    
C25   H25   S    
C40   H12   S    
C55   O22   D    
C58   O27   D    
C60   H54   S    
C4    O23   S    
O19   P2    D    
C5    C6    A    
C43   C44   A    
C33   P2    S    
O6    P7    D    
O18   P6    S    
O41   P8    S    
C27   P1    S    
C63   O35   S    
C23   H7    S    
C12   H4    S    
C64   O36   D    
C33   C35   A    
C22   C24   S    
C44   C64   S    
C62   O31   D    
C56   H14   S    
C36   C37   A    
C66   H18   S    
O1    P1    D    
C65   O38   D    
C13   C14   A    
C52   H64   S    
C16   H11   S    
C59   H51   S    
Ba1   Ba2   S    
Ba1   O19   S    
C7    C11   A    
C16   H37   S    
C24   N1    S    
C40   C54   S    
C66   C67   S    
C61   O30   S    
C49   O17   S    
C65   O39   S    
C14   C15   A    
C21   C31   D    
C46   C47   A    
C54   H43   S    
C64   O37   S    
C49   C55   S    
Ba2   O41   S    
C45   H13   S    
C1    H5    S    
H48   O26   S    
C28   C65   S    
Ba2   O40   S    
C19   C20   S    
C12   O18   S    
C59   H50   S    
C23   O7    S    
C32   C39   A    
Ba2   O44   S    
C67   H19   S    
C1    H10   S    
C56   H16   S    
C60   H53   S    
O20   P3    S    
C5    O11   D    
H60   O37   S    
C28   O42   S    
C4    C16   S    
C44   C46   A    
C28   H39   S    
C49   C50   S    
C66   H17   S    
O2    P5    D    
C32   C42   A    
O16   P6    D    
C8    C9    A    
C37   C38   A    
C30   N2    S    
Ba1   P1    S    
C43   P7    S    
O9    P8    S    
C52   H2    S    
C17   N2    Am   
C51   C52   S    
C51   O12   S    
C36   P3    S    
C60   C67   S    
C63   O33   D    
C59   H52   S    
C1    H63   S    
Ba1   O20   S    
C41   C42   A    
C5    N1    Am   
C35   C36   A    
C57   O25   D    
C50   C57   S    
C26   P6    S    
C40   C53   S    
C52   H3    S    
C47   H33   S    
O34   P4    D    
C29   C30   A    
C61   O29   D    
C21   C22   D    
O40   P4    S    
C10   C18   A    
C54   H46   S    
C58   O28   S    
C51   H56   S    
C51   H62   S    
Ba2   P4    S    
C18   N2    Am   
C41   C43   A    
Ba1   O4    S    
C22   C63   S    
Ba2   O34   S    
C9    H24   S    
O12   P2    S    
C38   C39   A    
C55   O24   S    
O17   P1    S    
C14   H22   S    
C6    C13   A    
C53   H40   S    
Ba2   O6    S    
Ba2   O43   S    
C15   C17   A    
C56   H15   S    
Ba1   O1    S    
C37   H32   S    
C48   H36   S    
C27   C68   A    
O8    P8    D    
C50   H45   S    
C3    N1    Am   
C20   C31   S    
C50   H34   S    
C13   C61   S    
C3    O10   D    
C53   H41   S    
C25   C30   A    
C32   H35   S    
O7    P7    S    
H59   O35   S    
C26   C68   A    
O5    P2    S    
C2    C3    A    
C34   C58   S    
C34   H9    S    
H49   O28   S    
C45   C59   S    
C60   H55   S    
Ba1   P2    S    
C41   C48   A    
C19   H26   S    
C1    C12   S    
C8    C62   S    
O4    P1    S    
C49   H23   S    
C11   C15   A    
C31   H30   S    
Ba2   O4    S    
C4    H29   S    
C23   H6    S    
C46   P5    S    
C27   C29   A    
C57   O26   S    
C4    H20   S    
C45   C56   S    
C35   H31   S    
Ba1   O43   S    
H57   O30   S    
C38   C48   A    
H61   O39   S    
C17   O13   D    
C18   O14   D    
Ba1   O15   S    
C29   H27   S    
C20   P8    S    
C33   C39   A    
C16   H38   S    
Ba1   O5    S    
O44   P5    S    
C23   C34   S    
C21   P4    S    
O43   P7    S    
C10   C11   A    
C62   O32   S    
C45   O3    S    
C25   C26   A    
H58   O32   S    
Ba2   O5    S    
C54   H44   S    
C28   C40   S    
C34   H8    S    
O21   P3    D    
O23   P3    S    
C2    C7    A    
C67   H21   S    
C2    C8    A    
O42   P4    S    
C66   O9    S    
C68   H28   S    
C9    C10   A    
H47   O24   S    
