data_mof_unit_20173.cif
_audit_creation_date              2012-12-10T17:05:21-0500
_audit_creation_method            fapswitch 2.2
_symmetry_space_group_name_H-M    P1
_symmetry_Int_Tables_number       1
_space_group_crystal_system       triclinic
_cell_length_a                    10.107481
_cell_length_b                    10.637409
_cell_length_c                    15.411407
_cell_angle_alpha                 91.602629
_cell_angle_beta                  67.631605
_cell_angle_gamma                 93.3855
_cell_volume                      1529.61453557

loop_
_atom_site_label
_atom_site_type_symbol
_atom_type_description
_atom_site_fract_x
_atom_site_fract_y
_atom_site_fract_z
_atom_type_partial_charge
C1    C     C_R   0.507271 0.737191 0.494786 0.930867
C2    C     C_R   0.449618 0.578397 0.900282 0.099566
C3    C     C_R   0.339358 0.662930 0.942058 0.154510
C4    C     C_R   0.556037 0.566333 0.938114 0.069163
C5    C     C_R   0.536121 0.622155 0.026253 0.060675
C6    C     C_R   0.436796 0.717259 0.059460 -0.207015
C7    C     C_R   0.337921 0.735651 0.019006 -0.239034
C8    C     C_R   0.683614 0.504193 0.889981 -0.208161
C9    C     C_R   0.781351 0.488407 0.931586 -0.215788
C10   C     C_R   0.746167 0.519301 0.025907 0.152206
C11   C     C_R   0.617889 0.580789 0.076738 0.036738
C12   C     C_R   0.410077 0.503790 0.676252 0.864135
C13   C     C_R   0.833333 0.481040 0.071042 -0.205727
C14   C     C_R   0.785034 0.484869 0.168102 -0.205304
C15   C     C_R   0.567775 0.582155 0.176444 -0.073723
C16   C     C_2   0.466507 0.064692 0.441064 -0.186919
C17   C     C_2   0.475891 0.130691 0.514052 -0.126673
C18   C     C_2   0.451081 0.929095 0.443002 -0.189622
C19   C     C_2   0.530924 0.868458 0.477381 -0.305416
C20   C     C_2   0.090799 0.411820 0.461549 -0.049780
C21   C     C_2   0.953007 0.428142 0.447059 -0.049486
C22   C     C_R   0.494154 0.262962 0.503541 0.887120
C23   C     C_R   0.590141 0.506822 0.323879 0.859910
C24   C     C_R   0.358878 0.535317 0.776656 -0.107994
C25   C     C_R   0.648695 0.526237 0.221513 -0.111729
C26   C     C_R   0.235527 0.677605 0.903919 -0.262791
C27   C     C_R   0.245844 0.616134 0.820402 -0.006694
C28   C     C_R   0.450319 0.509063 0.821743 -0.256891
H1    H     H_    0.260109 0.806770 0.048131 0.147586
H2    H     H_    0.934589 0.439570 0.031693 0.148375
H3    H     H_    0.476896 0.111637 0.376957 0.166218
H4    H     H_    0.374434 0.880414 0.418305 0.178105
H5    H     H_    0.617694 0.917249 0.492351 0.169092
H6    H     H_    0.109593 0.587060 0.505165 0.180391
H7    H     H_    0.850812 0.447399 0.201474 0.181266
H8    H     H_    0.879217 0.441919 0.892112 0.151371
H9    H     H_    0.150917 0.742143 0.936484 0.139957
H10   H     H_    0.527325 0.438464 0.790540 0.150342
H11   H     H_    0.437118 0.780945 0.115188 0.156085
H12   H     H_    0.712891 0.470212 0.819000 0.163819
N1    N     N_2   0.148330 0.498670 0.499030 -0.203423
N2    N     N_2   0.852680 0.498640 0.499000 -0.165175
O1    O     O_R   0.386950 0.680940 0.500010 -0.607131
O2    O     O_R   0.613110 0.680900 0.499990 -0.615292
O3    O     O_R   0.322330 0.500030 0.632270 -0.596919
O4    O     O_R   0.548480 0.499990 0.632240 -0.610760
O5    O     O_R   0.386890 0.319100 0.500010 -0.601635
O6    O     O_R   0.613050 0.319060 0.499990 -0.617685
O7    O     O_R   0.451520 0.500010 0.367760 -0.605043
O8    O     O_R   0.677670 0.499970 0.367730 -0.606390
Zn1   Zn    Zn3+2 0.349000 0.500030 0.500020 0.961319
Zn2   Zn    Zn3+2 0.651000 0.499970 0.499980 0.956144
C29   C     C_R   0.442107 0.079785 0.609635 0.106835
C30   C     C_R   0.540003 0.100543 0.654007 -0.182995
C31   C     C_R   0.507405 0.054761 0.744379 -0.136733
C32   C     C_R   0.376445 0.989304 0.791526 -0.099938
C33   C     C_R   0.277648 0.969821 0.748478 -0.150085
C34   C     C_R   0.310044 0.014747 0.657901 -0.111440
H13   H     H_    0.642055 0.150894 0.618340 0.145617
H14   H     H_    0.583600 0.070284 0.777948 0.132842
H15   H     H_    0.351220 0.954328 0.861603 0.131024
H16   H     H_    0.175535 0.920593 0.785567 0.139571
H17   H     H_    0.231992 0.999817 0.625669 0.140483
C35   C     C_R   0.161480 0.293032 0.426394 0.222013
C36   C     C_R   0.106826 0.182681 0.478746 -0.156272
C37   C     C_R   0.142655 0.064752 0.436646 -0.139864
C38   C     C_R   0.232603 0.056302 0.341995 -0.125062
C39   C     C_R   0.290134 0.165816 0.290076 -0.189035
C40   C     C_R   0.254385 0.283849 0.331927 -0.120366
H18   H     H_    0.031016 0.187931 0.550646 0.117274
H19   H     H_    0.098641 0.979880 0.476888 0.134966
H20   H     H_    0.258863 0.964964 0.309131 0.137788
H21   H     H_    0.359734 0.159192 0.216821 0.141445
H22   H     H_    0.291936 0.367486 0.289221 0.146142
C41   C     C_1   0.927240 0.354965 0.374096 0.260709
N3    N     N_1   0.907175 0.295121 0.316005 -0.232452
C42   C     C_1   0.853225 0.543391 0.584638 0.288520
N4    N     N_1   0.852737 0.581211 0.655852 -0.241529
C43   C     C_1   0.427679 0.627196 0.233221 0.160735
N5    N     N_1   0.316020 0.662591 0.278952 -0.228058
C44   C     C_1   0.145496 0.644911 0.778648 0.172625
N6    N     N_1   0.065003 0.668496 0.745310 -0.191518

loop_
_geom_bond_atom_site_label_1
_geom_bond_atom_site_label_2
_ccdc_geom_bond_type
C8    C9    A    
C22   O6    A    
C31   C32   A    
C7    H1    S    
C24   C27   A    
C4    C8    A    
C44   N6    T    
C33   H16   S    
C29   C30   A    
C16   H3    S    
C26   C27   A    
C5    C11   A    
C3    C7    A    
C5    C6    A    
C23   O7    A    
O3    Zn1   S    
C36   H18   S    
O4    Zn2   S    
C32   C33   A    
C38   H20   S    
C11   C15   A    
C1    O1    A    
C15   C43   S    
C39   C40   A    
O7    Zn1   S    
C9    H8    S    
O8    Zn2   S    
C9    C10   A    
O2    Zn2   S    
C37   C38   A    
C13   C14   A    
H6    N1    S    
C20   N1    D    
C30   H13   S    
C1    C19   S    
C38   C39   A    
C13   H2    S    
C27   C44   S    
C12   O4    A    
C19   H5    S    
C14   H7    S    
C18   C19   D    
C23   O8    A    
O5    Zn1   S    
C39   H21   S    
C42   N4    T    
C21   N2    D    
C20   C35   S    
C2    C4    A    
C41   N3    T    
C1    O2    A    
C37   H19   S    
C28   H10   S    
C40   H22   S    
C35   C40   A    
C18   H4    S    
C17   C29   S    
C34   H17   S    
C21   C41   S    
C30   C31   A    
C6    H11   S    
C3    C26   A    
C24   C28   A    
C4    C5    A    
C10   C13   A    
C29   C34   A    
C26   H9    S    
C6    C7    A    
C12   O3    A    
C12   C24   S    
C17   C22   S    
C35   C36   A    
C2    C3    A    
O1    Zn1   S    
C33   C34   A    
C16   C17   D    
C22   O5    A    
C23   C25   S    
C14   C25   A    
C15   C25   A    
C10   C11   A    
C43   N5    T    
O6    Zn2   S    
C20   C21   S    
N2    C42   S    
C16   C18   S    
C36   C37   A    
C32   H15   S    
C2    C28   A    
C8    H12   S    
C31   H14   S    
N1    Zn1   S    
N2    Zn2   S    
