data_mof_unit_50408.cif
_audit_creation_date              2012-12-10T16:49:30-0500
_audit_creation_method            fapswitch 2.2
_symmetry_space_group_name_H-M    P1
_symmetry_Int_Tables_number       1
_space_group_crystal_system       triclinic
_cell_length_a                    7.794092
_cell_length_b                    8.623898
_cell_length_c                    12.888542
_cell_angle_alpha                 89.438369
_cell_angle_beta                  89.203835
_cell_angle_gamma                 93.530531
_cell_volume                      864.532282083

loop_
_atom_site_label
_atom_site_type_symbol
_atom_type_description
_atom_site_fract_x
_atom_site_fract_y
_atom_site_fract_z
_atom_type_partial_charge
C1    C     C_R   0.454853 0.205707 0.497810 0.832701
C2    C     C_R   0.700815 0.546032 0.143170 -0.363296
C3    C     C_R   0.593164 0.472700 0.872195 0.533509
C4    C     C_R   0.405137 0.434898 0.131578 0.486261
C5    C     C_R   0.574316 0.495855 0.977310 -0.149099
C6    C     C_R   0.412712 0.455305 0.024405 -0.152687
C7    C     C_2   0.434679 0.043044 0.485836 0.193319
C8    C     C_2   0.561903 0.956487 0.520551 0.199244
C9    C     C_3   0.278577 0.215814 0.211228 0.161395
C10   C     C_3   0.242469 0.100322 0.123184 -0.374918
C11   C     C_3   0.259136 0.933091 0.159903 -0.894209
C12   C     C_R   0.544316 0.794203 0.504705 0.862041
C13   C     C_3   0.751477 0.270560 0.816947 0.086821
C14   C     C_3   0.708156 0.168892 0.914299 -0.481232
C15   C     C_3   0.749552 0.000312 0.896798 -0.829318
C16   C     C_R   0.466541 0.493901 0.699467 0.895691
C17   C     C_R   0.531677 0.494750 0.300726 0.898494
C18   C     C_R   0.547855 0.487776 0.190239 -0.253938
C19   C     C_R   0.446799 0.474004 0.810146 -0.268321
C20   C     C_R   0.265632 0.431590 0.962407 0.490691
C21   C     C_R   0.715982 0.549755 0.035853 0.511194
C22   C     C_R   0.283114 0.453492 0.855231 -0.368440
H1    H     H_    0.806845 0.591235 0.189859 0.208891
H2    H     H_    0.882808 0.245959 0.790057 0.172033
H3    H     H_    0.662562 0.234866 0.753571 0.170241
H4    H     H_    0.780824 0.214100 0.982122 0.248480
H5    H     H_    0.568802 0.170711 0.932823 0.207543
H6    H     H_    0.677374 0.951909 0.829509 0.268655
H7    H     H_    0.711915 0.929591 0.966881 0.271888
H8    H     H_    0.889581 0.992538 0.882323 0.269266
H9    H     H_    0.023567 0.370400 0.951485 0.361930
H10   H     H_    0.943220 0.657637 0.039355 0.348062
H11   H     H_    0.084117 0.703636 0.376530 0.357268
H12   H     H_    0.170033 0.447078 0.807090 0.224361
H13   H     H_    0.914682 0.283398 0.611942 0.352159
H14   H     H_    0.204985 0.053605 0.425977 0.351182
H15   H     H_    0.766221 0.935790 0.606363 0.352736
H16   H     H_    0.183263 0.188181 0.274313 0.175183
H17   H     H_    0.407906 0.200219 0.244335 0.094327
H18   H     H_    0.110127 0.111906 0.094315 0.258214
H19   H     H_    0.334918 0.125676 0.058117 0.207054
H20   H     H_    0.390763 0.917896 0.188803 0.272340
H21   H     H_    0.234547 0.852652 0.094248 0.264636
H22   H     H_    0.163935 0.902486 0.222853 0.278730
N1    N     N_2   0.054030 0.541640 0.471970 0.187818
N2    N     N_2   0.945970 0.458360 0.528030 0.184966
O1    O     O_R   0.609680 0.261530 0.506880 -0.589863
O2    O     O_3   0.752284 0.433622 0.834378 -0.583983
O3    O     O_3   0.106827 0.393658 0.007172 -0.718724
O4    O     O_3   0.860938 0.617396 0.986556 -0.715358
O5    O     O_3   0.984703 0.648328 0.412238 -0.648976
O6    O     O_3   0.014775 0.346335 0.583199 -0.661432
O7    O     O_3   0.296533 0.979403 0.430030 -0.796631
O8    O     O_3   0.696161 0.019311 0.579947 -0.805896
O9    O     O_R   0.390320 0.738470 0.493120 -0.575796
O10   O     O_R   0.323330 0.288220 0.488910 -0.609310
O11   O     O_R   0.676670 0.711780 0.511090 -0.594179
O12   O     O_R   0.619510 0.488830 0.661140 -0.602374
O13   O     O_R   0.380490 0.511170 0.338860 -0.596507
O14   O     O_R   0.333160 0.515520 0.643180 -0.586998
O15   O     O_R   0.666840 0.484480 0.356820 -0.586725
O16   O     O_3   0.255791 0.370697 0.178918 -0.569286
Zn1   Zn    Zn3+2 0.691200 0.482180 0.511990 1.067912
Zn2   Zn    Zn3+2 0.308800 0.517820 0.488010 1.070259

loop_
_geom_bond_atom_site_label_1
_geom_bond_atom_site_label_2
_ccdc_geom_bond_type
C13   O2    S    
O10   Zn2   S    
C3    C19   A    
C20   O3    S    
N2    O6    S    
C14   H5    S    
H11   O5    S    
C6    C20   A    
C9    C10   S    
N1    Zn2   S    
C1    O1    A    
C8    C12   S    
N2    Zn1   S    
O14   Zn2   S    
C4    C18   A    
O9    Zn2   S    
C2    C21   A    
C17   C18   S    
C15   H6    S    
C11   H22   S    
C16   O12   A    
N1    N2    D    
C14   H4    S    
C10   H19   S    
C11   H21   S    
H13   O6    S    
C13   H3    S    
O13   Zn2   S    
C17   O13   A    
C16   C19   S    
H15   O8    S    
C4    C6    A    
C9    H16   S    
C1    O10   A    
H9    O3    S    
C15   H7    S    
C1    C7    S    
O1    Zn1   S    
C5    C6    A    
C22   H12   S    
C12   O9    A    
C2    C18   A    
C10   C11   S    
C7    O7    S    
C9    O16   S    
C4    O16   S    
C3    O2    S    
C7    C8    D    
C19   C22   A    
C5    C21   A    
C13   H2    S    
C15   H8    S    
C10   H18   S    
C16   O14   A    
C8    O8    S    
C2    H1    S    
O15   Zn1   S    
N1    O5    S    
C14   C15   S    
C21   O4    S    
H14   O7    S    
C17   O15   A    
C13   C14   S    
C12   O11   A    
C9    H17   S    
H10   O4    S    
C11   H20   S    
O12   Zn1   S    
O11   Zn1   S    
C20   C22   A    
C3    C5    A    
