data_mof_unit_16957.cif
_audit_creation_date              2012-12-10T22:11:13-0500
_audit_creation_method            fapswitch 2.2
_symmetry_space_group_name_H-M    P1
_symmetry_Int_Tables_number       1
_space_group_crystal_system       triclinic
_cell_length_a                    12.135296
_cell_length_b                    12.313601
_cell_length_c                    22.944468
_cell_angle_alpha                 91.115984
_cell_angle_beta                  91.126134
_cell_angle_gamma                 91.002961
_cell_volume                      3426.71217658

loop_
_atom_site_label
_atom_site_type_symbol
_atom_type_description
_atom_site_fract_x
_atom_site_fract_y
_atom_site_fract_z
_atom_type_partial_charge
C1    C     C_R   0.659873 0.999004 0.578197 0.901638
C2    C     C_R   0.094162 0.816294 0.796602 -0.145029
C3    C     C_R   0.908805 0.264070 0.162321 -0.169667
C4    C     C_R   0.091248 0.735949 0.837708 -0.173028
C5    C     C_R   0.100188 0.914735 0.323913 -0.222913
C6    C     C_R   0.899748 0.085306 0.676183 -0.240464
C7    C     C_R   0.177498 0.911031 0.369150 0.456529
C8    C     C_R   0.822247 0.089239 0.631041 0.418957
C9    C     C_R   0.878936 0.100412 0.326490 -0.170535
C10   C     C_R   0.121135 0.899543 0.673538 -0.173597
C11   C     C_R   0.800439 0.097993 0.369103 -0.135663
C12   C     C_R   0.340114 0.001018 0.421818 0.908303
C13   C     C_R   0.199629 0.901971 0.630927 -0.137864
C14   C     C_3   0.989312 0.011691 0.247460 -0.070311
C15   C     C_3   0.010712 0.988263 0.752544 -0.072376
C16   C     C_R   0.654733 0.001761 0.421038 0.874719
C17   C     C_R   0.345270 0.998239 0.578964 0.876868
C18   C     C_R   0.088414 0.007745 0.289780 0.024074
C19   C     C_R   0.911616 0.992209 0.710224 0.045592
C20   C     C_R   0.251028 0.000665 0.378243 -0.176172
C21   C     C_R   0.748923 0.999436 0.621809 -0.160117
C22   C     C_R   0.892926 0.010050 0.288908 0.135921
C23   C     C_R   0.894964 0.808535 0.125709 -0.203923
C24   C     C_R   0.107090 0.989926 0.711097 0.141941
C25   C     C_R   0.737959 0.003308 0.376990 -0.033829
C26   C     C_R   0.262044 0.996687 0.623011 -0.029602
C27   C     C_R   0.994053 0.111352 0.209150 0.127347
C28   C     C_R   0.005965 0.888597 0.790841 0.125709
C29   C     C_R   0.999753 0.274150 0.126492 -0.024349
C30   C     C_R   0.000252 0.725816 0.873498 -0.024216
C31   C     C_R   0.985751 0.915955 0.203488 0.056969
C32   C     C_R   0.014259 0.083986 0.796531 0.059925
C33   C     C_R   0.990900 0.749841 0.118260 -0.068261
C34   C     C_R   0.105066 0.191487 0.874273 -0.205492
C35   C     C_R   0.009103 0.250131 0.881748 -0.066555
C36   C     C_R   0.993071 0.662300 0.075322 0.880449
C37   C     C_R   0.006929 0.337695 0.924679 0.878561
C38   C     C_R   0.999311 0.353675 0.081325 0.867396
C39   C     C_R   0.000690 0.646316 0.918672 0.865651
C40   C     C_R   0.157479 0.098497 0.302090 -0.171225
C41   C     C_R   0.842663 0.901423 0.697834 -0.175916
C42   C     C_R   0.239406 0.093652 0.344584 -0.227156
C43   C     C_R   0.760742 0.906309 0.655343 -0.228657
C44   C     C_R   0.833252 0.913281 0.299571 -0.115418
C45   C     C_R   0.083010 0.857495 0.193198 -0.204488
C46   C     C_R   0.166691 0.086725 0.700405 -0.119868
C47   C     C_R   0.755428 0.910563 0.342692 -0.149496
C48   C     C_R   0.244510 0.089455 0.657281 -0.150869
C49   C     C_R   0.086256 0.124624 0.173312 -0.160002
C50   C     C_R   0.913706 0.875261 0.826631 -0.159334
C51   C     C_R   0.089603 0.206020 0.132847 -0.187648
C52   C     C_R   0.910355 0.793874 0.867098 -0.188657
C53   C     C_R   0.891466 0.892522 0.166760 0.173101
C54   C     C_R   0.108568 0.107485 0.833229 0.173769
C55   C     C_R   0.916969 0.142375 0.806858 -0.214234
C56   C     C_R   0.085096 0.775246 0.151668 -0.175097
C57   C     C_R   0.914881 0.224645 0.848378 -0.182965
C58   C     C_R   0.905901 0.183722 0.203429 -0.143806
H1    H     H_    0.293084 0.164132 0.351593 0.186143
H2    H     H_    0.168802 0.823965 0.772166 0.168451
H3    H     H_    0.045170 0.845728 0.316135 0.197506
H4    H     H_    0.954839 0.154188 0.684019 0.168103
H5    H     H_    0.929918 0.172976 0.322962 0.150645
H6    H     H_    0.070201 0.826950 0.677084 0.147539
H7    H     H_    0.709222 0.835858 0.349213 0.167857
H8    H     H_    0.290660 0.164183 0.650737 0.166769
H9    H     H_    0.160555 0.213052 0.105144 0.164049
H10   H     H_    0.839362 0.786796 0.894769 0.163970
H11   H     H_    0.822626 0.790343 0.098602 0.184681
H12   H     H_    0.707211 0.835749 0.648244 0.184224
H13   H     H_    0.177425 0.209732 0.901354 0.184678
H14   H     H_    0.160971 0.731654 0.145716 0.171082
H15   H     H_    0.838982 0.268186 0.854351 0.170653
H16   H     H_    0.838929 0.317082 0.157825 0.161649
H17   H     H_    0.161157 0.682987 0.842236 0.161015
H18   H     H_    0.790198 0.169561 0.396529 0.196665
H19   H     H_    0.209921 0.830379 0.603525 0.193892
H20   H     H_    0.147790 0.174771 0.280263 0.161709
H21   H     H_    0.852469 0.825085 0.719585 0.159047
H22   H     H_    0.054943 0.665774 0.430594 0.392584
H23   H     H_    0.847834 0.838454 0.275793 0.148778
H24   H     H_    0.932987 0.325244 0.629207 0.353275
H25   H     H_    0.152054 0.161562 0.724164 0.143244
H26   H     H_    0.155291 0.070362 0.176139 0.150576
H27   H     H_    0.844635 0.929473 0.823771 0.150580
H28   H     H_    0.160067 0.876446 0.215828 0.161513
H29   H     H_    0.839894 0.123359 0.784259 0.161527
H30   H     H_    0.831292 0.176100 0.227894 0.168532
I1    I     I_    0.737924 0.974595 0.165862 -0.417506
I2    I     I_    0.262153 0.025491 0.834095 -0.419092
O1    O     O_R   0.621380 0.090460 0.561410 -0.546436
O2    O     O_R   0.912410 0.372520 0.941210 -0.622106
O3    O     O_R   0.905660 0.383870 0.059980 -0.617802
O4    O     O_R   0.094340 0.616130 0.940020 -0.617866
O5    O     O_R   0.092570 0.390420 0.063230 -0.627296
O6    O     O_R   0.907430 0.609580 0.936770 -0.628223
O7    O     O_R   0.900680 0.620930 0.055550 -0.626335
O8    O     O_R   0.099320 0.379070 0.944450 -0.626996
O9    O     O_2   0.264748 0.723043 0.402323 -0.288970
O10   O     O_2   0.177995 0.834337 0.478044 -0.307619
O11   O     O_3   0.051218 0.727887 0.403882 -0.566685
O12   O     O_R   0.378620 0.909540 0.438590 -0.546297
O13   O     O_2   0.822268 0.166776 0.522300 -0.268193
O14   O     O_2   0.733398 0.276778 0.597369 -0.302938
O15   O     O_3   0.947320 0.274238 0.596412 -0.534493
O16   O     O_R   0.617150 0.909540 0.438590 -0.628810
O17   O     O_R   0.382850 0.090460 0.561410 -0.628193
O18   O     O_R   0.619720 0.093230 0.440890 -0.606099
O19   O     O_R   0.380280 0.906770 0.559110 -0.606341
O20   O     O_R   0.618800 0.906770 0.559110 -0.636036
O21   O     O_R   0.381200 0.093230 0.440890 -0.634545
O22   O     O_R   0.087590 0.627480 0.058790 -0.621875
S1    S     S_3+6 0.170754 0.797064 0.415285 0.027824
S2    S     S_3+6 0.828500 0.203639 0.585123 0.040667
Zn1   Zn    Zn3+2 0.501730 0.123520 0.501540 1.068132
Zn2   Zn    Zn3+2 0.498270 0.876480 0.498460 1.063967
Zn3   Zn    Zn3+2 0.125690 0.504390 0.002180 0.975546
Zn4   Zn    Zn3+2 0.874310 0.495610 0.997820 0.975064

loop_
_geom_bond_atom_site_label_1
_geom_bond_atom_site_label_2
_ccdc_geom_bond_type
C1    C21   S    
O11   S1    S    
C14   C18   S    
C14   C31   S    
C49   C51   A    
C15   C32   S    
O5    Zn3   S    
C15   C19   S    
C6    C19   A    
C17   C26   S    
C49   H26   S    
O6    Zn4   S    
C35   C37   S    
C54   I2    S    
C11   H18   S    
C17   O17   A    
O22   Zn3   S    
O4    Zn3   S    
C2    H2    S    
C9    C22   A    
C11   C25   A    
C33   C36   S    
C34   C35   A    
H24   O15   S    
C57   H15   S    
O7    Zn4   S    
C3    C29   A    
C3    H16   S    
O2    Zn4   S    
C4    H17   S    
C18   C40   A    
O19   Zn2   S    
C21   C43   A    
C28   C50   A    
C22   C44   A    
C45   C56   A    
C8    S2    S    
C23   C33   A    
C38   O5    A    
C36   O22   A    
C50   C52   A    
C36   O7    A    
C14   C27   S    
C25   C47   A    
C32   C55   A    
C52   H10   S    
C44   C47   A    
C26   C48   A    
C33   C56   A    
C40   C42   A    
C1    O1    A    
C41   C43   A    
C32   C54   A    
C37   O8    A    
C23   C53   A    
C13   H19   S    
C46   C48   A    
O15   S2    S    
O13   S2    D    
C44   H23   S    
C5    C7    A    
C2    C28   A    
C6    C8    A    
C5    C18   A    
C10   C24   A    
C23   H11   S    
C10   C13   A    
O16   Zn2   S    
C29   C38   S    
C2    C4    A    
C39   O4    A    
C12   O12   A    
C1    O20   A    
C12   C20   S    
C8    C21   A    
C5    H3    S    
C51   H9    S    
C31   C53   A    
C9    C11   A    
O17   Zn1   S    
O14   S2    D    
C15   C24   S    
C34   C54   A    
C43   H12   S    
C55   C57   A    
C53   I1    S    
C14   C22   S    
C40   H20   S    
C13   C26   A    
O3    Zn4   S    
O20   Zn2   S    
O18   Zn1   S    
O8    Zn3   S    
C41   H21   S    
C29   C51   A    
C16   C25   S    
C30   C52   A    
C37   O2    A    
C56   H14   S    
C9    H5    S    
C10   H6    S    
O10   S1    D    
C27   C58   A    
C17   O19   A    
C42   H1    S    
O9    S1    D    
C20   C42   A    
C16   O16   A    
C50   H27   S    
H22   O11   S    
C35   C57   A    
C24   C46   A    
C7    S1    S    
C45   H28   S    
C6    H4    S    
C15   C28   S    
C38   O3    A    
O1    Zn1   S    
C30   C39   S    
C55   H29   S    
C39   O6    A    
O12   Zn2   S    
C16   O18   A    
C46   H25   S    
C3    C58   A    
C19   C41   A    
C7    C20   A    
C31   C45   A    
O21   Zn1   S    
C48   H8    S    
C58   H30   S    
C34   H13   S    
C47   H7    S    
C12   O21   A    
C4    C30   A    
C27   C49   A    
