data_mof_unit_6510.cif
_audit_creation_date              2012-12-11T17:40:20-0500
_audit_creation_method            fapswitch 2.2
_symmetry_space_group_name_H-M    P1
_symmetry_Int_Tables_number       1
_space_group_crystal_system       triclinic
_cell_length_a                    27.422722
_cell_length_b                    7.243175
_cell_length_c                    24.905928
_cell_angle_alpha                 90.0
_cell_angle_beta                  95.037746
_cell_angle_gamma                 90.000016
_cell_volume                      4927.89410932

loop_
_atom_site_label
_atom_site_type_symbol
_atom_type_description
_atom_site_fract_x
_atom_site_fract_y
_atom_site_fract_z
_atom_type_partial_charge
O1    O     O_R   0.698190 0.392130 0.199050 -0.535851
O2    O     O_R   0.301810 0.607870 0.800950 -0.534640
O3    O     O_R   0.801810 0.892130 0.300950 -0.535851
O4    O     O_R   0.198190 0.107870 0.699050 -0.534639
O5    O     O_R   0.796980 0.720470 0.196820 -0.538844
O6    O     O_R   0.203020 0.279530 0.803180 -0.539945
O7    O     O_R   0.703020 0.220470 0.303180 -0.538845
O8    O     O_R   0.296980 0.779530 0.696820 -0.539945
C1    C     C_R   0.812415 0.552805 0.184195 0.690980
C2    C     C_R   0.187202 0.447057 0.815442 0.692137
C3    C     C_R   0.687585 0.052805 0.315805 0.690980
C4    C     C_R   0.312798 0.947057 0.684558 0.692136
O9    O     O_R   0.698260 0.721750 0.192650 -0.538582
O10   O     O_R   0.301740 0.278250 0.807350 -0.539698
O11   O     O_R   0.801740 0.221750 0.307350 -0.538583
O12   O     O_R   0.198260 0.778250 0.692650 -0.539698
O13   O     O_R   0.702390 0.893450 0.296740 -0.536502
O14   O     O_R   0.297610 0.106550 0.703260 -0.536266
O15   O     O_R   0.797610 0.393450 0.203260 -0.536501
O16   O     O_R   0.202390 0.606550 0.796740 -0.536267
C5    C     C_R   0.681444 0.553214 0.178924 0.691467
C6    C     C_R   0.318584 0.446775 0.821043 0.691841
C7    C     C_R   0.818556 0.053214 0.321076 0.691467
C8    C     C_R   0.181416 0.946775 0.678957 0.691841
O17   O     O_3   0.751470 0.559080 0.284160 -0.375094
O18   O     O_3   0.248530 0.440920 0.715840 -0.374598
O19   O     O_3   0.748530 0.059080 0.215840 -0.375095
O20   O     O_3   0.251470 0.940920 0.784160 -0.374598
V1    V     V_3+5 0.749730 0.833390 0.243660 1.388742
V2    V     V_3+5 0.250270 0.166610 0.756340 1.389642
V3    V     V_3+5 0.750270 0.333390 0.256340 1.388742
V4    V     V_3+5 0.249730 0.666610 0.743660 1.389642
C9    C     C_R   0.086075 0.810820 0.564073 0.171344
C10   C     C_R   0.913676 0.189074 0.436187 0.171645
C11   C     C_R   0.413925 0.310820 0.935927 0.171344
C12   C     C_R   0.586324 0.689074 0.063812 0.171645
C13   C     C_R   0.125793 0.802403 0.604129 -0.201635
C14   C     C_R   0.874031 0.197518 0.396043 -0.201713
C15   C     C_R   0.374207 0.302402 0.895871 -0.201635
C16   C     C_R   0.625969 0.697518 0.103957 -0.201713
H1    H     H_    0.146549 0.675464 0.609467 0.128120
H2    H     H_    0.853275 0.324447 0.390670 0.127545
H3    H     H_    0.353451 0.175464 0.890533 0.128120
H4    H     H_    0.646725 0.824447 0.109329 0.127545
C17   C     C_R   0.139317 0.956487 0.636624 -0.075119
C18   C     C_R   0.860579 0.043473 0.363500 -0.075301
C19   C     C_R   0.360683 0.456487 0.863376 -0.075119
C20   C     C_R   0.639421 0.543473 0.136500 -0.075301
C21   C     C_R   0.111862 0.119902 0.628674 -0.169795
C22   C     C_R   0.888015 0.880039 0.371515 -0.170910
C23   C     C_R   0.388138 0.619902 0.871326 -0.169795
C24   C     C_R   0.611985 0.380039 0.128485 -0.170911
H5    H     H_    0.120754 0.240931 0.653125 0.131060
H6    H     H_    0.879167 0.759024 0.347042 0.131326
H7    H     H_    0.379246 0.740931 0.846875 0.131060
H8    H     H_    0.620833 0.259024 0.152958 0.131326
C25   C     C_R   0.071952 0.128871 0.589677 -0.185094
C26   C     C_R   0.927854 0.871043 0.410601 -0.184444
C27   C     C_R   0.428048 0.628871 0.910323 -0.185095
C28   C     C_R   0.572146 0.371043 0.089399 -0.184444
H9    H     H_    0.050969 0.255472 0.585187 0.117685
H10   H     H_    0.948832 0.744439 0.415131 0.118174
H11   H     H_    0.449031 0.755472 0.914813 0.117686
H12   H     H_    0.551168 0.244438 0.084869 0.118174
C29   C     C_R   0.058825 0.976378 0.556980 0.112860
C30   C     C_R   0.940925 0.023527 0.443324 0.112689
C31   C     C_R   0.441175 0.476378 0.943019 0.112860
C32   C     C_R   0.559075 0.523527 0.056676 0.112689
C33   C     C_1   0.017183 0.992862 0.516914 -0.054354
C34   C     C_1   0.982539 0.007083 0.483429 -0.054180
C35   C     C_1   0.482817 0.492862 0.983086 -0.054353
C36   C     C_1   0.517461 0.507083 0.016571 -0.054180
C37   C     C_R   0.376235 0.127015 0.639321 -0.178202
C38   C     C_R   0.643572 0.872893 0.382809 -0.176484
C39   C     C_R   0.123765 0.627015 0.860679 -0.178201
C40   C     C_R   0.856428 0.372894 0.117191 -0.176483
H13   H     H_    0.367136 0.246903 0.662458 0.123534
H14   H     H_    0.667088 0.756526 0.375915 0.129583
H15   H     H_    0.132864 0.746903 0.837543 0.123534
H16   H     H_    0.832912 0.256527 0.124085 0.129584
C41   C     C_R   0.413566 0.142039 0.604098 0.146331
C42   C     C_R   0.607046 0.851849 0.418771 0.148758
C43   C     C_R   0.086434 0.642038 0.895902 0.146333
C44   C     C_R   0.892954 0.351850 0.081229 0.148759
C45   C     C_R   0.425983 0.985360 0.573963 0.020201
C46   C     C_R   0.575952 0.003948 0.428493 -0.007372
C47   C     C_R   0.074017 0.485359 0.926037 0.020203
C48   C     C_R   0.924049 0.503949 0.071507 -0.007372
C49   C     C_R   0.401385 0.818164 0.580949 -0.176250
C50   C     C_R   0.582751 0.170152 0.400547 -0.169250
C51   C     C_R   0.098615 0.318162 0.919051 -0.176250
C52   C     C_R   0.917249 0.670153 0.099454 -0.169249
H17   H     H_    0.410219 0.697666 0.558008 0.128173
H18   H     H_    0.559530 0.288048 0.406258 0.139765
H19   H     H_    0.089780 0.197665 0.941992 0.128171
H20   H     H_    0.940471 0.788047 0.093743 0.139764
C53   C     C_R   0.364776 0.804731 0.616582 -0.168540
C54   C     C_R   0.619259 0.188093 0.364886 -0.169674
C55   C     C_R   0.135224 0.304730 0.883418 -0.168539
C56   C     C_R   0.880741 0.688093 0.135114 -0.169672
H21   H     H_    0.346585 0.673397 0.620609 0.127584
H22   H     H_    0.622785 0.317674 0.343890 0.121277
H23   H     H_    0.153415 0.173396 0.879391 0.127584
H24   H     H_    0.877215 0.817673 0.156110 0.121277
C57   C     C_R   0.351560 0.959169 0.646149 -0.072837
C58   C     C_R   0.650016 0.039433 0.355437 -0.072305
C59   C     C_R   0.148440 0.459169 0.853851 -0.072838
C60   C     C_R   0.849984 0.539433 0.144563 -0.072308
N1    N     N_R   0.502286 0.867841 0.541089 -0.292934
N2    N     N_R   0.498570 0.119254 0.461472 -0.290692
N3    N     N_R   0.997712 0.367851 0.958908 -0.292934
N4    N     N_R   0.001433 0.619245 0.038531 -0.290691
N5    N     N_R   0.537436 0.872324 0.507377 -0.296934
N6    N     N_R   0.463529 0.115991 0.495398 -0.290843
N7    N     N_R   0.962562 0.372335 0.992620 -0.296933
N8    N     N_R   0.036474 0.615981 0.004605 -0.290843
C61   C     C_R   0.536337 0.996774 0.466447 0.510058
C62   C     C_R   0.464718 0.990213 0.535926 0.514808
C63   C     C_R   0.963663 0.496774 0.033553 0.510054
C64   C     C_R   0.035282 0.490213 0.964074 0.514806
C65   C     C_3   0.073229 0.641410 0.530162 -0.387118
C66   C     C_3   0.089630 0.661411 0.473452 -0.729429
H25   H     H_    0.070676 0.778480 0.451792 0.229741
H26   H     H_    0.129808 0.684258 0.475452 0.230417
H27   H     H_    0.080726 0.533013 0.450269 0.216201
H28   H     H_    0.091458 0.517339 0.548873 0.178662
H29   H     H_    0.033147 0.615670 0.528007 0.179547
C67   C     C_3   0.926446 0.358440 0.470146 -0.384259
C68   C     C_3   0.909930 0.338300 0.526802 -0.736919
H30   H     H_    0.869749 0.315423 0.524702 0.229006
H31   H     H_    0.928851 0.221194 0.548480 0.229803
H32   H     H_    0.918785 0.466653 0.550026 0.215772
H33   H     H_    0.966529 0.384223 0.472402 0.179930
H34   H     H_    0.908242 0.482528 0.451414 0.177988
C69   C     C_3   0.426771 0.141409 0.969838 -0.387118
C70   C     C_3   0.410370 0.161410 0.026548 -0.729432
H35   H     H_    0.429323 0.278479 0.048208 0.229741
H36   H     H_    0.370192 0.184256 0.024547 0.230418
H37   H     H_    0.419274 0.033013 0.049731 0.216202
H38   H     H_    0.408542 0.017339 0.951126 0.178663
H39   H     H_    0.466853 0.115670 0.971993 0.179547
C71   C     C_3   0.573554 0.858440 0.029854 -0.384259
C72   C     C_3   0.590070 0.838300 0.973198 -0.736923
H40   H     H_    0.630251 0.815426 0.975298 0.229007
H41   H     H_    0.571150 0.721194 0.951521 0.229804
H42   H     H_    0.581215 0.966652 0.949974 0.215772
H43   H     H_    0.533471 0.884222 0.027598 0.179930
H44   H     H_    0.591758 0.982528 0.048586 0.177989
C73   C     C_3   0.440155 0.324690 0.601230 -0.382348
C74   C     C_3   0.492093 0.314722 0.628734 -0.702882
H45   H     H_    0.491213 0.270608 0.671359 0.220479
H46   H     H_    0.514942 0.216741 0.607655 0.234376
H47   H     H_    0.509328 0.453358 0.628067 0.230140
H48   H     H_    0.440928 0.369862 0.558789 0.208569
H49   H     H_    0.420449 0.434321 0.621808 0.173891
C75   C     C_3   0.601668 0.661956 0.442871 -0.361702
C76   C     C_3   0.634625 0.639459 0.495121 -0.685925
H50   H     H_    0.673676 0.650710 0.486878 0.210589
H51   H     H_    0.626683 0.746620 0.524962 0.245252
H52   H     H_    0.628558 0.501263 0.512657 0.219717
H53   H     H_    0.563040 0.629494 0.448883 0.204341
H54   H     H_    0.612511 0.556020 0.414037 0.163721
C77   C     C_3   0.059846 0.824689 0.898771 -0.382353
C78   C     C_3   0.007908 0.814723 0.871266 -0.702885
H55   H     H_    0.008787 0.770610 0.828641 0.220481
H56   H     H_    0.985058 0.716741 0.892345 0.234378
H57   H     H_    0.990673 0.953359 0.871933 0.230140
H58   H     H_    0.059072 0.869858 0.941212 0.208568
H59   H     H_    0.079551 0.934321 0.878193 0.173893
C79   C     C_3   0.898333 0.161957 0.057130 -0.361703
C80   C     C_3   0.865374 0.139454 0.004881 -0.685925
H60   H     H_    0.826323 0.150702 0.013126 0.210589
H61   H     H_    0.873315 0.246614 0.975039 0.245252
H62   H     H_    0.871441 0.001256 0.987346 0.219716
H63   H     H_    0.936961 0.129499 0.051116 0.204339
H64   H     H_    0.887492 0.056020 0.085965 0.163721

loop_
_geom_bond_atom_site_label_1
_geom_bond_atom_site_label_2
_ccdc_geom_bond_type
C26   H10   S    
C72   H42   S    
C43   C47   A    
C80   H60   S    
C21   H5    S    
O1    C5    A    
C76   H50   S    
C47   C51   A    
O19   V1    S    
O13   V1    S    
O3    C7    A    
C77   C78   S    
C52   H20   S    
O4    V2    S    
O15   V3    S    
C67   C68   S    
C10   C30   A    
C9    C29   A    
C69   C70   S    
C79   H64   S    
C1    C60   S    
O7    C3    A    
C80   H61   S    
C22   H6    S    
C8    C17   S    
O9    V1    S    
C78   H55   S    
O10   V2    S    
C65   H29   S    
C44   C79   S    
C4    C57   S    
O4    C8    A    
C41   C73   S    
C32   C36   S    
C79   C80   S    
C72   H40   S    
O1    V3    S    
C21   C25   A    
O2    V4    S    
O3    V1    S    
C12   C71   S    
C24   C28   A    
C27   C31   A    
C1    O15   A    
C56   H24   S    
C48   C52   A    
C2    O16   A    
C74   H47   S    
O2    C6    A    
O14   V2    S    
C17   C21   A    
N2    N6    A    
C31   C35   S    
N1    N5    A    
C68   H32   S    
C42   C75   S    
O11   C7    A    
C6    C19   S    
C75   H54   S    
O12   C8    A    
C7    C18   S    
C9    C65   S    
C40   C44   A    
C2    C59   S    
C33   C34   T    
C38   C42   A    
C70   H37   S    
C71   H43   S    
N2    C61   A    
C37   C41   A    
C26   C30   A    
N1    C62   A    
C50   H18   S    
O5    V1    S    
C79   H63   S    
C69   H38   S    
C80   H62   S    
C56   C60   A    
O7    V3    S    
C69   H39   S    
C22   C26   A    
C39   C43   A    
C71   H44   S    
C39   C59   A    
C12   C16   A    
C70   H36   S    
C55   H23   S    
C46   C50   A    
C11   C69   S    
C45   C49   A    
O18   V4    S    
C19   C23   A    
C54   H22   S    
C49   H17   S    
C9    C13   A    
N8    C64   A    
C49   C53   A    
N3    C64   A    
O8    V4    S    
C76   H51   S    
C11   C15   A    
C73   H48   S    
O5    C1    A    
C67   H34   S    
C38   C58   A    
C37   C57   A    
C20   C24   A    
O8    C4    A    
C3    C58   S    
C47   C64   S    
O9    C5    A    
C48   C63   S    
O11   V3    S    
C65   C66   S    
N6    C62   A    
N5    C61   A    
C10   C67   S    
O6    V2    S    
C75   H53   S    
C76   H52   S    
N7    C63   A    
C74   H46   S    
C23   C27   A    
C13   C17   A    
N4    N8    A    
C52   C56   A    
C15   C19   A    
C68   H30   S    
O16   V4    S    
C72   H41   S    
C43   C77   S    
C16   C20   A    
C3    O13   A    
C10   C14   A    
O17   V3    S    
C78   H57   S    
C40   H16   S    
C25   C29   A    
C70   H35   S    
O6    C2    A    
N4    C63   A    
C15   H3    S    
C12   C32   A    
C25   H9    S    
O12   V4    S    
C55   C59   A    
C18   C22   A    
C27   H11   S    
C54   C58   A    
C28   H12   S    
C35   C36   T    
C5    C20   S    
C66   H27   S    
C78   H56   S    
C77   H58   S    
C73   H49   S    
C53   C57   A    
C65   H28   S    
C42   C46   A    
C73   C74   S    
O10   C6    A    
C30   C34   S    
C44   C48   A    
C39   H15   S    
C29   C33   S    
O20   V2    S    
C46   C61   S    
C23   H7    S    
C13   H1    S    
C45   C62   S    
C77   H59   S    
C53   H21   S    
C14   C18   A    
C11   C31   A    
C51   H19   S    
C14   H2    S    
C16   H4    S    
C75   C76   S    
C28   C32   A    
C40   C60   A    
C38   H14   S    
C4    O14   A    
C37   H13   S    
C71   C72   S    
N3    N7    A    
C51   C55   A    
C66   H25   S    
C67   H33   S    
C66   H26   S    
C50   C54   A    
C41   C45   A    
C24   H8    S    
C74   H45   S    
C68   H31   S    
