data_mof_unit_64278.cif
_audit_creation_date              2012-10-26T17:39:35-0400
_audit_creation_method            fapswitch 2.2
_symmetry_space_group_name_H-M    P1
_symmetry_Int_Tables_number       1
_space_group_crystal_system       triclinic
_cell_length_a                    44.157909
_cell_length_b                    30.393248
_cell_length_c                    31.944683
_cell_angle_alpha                 90.000989
_cell_angle_beta                  136.475701
_cell_angle_gamma                 89.999868
_cell_volume                      29525.0340081

loop_
_atom_site_label
_atom_site_type_symbol
_atom_type_description
_atom_site_fract_x
_atom_site_fract_y
_atom_site_fract_z
_atom_type_partial_charge
C1    C     C_R   0.585115 0.999949 0.085370 0.548930
C2    C     C_3   0.542012 0.002027 0.806166 -0.086341
C3    C     C_R   0.017515 0.297470 0.483561 -0.111281
C4    C     C_R   0.482571 0.843481 0.517228 -0.004095
C5    C     C_R   0.517426 0.843480 0.482769 -0.004096
C6    C     C_R   0.982578 0.343482 0.517237 -0.004094
C7    C     C_R   0.017421 0.343481 0.482762 -0.004093
C8    C     C_R   0.499999 0.866773 0.499999 0.050595
C9    C     C_R   0.999999 0.366774 0.499999 0.050601
C10   C     C_R   0.499998 0.774321 0.499999 0.000813
C11   C     C_R   1.000000 0.274321 0.500000 0.000821
C12   C     C_R   0.989630 0.202481 0.452965 -0.122250
C13   C     C_3   0.957991 0.502074 0.193838 -0.086341
C14   C     C_R   0.010370 0.202483 0.547037 -0.122257
C15   C     C_R   0.489626 0.702481 0.452961 -0.122265
C16   C     C_R   0.510369 0.702483 0.547036 -0.122260
C17   C     C_R   0.989854 0.156671 0.453133 -0.132737
C18   C     C_R   0.010147 0.156672 0.546869 -0.132769
C19   C     C_R   0.489850 0.656670 0.453129 -0.132793
C20   C     C_R   0.510146 0.656672 0.546868 -0.132780
C21   C     C_R   0.000000 0.133436 0.500001 0.017933
C22   C     C_R   0.499999 0.633436 0.499999 0.017914
C23   C     C_3   0.522534 0.034576 0.258617 -0.105864
C24   C     C_3   0.042011 0.502063 0.806165 -0.086338
C25   C     C_3   0.477473 0.034577 0.741391 -0.105866
C26   C     C_3   0.022566 0.534554 0.258649 -0.105865
C27   C     C_3   0.977445 0.534557 0.741363 -0.105863
C28   C     C_R   0.000000 0.225794 0.500001 0.033162
C29   C     C_R   0.499997 0.725794 0.499998 0.033165
C30   C     C_R   0.462498 0.202487 0.449548 -0.121728
C31   C     C_R   0.537505 0.202488 0.550452 -0.121726
C32   C     C_R   0.962497 0.702487 0.449548 -0.121720
C33   C     C_R   0.037506 0.702488 0.550450 -0.121725
C34   C     C_R   0.462362 0.156622 0.449734 -0.129757
C35   C     C_3   0.480898 0.036870 0.244836 -0.111649
C36   C     C_R   0.537640 0.156623 0.550266 -0.129758
C37   C     C_R   0.962361 0.656622 0.449735 -0.129756
C38   C     C_R   0.037641 0.656624 0.550264 -0.129756
C39   C     C_R   0.500001 0.133337 0.500000 0.017452
C40   C     C_R   0.000001 0.633337 0.500000 0.017450
C41   C     C_R   0.500002 0.225675 0.500000 0.030621
C42   C     C_R   0.000002 0.725675 0.499999 0.030620
C43   C     C_R   0.013384 0.797232 0.549161 -0.121461
C44   C     C_R   0.986618 0.797231 0.450838 -0.121461
C45   C     C_R   0.513382 0.297232 0.549160 -0.121473
C46   C     C_3   0.519109 0.036865 0.755173 -0.111651
C47   C     C_R   0.486622 0.297231 0.450841 -0.121472
C48   C     C_R   0.013044 0.843096 0.548947 -0.127444
C49   C     C_R   0.986958 0.843095 0.451052 -0.127404
C50   C     C_R   0.513041 0.343096 0.548945 -0.127468
C51   C     C_R   0.486962 0.343095 0.451055 -0.127488
C52   C     C_R   0.000001 0.866371 0.499999 0.017713
C53   C     C_R   0.500001 0.366371 0.500000 0.017694
C54   C     C_R   0.000001 0.774044 0.499999 0.030010
C55   C     C_R   0.500002 0.274043 0.500000 0.030015
C56   C     C_1   0.499871 0.999920 0.124987 -0.030032
C57   C     C_3   0.980932 0.536887 0.244870 -0.111646
C58   C     C_1   0.500129 0.999918 0.875013 -0.030033
C59   C     C_1   0.999871 0.499920 0.124987 -0.030034
C60   C     C_1   0.000130 0.499918 0.875014 -0.030033
C61   C     C_1   0.499830 0.999965 0.374752 -0.037501
C62   C     C_1   0.500170 0.999964 0.625248 -0.037504
C63   C     C_1   0.999831 0.499965 0.374752 -0.037498
C64   C     C_1   0.000170 0.499964 0.625248 -0.037498
C65   C     C_3   0.518686 0.962370 0.254652 -0.088055
C66   C     C_3   0.481308 0.962370 0.745340 -0.088054
C67   C     C_3   0.018651 0.462351 0.254617 -0.088055
C68   C     C_3   0.019079 0.536880 0.755143 -0.111645
C69   C     C_3   0.981341 0.462354 0.745373 -0.088060
C70   C     C_3   0.499730 0.999670 0.208473 0.041907
C71   C     C_3   0.500270 0.999667 0.791527 0.041908
C72   C     C_3   0.999730 0.499669 0.208473 0.041907
C73   C     C_3   0.000272 0.499667 0.791528 0.041906
C74   C     C_3   0.477221 0.965156 0.240846 0.051599
C75   C     C_3   0.522774 0.965150 0.759147 0.051601
C76   C     C_3   0.977189 0.465177 0.240815 0.051596
C77   C     C_3   0.022804 0.465170 0.759177 0.051596
C78   C     C_3   0.725587 0.914702 0.222524 -0.278275
C79   C     C_1   0.499804 0.999817 0.162660 -0.063139
C80   C     C_3   0.722749 0.895239 0.175714 -0.437980
C81   C     C_3   0.274400 0.914726 0.777688 -0.278270
C82   C     C_3   0.277199 0.895424 0.824523 -0.437962
C83   C     C_3   0.225612 0.414762 0.222096 -0.278265
C84   C     C_3   0.222870 0.395634 0.175245 -0.437935
C85   C     C_3   0.774390 0.414746 0.777799 -0.278266
C86   C     C_3   0.777153 0.395542 0.824639 -0.437943
C87   C     C_3   0.859648 0.027770 0.259706 -0.110945
C88   C     C_3   0.140318 0.028401 0.740081 -0.110975
C89   C     C_3   0.359772 0.529185 0.260264 -0.110969
C90   C     C_1   0.500196 0.999814 0.837340 -0.063139
C91   C     C_3   0.640244 0.528894 0.739838 -0.110963
C92   C     C_3   0.465236 0.866470 0.538628 -0.279579
C93   C     C_3   0.502818 0.881800 0.604399 -0.435661
C94   C     C_3   0.534760 0.866467 0.461367 -0.279581
C95   C     C_3   0.497176 0.881794 0.395596 -0.435662
C96   C     C_3   0.965249 0.366470 0.538647 -0.279584
C97   C     C_3   0.002837 0.381797 0.604418 -0.435666
C98   C     C_3   0.034749 0.366468 0.461351 -0.279584
C99   C     C_3   0.997161 0.381794 0.395581 -0.435664
C100  C     C_3   0.451576 0.925697 0.231881 -0.279741
C101  C     C_1   0.999804 0.499816 0.162659 -0.063139
C102  C     C_3   0.432652 0.898035 0.177397 -0.443417
C103  C     C_3   0.548411 0.925688 0.768103 -0.279743
C104  C     C_3   0.567330 0.898022 0.822581 -0.443417
C105  C     C_3   0.951507 0.425742 0.231815 -0.279736
C106  C     C_3   0.932561 0.398095 0.177308 -0.443418
C107  C     C_3   0.048475 0.425729 0.768166 -0.279739
C108  C     C_3   0.067423 0.398084 0.822673 -0.443418
C109  C     C_R   0.414886 0.999948 0.914631 0.548928
C110  C     C_1   0.000197 0.499814 0.837342 -0.063138
C111  C     C_1   0.499799 0.999827 0.336993 -0.070151
C112  C     C_1   0.500202 0.999826 0.663007 -0.070153
C113  C     C_1   0.999799 0.499827 0.336993 -0.070151
C114  C     C_1   0.000202 0.499826 0.663008 -0.070150
C115  C     C_R   0.702753 0.038770 0.208619 -0.137933
C116  C     C_R   0.297252 0.038765 0.791302 -0.137934
C117  C     C_R   0.202743 0.538768 0.208773 -0.137934
C118  C     C_R   0.797256 0.538767 0.791265 -0.137934
C119  C     C_R   0.657008 0.039193 0.161920 -0.140523
C120  C     C_R   0.085114 0.499949 0.085366 0.548927
C121  C     C_R   0.342998 0.039186 0.838001 -0.140518
C122  C     C_R   0.156997 0.539185 0.162075 -0.140510
C123  C     C_R   0.843001 0.539185 0.837964 -0.140513
C124  C     C_R   0.633499 0.999708 0.134577 -0.001315
C125  C     C_R   0.366501 0.999708 0.865428 -0.001304
C126  C     C_R   0.133498 0.499713 0.134565 -0.001290
C127  C     C_R   0.866501 0.499710 0.865431 -0.001296
C128  C     C_R   0.656506 0.959738 0.154963 -0.115918
C129  C     C_R   0.343490 0.959747 0.845132 -0.115933
C130  C     C_R   0.156513 0.459762 0.154772 -0.115956
C131  C     C_R   0.914886 0.499949 0.914633 0.548928
C132  C     C_R   0.843487 0.459754 0.845180 -0.115948
C133  C     C_R   0.702565 0.958839 0.201734 0.028904
C134  C     C_R   0.297431 0.958851 0.798362 0.028919
C135  C     C_R   0.202572 0.458873 0.201540 0.028938
C136  C     C_R   0.797428 0.458862 0.798411 0.028932
C137  C     C_R   0.499948 0.999964 0.080134 0.556299
C138  C     C_R   0.500052 0.999964 0.919866 0.556303
C139  C     C_R   0.999948 0.499964 0.080134 0.556297
C140  C     C_R   0.000052 0.499964 0.919866 0.556296
C141  C     C_R   0.725730 0.998995 0.228517 0.036808
C142  C     C_3   0.499755 0.999658 0.291044 0.048107
C143  C     C_R   0.274271 0.998999 0.771488 0.036807
C144  C     C_R   0.225727 0.499014 0.228503 0.036806
C145  C     C_R   0.774273 0.499007 0.771492 0.036805
C146  C     C_R   0.795681 0.995343 0.259367 -0.101185
C147  C     C_R   0.204325 0.995563 0.740663 -0.101148
C148  C     C_R   0.295670 0.495833 0.259307 -0.101094
C149  C     C_R   0.704328 0.495727 0.740681 -0.101105
C150  C     C_R   0.841682 0.996188 0.303810 0.267402
C151  C     C_R   0.158324 0.996416 0.696217 0.267422
C152  C     C_R   0.341670 0.496691 0.303758 0.267428
C153  C     C_3   0.500246 0.999656 0.708957 0.048108
C154  C     C_R   0.658328 0.496584 0.696232 0.267423
C155  C     C_R   0.866039 0.000637 0.365783 0.020539
C156  C     C_R   0.133964 0.000652 0.634220 0.020480
C157  C     C_R   0.366034 0.500674 0.365783 0.020385
C158  C     C_R   0.633965 0.500665 0.634218 0.020408
C159  C     C_R   0.843467 0.006192 0.381249 -0.182996
C160  C     C_R   0.156535 0.005999 0.618726 -0.182999
C161  C     C_R   0.343461 0.505772 0.381307 -0.182994
C162  C     C_R   0.656537 0.505861 0.618705 -0.182992
C163  C     C_R   0.797688 0.006430 0.336399 -0.150291
C164  C     C_3   0.999755 0.499658 0.291044 0.048107
C165  C     C_R   0.202314 0.006233 0.663572 -0.150324
C166  C     C_R   0.297682 0.506003 0.336461 -0.150361
C167  C     C_R   0.702316 0.506092 0.663551 -0.150345
C168  C     C_R   0.773814 0.000532 0.275566 -0.023758
C169  C     C_R   0.226189 0.000542 0.724434 -0.023761
C170  C     C_R   0.273807 0.500564 0.275565 -0.023776
C171  C     C_R   0.726191 0.500554 0.724434 -0.023776
C172  C     C_R   0.500000 0.914961 0.500000 0.544639
C173  C     C_R   1.000000 0.414961 0.500000 0.544637
C174  C     C_R   0.499918 0.000044 0.419748 0.550448
C175  C     C_3   0.000247 0.499657 0.708958 0.048107
C176  C     C_R   0.500082 0.000044 0.580252 0.550449
C177  C     C_R   0.999918 0.500044 0.419748 0.550446
C178  C     C_R   0.000082 0.500044 0.580252 0.550448
C179  C     C_R   0.500000 0.084990 0.500000 0.550932
C180  C     C_R   0.000000 0.584990 0.500000 0.550931
C181  C     C_3   0.541377 0.997343 0.305442 -0.113697
C182  C     C_3   0.458623 0.997347 0.694558 -0.113698
C183  C     C_3   0.041375 0.497304 0.305440 -0.113699
C184  C     C_3   0.958626 0.497312 0.694561 -0.113699
C185  C     C_R   0.000000 0.085173 0.500000 0.541581
C186  C     C_3   0.457989 0.002036 0.193835 -0.086340
C187  C     C_R   0.500000 0.585174 0.500000 0.541530
C188  C     C_R   0.914605 0.000059 0.414495 0.566685
C189  C     C_R   0.085395 0.000066 0.585507 0.566567
C190  C     C_R   0.414604 0.500077 0.414493 0.566422
C191  C     C_R   0.585396 0.500073 0.585506 0.566466
C192  C     C_R   0.000000 0.914702 0.500000 0.553940
C193  C     C_R   0.500000 0.414702 0.500000 0.553783
C194  C     C_R   0.482478 0.797470 0.516431 -0.111288
C195  C     C_R   0.517518 0.797469 0.483567 -0.111286
C196  C     C_R   0.982484 0.297471 0.516439 -0.111278
Cu1   Cu    Cu3+1 0.500000 0.955920 0.000000 0.917550
Cu2   Cu    Cu3+1 0.000030 0.999960 0.458590 0.939574
Cu3   Cu    Cu3+1 0.499970 0.499960 0.541410 0.939718
Cu4   Cu    Cu3+1 0.500030 0.499960 0.458590 0.939802
Cu5   Cu    Cu3+1 0.000000 0.455920 0.000000 0.917565
Cu6   Cu    Cu3+1 0.500000 0.044010 0.000000 0.925512
Cu7   Cu    Cu3+1 1.000000 0.544010 0.000000 0.925503
Cu8   Cu    Cu3+1 0.544020 0.999870 0.544020 0.913016
Cu9   Cu    Cu3+1 0.455980 0.999870 0.455980 0.913017
Cu10  Cu    Cu3+1 0.044020 0.499870 0.544020 0.913032
Cu11  Cu    Cu3+1 0.955980 0.499870 0.455980 0.913034
Cu12  Cu    Cu3+1 0.999970 0.999960 0.541410 0.939747
H1    H     H_    0.541273 0.063288 0.265441 0.109940
H2    H     H_    0.138811 0.009934 0.571799 0.138570
H3    H     H_    0.325292 0.536104 0.216142 0.097963
H4    H     H_    0.379415 0.524937 0.250975 0.138439
H5    H     H_    0.626285 0.557544 0.708615 0.114566
H6    H     H_    0.674727 0.535770 0.783981 0.097944
H7    H     H_    0.620601 0.524564 0.749117 0.138432
H8    H     H_    0.522525 0.853131 0.634793 0.145515
H9    H     H_    0.524639 0.905075 0.609421 0.171069
H10   H     H_    0.489116 0.898720 0.618559 0.130853
H11   H     H_    0.443989 0.894734 0.508840 0.173673
H12   H     H_    0.444090 0.843837 0.535950 0.129677
H13   H     H_    0.361182 0.509505 0.428257 0.138628
H14   H     H_    0.475357 0.905069 0.390576 0.171068
H15   H     H_    0.510877 0.898711 0.381433 0.130854
H16   H     H_    0.477469 0.853123 0.365203 0.145517
H17   H     H_    0.556007 0.894732 0.491154 0.173671
H18   H     H_    0.555906 0.843833 0.464044 0.129679
H19   H     H_    0.022546 0.353126 0.634808 0.145522
H20   H     H_    0.024655 0.405073 0.609436 0.171075
H21   H     H_    0.989141 0.398713 0.618589 0.130857
H22   H     H_    0.944003 0.394736 0.508863 0.173670
H23   H     H_    0.944104 0.343838 0.535973 0.129682
H24   H     H_    0.638815 0.509672 0.571764 0.138609
H25   H     H_    0.975345 0.405072 0.390566 0.171074
H26   H     H_    0.010857 0.398709 0.381410 0.130857
H27   H     H_    0.977451 0.353124 0.365190 0.145525
H28   H     H_    0.055996 0.394734 0.491136 0.173668
H29   H     H_    0.055892 0.343835 0.464023 0.129681
H30   H     H_    0.409629 0.917963 0.135114 0.150178
H31   H     H_    0.459477 0.885350 0.184010 0.150566
H32   H     H_    0.414397 0.869629 0.172347 0.136358
H33   H     H_    0.473874 0.905001 0.273455 0.137849
H34   H     H_    0.424365 0.937632 0.224835 0.145612
H35   H     H_    0.780840 0.010496 0.349141 0.124377
H36   H     H_    0.590356 0.917946 0.864868 0.150176
H37   H     H_    0.540502 0.885340 0.815965 0.150569
H38   H     H_    0.585579 0.869613 0.827624 0.136355
H39   H     H_    0.526110 0.904994 0.726525 0.137849
H40   H     H_    0.575624 0.937618 0.775152 0.145607
H41   H     H_    0.909558 0.418041 0.135043 0.150182
H42   H     H_    0.959375 0.385382 0.183914 0.150561
H43   H     H_    0.914278 0.369707 0.172232 0.136364
H44   H     H_    0.973785 0.405027 0.273372 0.137852
H45   H     H_    0.924306 0.437703 0.224775 0.145621
H46   H     H_    0.219161 0.010135 0.650808 0.124379
H47   H     H_    0.090434 0.418029 0.864940 0.150179
H48   H     H_    0.040609 0.385380 0.816075 0.150565
H49   H     H_    0.085696 0.369690 0.827739 0.136364
H50   H     H_    0.026190 0.405014 0.726607 0.137849
H51   H     H_    0.075675 0.437683 0.775199 0.145624
H52   H     H_    0.280834 0.509707 0.349246 0.124390
H53   H     H_    0.719164 0.509872 0.650774 0.124388
H54   H     H_    0.468663 0.779543 0.528790 0.104688
H55   H     H_    0.531332 0.779540 0.471207 0.104689
H56   H     H_    0.968674 0.279544 0.528804 0.104685
H57   H     H_    0.458739 0.063292 0.734574 0.109937
H58   H     H_    0.031326 0.279542 0.471197 0.104683
H59   H     H_    0.980823 0.219661 0.415646 0.101737
H60   H     H_    0.019177 0.219664 0.584356 0.101731
H61   H     H_    0.480818 0.719661 0.415642 0.101725
H62   H     H_    0.519177 0.719664 0.584355 0.101728
H63   H     H_    0.981587 0.139465 0.416217 0.121860
H64   H     H_    0.018414 0.139468 0.583785 0.121833
H65   H     H_    0.481580 0.639465 0.416212 0.121803
H66   H     H_    0.518416 0.639468 0.583786 0.121812
H67   H     H_    0.433173 0.219906 0.410360 0.108102
H68   H     H_    0.041332 0.563249 0.265499 0.109935
H69   H     H_    0.566831 0.219908 0.589640 0.108107
H70   H     H_    0.933171 0.719905 0.410361 0.108128
H71   H     H_    0.066832 0.719908 0.589637 0.108115
H72   H     H_    0.575604 0.995542 0.351702 0.106797
H73   H     H_    0.424395 0.995551 0.648297 0.106796
H74   H     H_    0.075600 0.495472 0.351698 0.106794
H75   H     H_    0.924400 0.495487 0.648302 0.106797
H76   H     H_    0.432983 0.139402 0.410343 0.126469
H77   H     H_    0.567019 0.139404 0.589657 0.126468
H78   H     H_    0.932982 0.639402 0.410345 0.126476
H79   H     H_    0.958686 0.563257 0.734522 0.109939
H80   H     H_    0.067020 0.639405 0.589654 0.126474
H81   H     H_    0.023573 0.779814 0.587323 0.108675
H82   H     H_    0.976430 0.779812 0.412676 0.108675
H83   H     H_    0.523568 0.279814 0.587320 0.108664
H84   H     H_    0.476437 0.279812 0.412681 0.108663
H85   H     H_    0.023379 0.860329 0.587305 0.132247
H86   H     H_    0.976622 0.860327 0.412694 0.132291
H87   H     H_    0.523374 0.360329 0.587302 0.132212
H88   H     H_    0.476629 0.360327 0.412699 0.132188
H89   H     H_    0.465510 0.067508 0.241379 0.106850
H90   H     H_    0.776976 0.990426 0.212138 0.116820
H91   H     H_    0.534503 0.067501 0.758638 0.106845
H92   H     H_    0.965573 0.567540 0.241441 0.106852
H93   H     H_    0.034447 0.567530 0.758582 0.106854
H94   H     H_    0.423736 0.003824 0.147606 0.101062
H95   H     H_    0.576264 0.003810 0.852396 0.101055
H96   H     H_    0.923740 0.503894 0.147610 0.101070
H97   H     H_    0.076262 0.503874 0.852393 0.101072
H98   H     H_    0.534054 0.931693 0.258147 0.101287
H99   H     H_    0.465934 0.931696 0.741837 0.101288
H100  H     H_    0.033991 0.431661 0.258085 0.101288
H101  H     H_    0.223031 0.990807 0.787918 0.116855
H102  H     H_    0.965993 0.431667 0.741896 0.101288
H103  H     H_    0.720394 0.069630 0.228894 0.113516
H104  H     H_    0.279615 0.069619 0.770959 0.113517
H105  H     H_    0.220377 0.569618 0.229185 0.113514
H106  H     H_    0.779621 0.569619 0.770888 0.113514
H107  H     H_    0.640091 0.070452 0.147270 0.132631
H108  H     H_    0.359918 0.070436 0.852583 0.132626
H109  H     H_    0.140073 0.570427 0.147562 0.132618
H110  H     H_    0.859924 0.570431 0.852512 0.132623
H111  H     H_    0.638676 0.928983 0.134563 0.129424
H112  H     H_    0.276966 0.491275 0.212023 0.116926
H113  H     H_    0.361317 0.928998 0.865606 0.129401
H114  H     H_    0.138691 0.429018 0.134222 0.129374
H115  H     H_    0.861311 0.429007 0.865693 0.129383
H116  H     H_    0.687935 0.889485 0.131859 0.146272
H117  H     H_    0.738166 0.917784 0.168093 0.157355
H118  H     H_    0.740419 0.863282 0.192569 0.140968
H119  H     H_    0.760739 0.917148 0.266780 0.160507
H120  H     H_    0.710079 0.891657 0.229612 0.135324
H121  H     H_    0.312006 0.889709 0.868418 0.146283
H122  H     H_    0.261757 0.918053 0.832031 0.157410
H123  H     H_    0.723033 0.491093 0.787953 0.116916
H124  H     H_    0.259532 0.863468 0.807760 0.140946
H125  H     H_    0.239256 0.917145 0.733405 0.160490
H126  H     H_    0.289922 0.891597 0.770699 0.135302
H127  H     H_    0.188074 0.389961 0.131298 0.146300
H128  H     H_    0.238348 0.418352 0.167875 0.157492
H129  H     H_    0.240533 0.363680 0.191911 0.140916
H130  H     H_    0.260746 0.417156 0.266414 0.160472
H131  H     H_    0.210068 0.391543 0.228963 0.135272
H132  H     H_    0.811953 0.389852 0.868566 0.146294
H133  H     H_    0.761688 0.418222 0.832066 0.157466
H134  H     H_    0.861191 0.010294 0.428155 0.138522
H135  H     H_    0.759488 0.363587 0.807929 0.140925
H136  H     H_    0.739254 0.417151 0.733495 0.160479
H137  H     H_    0.789927 0.391565 0.770881 0.135282
H138  H     H_    0.873441 0.056706 0.290450 0.114541
H139  H     H_    0.825153 0.034359 0.215412 0.097936
H140  H     H_    0.879367 0.023160 0.250588 0.138423
H141  H     H_    0.126465 0.057195 0.709103 0.114521
H142  H     H_    0.174810 0.035118 0.784308 0.097954
H143  H     H_    0.120627 0.023957 0.749267 0.138437
H144  H     H_    0.373742 0.557776 0.291580 0.114531
O1    O     O_R   0.564270 0.962770 0.064270 -0.515999
O2    O     O_R   0.064310 0.999950 0.599310 -0.457623
O3    O     O_R   0.435690 0.499950 0.400690 -0.457477
O4    O     O_R   0.564310 0.499950 0.599310 -0.457552
O5    O     O_R   0.000020 0.935690 0.535010 -0.509236
O6    O     O_R   0.999980 0.935690 0.464990 -0.509196
O7    O     O_R   0.500020 0.435690 0.535010 -0.509288
O8    O     O_R   0.499980 0.435690 0.464990 -0.509308
O9    O     O_R   0.564210 0.037160 0.064210 -0.511637
O10   O     O_R   0.435790 0.037160 0.935790 -0.511636
O11   O     O_R   0.064210 0.537160 0.064210 -0.511638
O12   O     O_R   0.435730 0.962770 0.935730 -0.515989
O13   O     O_R   0.935790 0.537160 0.935790 -0.511638
O14   O     O_R   0.500000 0.962770 0.060460 -0.504279
O15   O     O_R   0.500000 0.962770 0.939540 -0.504262
O16   O     O_R   0.000000 0.462770 0.060460 -0.504267
O17   O     O_R   0.000000 0.462770 0.939540 -0.504276
O18   O     O_R   0.499940 0.037170 0.060400 -0.502589
O19   O     O_R   0.500060 0.037170 0.939600 -0.502602
O20   O     O_R   0.999940 0.537170 0.060400 -0.502602
O21   O     O_R   0.000060 0.537170 0.939600 -0.502595
O22   O     O_R   0.537150 0.935610 0.537150 -0.518969
O23   O     O_R   0.064270 0.462770 0.064270 -0.515977
O24   O     O_R   0.462850 0.935610 0.462850 -0.518970
O25   O     O_R   0.037150 0.435610 0.537150 -0.518968
O26   O     O_R   0.962850 0.435610 0.462850 -0.518969
O27   O     O_R   0.537160 0.999880 0.476700 -0.503513
O28   O     O_R   0.462840 0.999880 0.523300 -0.503513
O29   O     O_R   0.037160 0.499880 0.476700 -0.503514
O30   O     O_R   0.962840 0.499880 0.523300 -0.503513
O31   O     O_R   0.462760 0.999960 0.402300 -0.506732
O32   O     O_R   0.537240 0.999960 0.597700 -0.506734
O33   O     O_R   0.962760 0.499960 0.402300 -0.506733
O34   O     O_R   0.935730 0.462770 0.935730 -0.515982
O35   O     O_R   0.037240 0.499960 0.597700 -0.506732
O36   O     O_R   0.537180 0.064140 0.537190 -0.509849
O37   O     O_R   0.462820 0.064140 0.462810 -0.509849
O38   O     O_R   0.037180 0.564140 0.537190 -0.509848
O39   O     O_R   0.962820 0.564140 0.462810 -0.509848
O40   O     O_R   0.999920 0.064220 0.534910 -0.521357
O41   O     O_R   0.000080 0.064220 0.465090 -0.521367
O42   O     O_R   0.499920 0.564220 0.534910 -0.521332
O43   O     O_R   0.500080 0.564220 0.465090 -0.521327
O44   O     O_3   0.862629 0.989117 0.286970 -0.548185
O45   O     O_R   0.935700 0.999950 0.470690 -0.527416
O46   O     O_3   0.137386 0.989578 0.713108 -0.548158
O47   O     O_3   0.362600 0.490136 0.286810 -0.548123
O48   O     O_3   0.637397 0.489921 0.713161 -0.548140
O49   O     O_R   0.064300 0.999950 0.529310 -0.527459
O50   O     O_R   0.435700 0.499950 0.470690 -0.527479
O51   O     O_R   0.564300 0.499950 0.529310 -0.527458
O52   O     O_R   0.935690 0.999950 0.400690 -0.457756

loop_
_geom_bond_atom_site_label_1
_geom_bond_atom_site_label_2
_ccdc_geom_bond_type
C176  O28   A    
C183  H74   S    
C68   H93   S    
C115  C141  A    
C76   C105  S    
C34   H76   S    
C18   C21   A    
C105  H45   S    
C69   H102  S    
C57   H92   S    
C6    C196  A    
C81   C134  S    
C151  O46   S    
Cu9   O28   S    
C4    C194  A    
C56   C79   T    
C107  H50   S    
C80   H117  S    
C154  C158  A    
C99   H25   S    
C72   C101  S    
C190  O3    A    
C53   C193  S    
C165  H46   S    
C91   H7    S    
C27   C68   S    
C111  C142  S    
C134  C143  A    
C40   C180  S    
Cu10  O29   S    
Cu7   O11   S    
Cu5   O23   S    
C189  O2    A    
Cu7   O21   S    
C187  O43   A    
C66   C182  S    
C185  O41   A    
C30   H67   S    
C75   C103  S    
Cu3   O42   S    
C137  O18   A    
C89   H4    S    
C165  C169  A    
C50   C53   A    
C116  C121  A    
Cu6   O18   S    
C196  H56   S    
C30   C34   A    
Cu10  Cu11  S    
C74   C100  S    
C103  H39   S    
C121  H108  S    
C82   H121  S    
C115  H103  S    
C179  O36   A    
C43   C54   A    
Cu9   O31   S    
C16   C20   A    
C128  H111  S    
C86   H133  S    
C131  O13   A    
C108  H47   S    
C83   H130  S    
C2    C71   S    
C174  O31   A    
Cu3   O50   S    
C100  H34   S    
Cu2   O41   S    
C46   C153  S    
C152  C157  A    
C141  C168  S    
C70   C79   S    
C194  H54   S    
C133  C141  A    
Cu8   O22   S    
C5    C8    A    
C13   C72   S    
C131  O34   A    
Cu1   O14   S    
C33   C38   A    
C172  O22   A    
C106  H42   S    
C1    C124  S    
C91   H5    S    
C104  H36   S    
C87   H140  S    
C95   H14   S    
C45   C50   A    
C26   C57   S    
C127  C131  S    
C3    C11   A    
C63   C113  T    
C150  O44   S    
C24   C77   S    
C48   C52   A    
C97   H20   S    
C98   H28   S    
C153  C182  S    
C98   C99   S    
C1    O1    A    
C137  O14   A    
Cu3   O7    S    
C31   C36   A    
C27   C73   S    
Cu4   O43   S    
C2    C75   S    
C140  O21   A    
C130  H114  S    
C26   H68   S    
C120  O23   A    
C149  H123  S    
C69   C77   S    
C17   H63   S    
C6    C9    A    
C18   H64   S    
C38   H80   S    
C73   C110  S    
C98   H29   S    
C117  H105  S    
C85   C86   S    
C102  H31   S    
C78   H120  S    
C154  O48   S    
C33   C42   A    
C37   C40   A    
C78   C80   S    
C13   C57   S    
C65   C70   S    
Cu11  O39   S    
C93   H9    S    
C67   C72   S    
C24   H97   S    
C94   H17   S    
C157  C190  S    
C81   H126  S    
Cu4   O3    S    
Cu1   O1    S    
Cu10  O35   S    
C100  H33   S    
C30   C41   A    
C163  H35   S    
C25   C71   S    
C193  O8    A    
Cu9   O24   S    
C156  C189  S    
C58   C138  S    
C3    H58   S    
C146  C150  A    
C93   H8    S    
C192  O6    A    
Cu5   Cu7   S    
C23   C70   S    
C108  H49   S    
C186  H94   S    
C146  H90   S    
C64   C114  T    
C172  O24   A    
C155  C159  A    
C34   C39   A    
C156  C160  A    
C117  C144  A    
C87   H138  S    
Cu10  O25   S    
C94   H18   S    
C95   H15   S    
C65   C74   S    
C51   C53   A    
C166  H52   S    
C92   H11   S    
C147  C151  A    
C117  C122  A    
C121  C125  A    
C125  C129  A    
C75   C153  S    
C123  C127  A    
C83   C84   S    
C132  C136  A    
C109  O10   A    
C45   H83   S    
Cu1   Cu6   S    
C32   C37   A    
C82   H124  S    
C179  O37   A    
C51   H88   S    
C67   C183  S    
C60   C140  S    
C166  C170  A    
C115  C119  A    
C150  C155  A    
C188  O45   A    
Cu11  O26   S    
C25   C182  S    
C180  O39   A    
C31   C41   A    
C149  C171  A    
C118  C145  A    
C83   H131  S    
C61   C174  S    
C148  C152  A    
C105  H44   S    
C39   C179  S    
C104  H38   S    
C80   H118  S    
C163  C168  A    
C164  C183  S    
C56   C137  S    
C71   C90   S    
C35   C186  S    
C43   H81   S    
C88   O46   S    
C174  O27   A    
Cu7   O13   S    
C65   H98   S    
C70   C186  S    
C35   C142  S    
C27   H79   S    
C44   C54   A    
Cu3   Cu4   S    
Cu8   Cu9   S    
C45   C55   A    
Cu5   O16   S    
C4    C92   S    
C162  H24   S    
Cu2   O6    S    
C185  O40   A    
C173  O26   A    
C26   C72   S    
Cu3   O4    S    
C130  C135  A    
C5    C94   S    
C89   H3    S    
Cu6   O9    S    
C15   C19   A    
C84   H127  S    
C12   C28   A    
Cu6   O19   S    
C191  O51   A    
C23   C181  S    
C3    C7    A    
C10   C194  A    
C120  C126  S    
C24   C73   S    
C126  C130  A    
C109  O12   A    
C144  C170  S    
C91   O48   S    
C167  H53   S    
C96   H23   S    
C50   H87   S    
C82   H122  S    
C88   H141  S    
C41   C55   S    
C177  O33   A    
C12   C17   A    
C13   H96   S    
C69   C73   S    
C2    H95   S    
Cu4   O8    S    
C124  C128  A    
C26   C183  S    
C118  H106  S    
C108  H48   S    
Cu10  O38   S    
C36   H77   S    
C47   H84   S    
C68   C175  S    
C15   C29   A    
C36   C39   A    
Cu2   O52   S    
C59   C101  T    
Cu5   O17   S    
C11   C196  A    
C99   H26   S    
C47   C51   A    
C1    O9    A    
C106  H43   S    
C149  C154  A    
C87   H139  S    
Cu4   O51   S    
C64   C178  S    
C66   H99   S    
C16   H62   S    
C66   C71   S    
C59   C139  S    
C49   C52   A    
C62   C176  S    
C147  H101  S    
C49   H86   S    
C151  C156  A    
C46   H91   S    
C58   C90   T    
Cu9   O37   S    
C114  C175  S    
C97   H19   S    
Cu1   O12   S    
C20   C22   A    
C23   C35   S    
C119  H107  S    
C178  O35   A    
C157  C161  A    
C32   H70   S    
C190  O50   A    
C146  C168  A    
C84   H129  S    
C188  O52   A    
C37   H78   S    
C148  H112  S    
C181  H72   S    
C167  C171  A    
C21   C185  S    
C191  O4    A    
C176  O32   A    
C180  O38   A    
C105  C106  S    
C102  H32   S    
C103  H40   S    
C88   H143  S    
C158  C191  S    
C42   C54   S    
C38   C40   A    
C10   C29   S    
C11   C28   S    
C184  H75   S    
C66   C75   S    
C92   C93   S    
Cu11  O30   S    
C86   H132  S    
C118  C123  A    
C120  O11   A    
C94   C95   S    
Cu8   O32   S    
C78   C133  S    
C17   C21   A    
C60   C110  T    
C24   C68   S    
C152  O47   S    
C129  C134  A    
Cu11  O33   S    
C142  C181  S    
C62   C112  T    
C81   H125  S    
C140  O17   A    
C103  C104  S    
C32   C42   A    
C89   O47   S    
C48   H85   S    
C8    C172  S    
C175  C184  S    
C74   C186  S    
C44   C49   A    
C132  H115  S    
C145  C171  S    
C139  O20   A    
C7    C98   S    
C177  O29   A    
C14   C18   A    
Cu12  O5    S    
C4    C8    A    
C182  H73   S    
C81   C82   S    
C65   C181  S    
C119  C124  A    
C2    C46   S    
Cu1   O15   S    
C44   H82   S    
C106  H41   S    
C107  H51   S    
C91   H6    S    
C155  C188  S    
C52   C192  S    
C85   H136  S    
C22   C187  S    
C92   H12   S    
C127  C132  A    
Cu7   O20   S    
C187  O42   A    
C27   C184  S    
C97   H21   S    
C138  O19   A    
C85   C136  S    
C148  C170  A    
C96   H22   S    
C43   C48   A    
C83   C135  S    
C161  C166  A    
C5    C195  A    
C89   H144  S    
C74   C142  S    
C77   C175  S    
C123  H110  S    
C128  C133  A    
C14   H60   S    
C88   H142  S    
C67   H100  S    
C35   H89   S    
C102  H30   S    
C78   H119  S    
Cu2   Cu12  S    
C77   C107  S    
C19   C22   A    
C143  C169  S    
C193  O7    A    
Cu5   O34   S    
C23   H1    S    
C16   C29   A    
C160  C165  A    
C161  H13   S    
C93   H10   S    
C122  C126  A    
C195  H55   S    
C178  O30   A    
C116  C143  A    
C99   H27   S    
Cu12  O40   S    
C13   C76   S    
C87   O44   S    
C107  C108  S    
C96   C97   S    
C100  C102  S    
C159  H134  S    
C9    C173  S    
Cu8   O36   S    
C160  H2    S    
C116  H104  S    
C109  C125  S    
C135  C144  A    
C6    C96   S    
C112  C153  S    
C192  O5    A    
C80   H116  S    
C159  C163  A    
C76   C164  S    
C61   C111  T    
C47   C55   A    
Cu12  O45   S    
C33   H71   S    
C7    C9    A    
C85   H137  S    
C173  O25   A    
C136  C145  A    
C25   H57   S    
Cu6   O10   S    
C84   H128  S    
C95   H16   S    
C63   C177  S    
Cu12  O2    S    
C12   H59   S    
C138  O15   A    
C10   C195  A    
C113  C164  S    
C129  H113  S    
C19   H65   S    
C57   C164  S    
C31   H69   S    
C20   H66   S    
C158  C162  A    
C69   C184  S    
C162  C167  A    
C122  H109  S    
C104  H37   S    
Cu2   O49   S    
C189  O49   A    
C86   H135  S    
C67   C76   S    
C14   C28   A    
C139  O16   A    
C15   H61   S    
Cu8   O27   S    
C25   C46   S    
C147  C169  A    
