data_mof_unit_32089.cif
_audit_creation_date              2012-12-10T17:09:18-0500
_audit_creation_method            fapswitch 2.2
_symmetry_space_group_name_H-M    P1
_symmetry_Int_Tables_number       1
_space_group_crystal_system       triclinic
_cell_length_a                    18.537423
_cell_length_b                    18.196606
_cell_length_c                    11.774954
_cell_angle_alpha                 89.79534
_cell_angle_beta                  74.268517
_cell_angle_gamma                 90.148336
_cell_volume                      3823.07954292

loop_
_atom_site_label
_atom_site_type_symbol
_atom_type_description
_atom_site_fract_x
_atom_site_fract_y
_atom_site_fract_z
_atom_type_partial_charge
C1    C     C_R   0.399956 0.100770 0.521561 0.857232
C2    C     C_R   0.600209 0.899477 0.478407 0.869599
C3    C     C_R   0.600204 0.100520 0.478110 0.869830
C4    C     C_R   0.398608 0.900855 0.522306 0.859403
C5    C     C_R   0.901335 0.602377 0.521462 0.876988
C6    C     C_R   0.100532 0.400046 0.478189 0.858168
C7    C     C_R   0.100750 0.599968 0.477918 0.856748
C8    C     C_R   0.899461 0.399986 0.522087 0.869436
C9    C     C_R   0.535760 0.999129 0.958660 -0.002152
C10   C     C_R   0.464503 0.992314 0.040666 -0.000326
C11   C     C_R   0.035532 0.505082 0.959157 -0.004894
C12   C     C_R   0.964079 0.499413 0.041006 0.005253
C13   C     C_R   0.410451 0.995922 0.871822 0.184711
C14   C     C_R   0.588796 0.010144 0.127494 0.173323
C15   C     C_R   0.910753 0.491063 0.871669 0.158848
C16   C     C_R   0.089582 0.505209 0.128290 0.166933
C17   C     C_R   0.400816 0.988423 0.996206 0.016057
C18   C     C_R   0.599073 0.006558 0.002766 0.010954
C19   C     C_R   0.900498 0.494228 0.996435 0.010305
C20   C     C_R   0.099269 0.509037 0.003482 0.008434
C21   C     C_R   0.541867 0.999686 0.834603 0.035157
C22   C     C_R   0.458652 0.991084 0.164936 0.027177
C23   C     C_R   0.041463 0.506900 0.835033 0.030591
C24   C     C_R   0.958078 0.498364 0.165141 0.037819
C25   C     C_R   0.658974 0.155526 0.465389 -0.121536
C26   C     C_R   0.335344 0.851700 0.534244 -0.112419
C27   C     C_R   0.342220 0.156990 0.533806 -0.137582
C28   C     C_R   0.662979 0.849560 0.466476 -0.164193
C29   C     C_R   0.160657 0.653716 0.465149 -0.108909
C30   C     C_R   0.836895 0.350018 0.534170 -0.134150
C31   C     C_R   0.847702 0.663241 0.534301 -0.155945
C32   C     C_R   0.163040 0.350226 0.466353 -0.142791
C33   C     C_R   0.201813 0.844087 0.554475 0.176868
C34   C     C_R   0.789928 0.184524 0.379324 0.174860
C35   C     C_R   0.796578 0.830036 0.382771 0.168418
C36   C     C_R   0.214725 0.192220 0.631796 0.168679
C37   C     C_R   0.701835 0.339156 0.578577 0.173250
C38   C     C_R   0.294458 0.675620 0.399271 0.171805
C39   C     C_R   0.298275 0.336951 0.407298 0.175501
C40   C     C_R   0.731323 0.715644 0.652327 0.166095
C41   C     C_R   0.264855 0.883526 0.562250 -0.216987
C42   C     C_R   0.727796 0.139940 0.387750 -0.245800
C43   C     C_R   0.731643 0.870649 0.391307 -0.219841
C44   C     C_R   0.275663 0.146109 0.620601 -0.223465
C45   C     C_R   0.765875 0.378414 0.581727 -0.254588
C46   C     C_R   0.231990 0.632255 0.403061 -0.218614
C47   C     C_R   0.233777 0.376541 0.408372 -0.189555
C48   C     C_R   0.793012 0.670155 0.641438 -0.243731
C49   C     C_R   0.346320 0.780199 0.489588 -0.080618
C50   C     C_R   0.649234 0.218322 0.537449 -0.072273
C51   C     C_R   0.658965 0.790581 0.545383 -0.082477
C52   C     C_R   0.350746 0.217320 0.455522 -0.062532
C53   C     C_R   0.846775 0.282577 0.475042 -0.077337
C54   C     C_R   0.148852 0.721016 0.525499 -0.071645
C55   C     C_R   0.154466 0.285044 0.532466 -0.085249
C56   C     C_R   0.849615 0.713729 0.441704 -0.058250
C57   C     C_R   0.284918 0.740850 0.469139 0.032594
C58   C     C_R   0.710322 0.267466 0.526818 0.035059
C59   C     C_R   0.726144 0.756730 0.551889 0.054761
C60   C     C_R   0.290535 0.267540 0.467434 0.026184
C61   C     C_R   0.783442 0.244371 0.459872 0.041416
C62   C     C_R   0.210637 0.768873 0.518024 0.034219
C63   C     C_R   0.218902 0.247905 0.544580 0.041966
C64   C     C_R   0.791894 0.766738 0.456555 0.027926
Cu1   Cu    Cu3+1 0.507800 1.000000 0.383250 1.009998
Cu2   Cu    Cu3+1 0.492200 0.000000 0.616750 1.011940
Cu3   Cu    Cu3+1 0.007800 0.500000 0.383250 1.015424
Cu4   Cu    Cu3+1 0.992200 0.500000 0.616750 1.008376
H1    H     H_    0.405239 0.984969 0.229353 0.152861
H2    H     H_    0.595525 0.001500 0.769880 0.148315
H3    H     H_    0.904348 0.495804 0.229624 0.154611
H4    H     H_    0.094922 0.511917 0.770448 0.152164
H5    H     H_    0.733825 0.089840 0.336962 0.161524
H6    H     H_    0.260045 0.941441 0.584579 0.118963
H7    H     H_    0.269593 0.098266 0.676537 0.182030
H8    H     H_    0.735178 0.921475 0.342845 0.196387
H9    H     H_    0.239218 0.578827 0.361698 0.133213
H10   H     H_    0.760917 0.433796 0.616834 0.160546
H11   H     H_    0.796726 0.637612 0.716289 0.215991
H12   H     H_    0.238531 0.430670 0.368198 0.155608
N1    N     N_R   0.519530 0.000000 0.207810 -0.236572
N2    N     N_R   0.480470 0.000000 0.792190 -0.233462
N3    N     N_R   0.019530 0.500000 0.207810 -0.239985
N4    N     N_R   0.980470 0.500000 0.792190 -0.232306
O1    O     O_R   0.430030 0.075530 0.417420 -0.586899
O2    O     O_R   0.569970 0.924470 0.582580 -0.564148
O3    O     O_R   0.569970 0.075530 0.582580 -0.597090
O4    O     O_R   0.430030 0.924470 0.417420 -0.583954
O5    O     O_R   0.930030 0.575530 0.417420 -0.585659
O6    O     O_R   0.069970 0.424470 0.582580 -0.568870
O7    O     O_R   0.069970 0.575530 0.582580 -0.602477
O8    O     O_R   0.930030 0.424470 0.417420 -0.572347
O9    O     O_R   0.416860 0.075510 0.614610 -0.563258
O10   O     O_R   0.583140 0.924490 0.385390 -0.544297
O11   O     O_R   0.583140 0.075510 0.385390 -0.560896
O12   O     O_R   0.416860 0.924490 0.614610 -0.544668
O13   O     O_R   0.916860 0.575510 0.614610 -0.561619
O14   O     O_R   0.083140 0.424490 0.385390 -0.544710
O15   O     O_R   0.083140 0.575510 0.385390 -0.551736
O16   O     O_R   0.916860 0.424490 0.614610 -0.554049
C65   C     C_2   0.653725 0.033260 0.166645 0.870000
O17   O     O_2   0.691848 0.987694 0.199353 -0.656511
O18   O     O_R   0.676909 0.106591 0.150024 -0.768980
H13   H     H_    0.730616 0.114015 0.152236 0.318273
C66   C     C_2   0.343044 0.006045 0.831587 0.847937
O19   O     O_2   0.315750 0.067345 0.837352 -0.632334
O20   O     O_R   0.303995 0.945124 0.806908 -0.756322
H14   H     H_    0.254667 0.959248 0.791386 0.310687
C67   C     C_2   0.157434 0.507168 0.169762 0.861240
O21   O     O_2   0.187422 0.449741 0.185297 -0.610890
O22   O     O_R   0.194016 0.574318 0.170274 -0.777166
H15   H     H_    0.248120 0.567696 0.171029 0.310796
C68   C     C_2   0.845514 0.470108 0.830271 0.881734
O23   O     O_2   0.809280 0.516802 0.795840 -0.653799
O24   O     O_R   0.821993 0.396755 0.839899 -0.759014
H16   H     H_    0.773466 0.389286 0.817441 0.331087
C69   C     C_2   0.579109 0.225058 0.634065 0.846232
O25   O     O_2   0.581886 0.224876 0.736675 -0.602836
O26   O     O_R   0.510010 0.228734 0.607965 -0.740773
H17   H     H_    0.466309 0.232109 0.681337 0.342317
C70   C     C_2   0.419816 0.745201 0.479528 0.814189
O27   O     O_2   0.423218 0.690857 0.539231 -0.574155
O28   O     O_R   0.484758 0.774049 0.402077 -0.763599
H18   H     H_    0.530816 0.743541 0.399395 0.339961
C71   C     C_2   0.417838 0.220152 0.352776 0.857666
O29   O     O_2   0.410503 0.214644 0.252997 -0.587036
O30   O     O_R   0.489272 0.225901 0.370253 -0.737939
H19   H     H_    0.530527 0.225884 0.293453 0.347323
C72   C     C_2   0.585462 0.755771 0.603693 0.815545
O31   O     O_2   0.577168 0.689887 0.590885 -0.575577
O32   O     O_R   0.526755 0.796597 0.674839 -0.734889
H20   H     H_    0.480466 0.765722 0.710201 0.350548
C73   C     C_2   0.074360 0.734414 0.608734 0.837557
O33   O     O_2   0.068876 0.741610 0.713979 -0.591926
O34   O     O_R   0.010472 0.736226 0.567413 -0.759113
H21   H     H_    0.963034 0.745379 0.632741 0.330790
C74   C     C_2   0.921673 0.247922 0.447092 0.810294
O35   O     O_2   0.928865 0.188422 0.491297 -0.574205
O36   O     O_R   0.983345 0.282272 0.369762 -0.750426
H22   H     H_    0.030543 0.251625 0.354120 0.347185
C75   C     C_2   0.906769 0.705584 0.326995 0.859087
O37   O     O_2   0.887091 0.691704 0.238273 -0.612034
O38   O     O_R   0.982905 0.711911 0.321093 -0.724706
H23   H     H_    0.016382 0.704075 0.238383 0.342012
C76   C     C_2   0.079333 0.250143 0.570796 0.813588
O39   O     O_2   0.070803 0.188017 0.537193 -0.573074
O40   O     O_R   0.019138 0.286921 0.646356 -0.741364
H24   H     H_    0.971751 0.256099 0.669006 0.351335
C77   C     C_3   0.628589 0.382037 0.613056 -0.390675
C78   C     C_3   0.598284 0.396100 0.506675 -0.795480
H25   H     H_    0.641117 0.424910 0.435976 0.251347
H26   H     H_    0.582337 0.344035 0.471050 0.280398
H27   H     H_    0.547987 0.431538 0.534002 0.253757
H28   H     H_    0.585648 0.356304 0.686052 0.231546
H29   H     H_    0.637211 0.436894 0.648763 0.209136
C79   C     C_3   0.366655 0.653942 0.307974 -0.393555
C80   C     C_3   0.390276 0.711953 0.210616 -0.782746
H30   H     H_    0.402240 0.765447 0.246516 0.267209
H31   H     H_    0.441751 0.693605 0.144169 0.247109
H32   H     H_    0.345134 0.719703 0.166002 0.257470
H33   H     H_    0.412793 0.641329 0.347510 0.231261
H34   H     H_    0.358828 0.601773 0.263740 0.185910
C81   C     C_3   0.372227 0.377636 0.357783 -0.394701
C82   C     C_3   0.409600 0.396493 0.454661 -0.815899
H35   H     H_    0.371209 0.429945 0.524017 0.254181
H36   H     H_    0.425182 0.346190 0.495758 0.285053
H37   H     H_    0.461117 0.429072 0.415785 0.249398
H38   H     H_    0.411108 0.348268 0.284621 0.235373
H39   H     H_    0.362959 0.430688 0.316718 0.194140
C83   C     C_3   0.677863 0.724400 0.775276 -0.375148
C84   C     C_3   0.676321 0.803522 0.819231 -0.818506
H40   H     H_    0.733874 0.822063 0.816760 0.252274
H41   H     H_    0.652555 0.841342 0.764813 0.260706
H42   H     H_    0.640819 0.806586 0.911678 0.251798
H43   H     H_    0.620574 0.705238 0.779547 0.227678
H44   H     H_    0.695656 0.689227 0.840177 0.207117
C85   C     C_3   0.130756 0.889012 0.566487 -0.396892
C86   C     C_3   0.110446 0.894482 0.449372 -0.793693
H45   H     H_    0.157583 0.919480 0.380908 0.247761
H46   H     H_    0.097476 0.839702 0.418786 0.278207
H47   H     H_    0.060426 0.929987 0.460627 0.254557
H48   H     H_    0.082858 0.868803 0.637496 0.230824
H49   H     H_    0.138616 0.946302 0.593680 0.199715
C87   C     C_3   0.857591 0.169961 0.274406 -0.399114
C88   C     C_3   0.873545 0.234678 0.188136 -0.790841
H50   H     H_    0.889461 0.284410 0.229792 0.268852
H51   H     H_    0.920570 0.220696 0.110371 0.249911
H52   H     H_    0.823223 0.246870 0.157395 0.256542
H53   H     H_    0.908209 0.154481 0.300895 0.235436
H54   H     H_    0.847305 0.121516 0.223558 0.190624
C89   C     C_3   0.869698 0.864320 0.309678 -0.393070
C90   C     C_3   0.919478 0.888473 0.387170 -0.805882
H55   H     H_    0.889491 0.929140 0.453286 0.254078
H56   H     H_    0.935858 0.841097 0.434067 0.285836
H57   H     H_    0.971191 0.914621 0.331195 0.249120
H58   H     H_    0.900545 0.828269 0.237778 0.233642
H59   H     H_    0.858504 0.914311 0.262627 0.204437
C91   C     C_3   0.151295 0.184107 0.745229 -0.389259
C92   C     C_3   0.141028 0.253923 0.819520 -0.775038
H60   H     H_    0.194554 0.269092 0.838850 0.260777
H61   H     H_    0.122315 0.300287 0.773412 0.262799
H62   H     H_    0.097849 0.244335 0.904341 0.248439
H63   H     H_    0.097830 0.166874 0.729048 0.226624
H64   H     H_    0.163829 0.139333 0.801513 0.213153
C93   C     C_3   0.322625 0.976901 0.080674 -0.398805
C94   C     C_3   0.310726 0.896860 0.121545 -0.803682
H65   H     H_    0.315592 0.860360 0.044425 0.275938
H66   H     H_    0.352440 0.879648 0.168247 0.244791
H67   H     H_    0.253867 0.890040 0.182736 0.245095
H68   H     H_    0.313342 0.014412 0.157302 0.204779
H69   H     H_    0.276766 0.991027 0.040846 0.227233
C95   C     C_3   0.677864 0.011248 0.917626 -0.449677
C96   C     C_3   0.695271 0.087793 0.862335 -0.720597
H70   H     H_    0.654567 0.104094 0.813247 0.266092
H71   H     H_    0.693906 0.129541 0.931171 0.288015
H72   H     H_    0.752158 0.087967 0.799829 0.237846
H73   H     H_    0.721954 0.997062 0.961434 0.220068
H74   H     H_    0.684949 0.969086 0.847697 0.195341
C97   C     C_3   0.821442 0.493522 0.080547 -0.406111
C98   C     C_3   0.799134 0.417563 0.134878 -0.800533
H75   H     H_    0.800703 0.376414 0.065031 0.287654
H76   H     H_    0.837088 0.399367 0.187555 0.243068
H77   H     H_    0.741252 0.419572 0.194044 0.244070
H78   H     H_    0.816567 0.535104 0.150954 0.218016
H79   H     H_    0.778920 0.511057 0.035556 0.216003
C99   C     C_3   0.177793 0.516179 0.918162 -0.398397
C100  C     C_3   0.206997 0.441980 0.865112 -0.812475
H80   H     H_    0.209627 0.402643 0.936208 0.277248
H81   H     H_    0.170388 0.418824 0.813721 0.245116
H82   H     H_    0.264221 0.448877 0.805047 0.249641
H83   H     H_    0.178353 0.556929 0.847642 0.207279
H84   H     H_    0.219431 0.538887 0.960427 0.230913

loop_
_geom_bond_atom_site_label_1
_geom_bond_atom_site_label_2
_ccdc_geom_bond_type
C6    C32   S    
C84   H40   S    
Cu3   N3    S    
C80   H30   S    
C7    C29   S    
C2    O10   A    
C50   C69   S    
O28   H18   S    
C14   C18   A    
C30   C45   A    
O40   H24   S    
C34   C42   A    
C38   C79   S    
C86   H47   S    
C98   H76   S    
C76   O39   D    
C51   C72   S    
C20   C99   S    
C57   C62   A    
C83   H44   S    
C96   H70   S    
C10   C22   A    
C15   C19   A    
C66   O20   S    
C59   C64   A    
C65   O17   D    
C7    O15   A    
C60   C63   A    
C53   C74   S    
C6    O14   A    
C48   H11   S    
C39   C47   A    
C79   C80   S    
C24   N3    A    
C36   C91   S    
C68   O23   D    
C69   O26   S    
C28   C51   A    
C94   H66   S    
C88   H51   S    
C95   H73   S    
C93   H69   S    
C10   C17   A    
C99   H83   S    
Cu3   O5    S    
Cu4   O7    S    
C49   C57   A    
C87   C88   S    
C72   O32   S    
C2    O2    A    
C11   C23   A    
C89   H58   S    
C5    C31   S    
C52   C60   A    
Cu3   O14   S    
C41   H6    S    
C4    O12   A    
C53   C61   A    
C27   C44   A    
O22   H15   S    
C33   C62   A    
C78   H27   S    
C55   C63   A    
C92   H62   S    
Cu4   O6    S    
O20   H14   S    
C56   C64   A    
C34   C87   S    
C91   C92   S    
C8    O8    A    
C31   C56   A    
C36   C63   A    
C35   C43   A    
C9    C10   A    
C22   H1    S    
C37   C58   A    
Cu3   O15   S    
C1    C27   S    
C58   C61   A    
C97   H78   S    
C79   H34   S    
C92   H60   S    
C65   O18   S    
C40   C59   A    
C29   C46   A    
C52   C71   S    
C73   O34   S    
C82   H36   S    
C91   H63   S    
C47   H12   S    
C23   H4    S    
C40   C83   S    
C98   H75   S    
C76   O40   S    
C16   C67   S    
C86   H45   S    
C83   H43   S    
C96   H71   S    
C1    O1    A    
C4    C26   S    
C84   H42   S    
C11   C20   A    
C38   C46   A    
C23   N4    A    
C3    O3    A    
C89   C90   S    
Cu4   N4    S    
C22   N1    A    
O34   H21   S    
C13   C66   S    
C26   C49   A    
C97   C98   S    
C94   H65   S    
Cu4   O13   S    
C14   C65   S    
C54   C62   A    
C85   H49   S    
C54   C73   S    
C33   C85   S    
C13   N2    A    
C16   N3    A    
Cu3   Cu4   S    
C75   O38   S    
C50   C58   A    
C44   H7    S    
C18   C95   S    
C77   H28   S    
C90   H57   S    
C25   C50   A    
Cu2   N2    S    
C38   C57   A    
C74   O36   S    
Cu1   N1    S    
C100  H80   S    
C3    C25   S    
C16   C20   A    
C49   C70   S    
C15   C68   S    
C30   C53   A    
C97   H79   S    
O26   H17   S    
C85   H48   S    
C70   O27   D    
C45   H10   S    
C85   C86   S    
Cu2   O9    S    
C56   C75   S    
C1    O9    A    
Cu1   O10   S    
C100  H81   S    
C5    O13   A    
C79   H33   S    
Cu1   Cu2   S    
C80   H32   S    
C31   C48   A    
C75   O37   D    
C91   H64   S    
C73   O33   D    
C32   C47   A    
C87   H54   S    
C35   C64   A    
C36   C44   A    
C19   C97   S    
C37   C45   A    
O30   H19   S    
C7    O7    A    
Cu2   O3    S    
C27   C52   A    
O36   H22   S    
Cu1   O4    S    
Cu2   O12   S    
C72   O31   D    
C66   O19   D    
C96   H72   S    
C43   H8    S    
C40   C48   A    
C93   C94   S    
C82   H35   S    
C42   H5    S    
C35   C89   S    
C32   C55   A    
C87   H53   S    
Cu4   O16   S    
C82   H37   S    
C89   H59   S    
C37   C77   S    
C88   H52   S    
C25   C42   A    
Cu2   O2    S    
C46   H9    S    
C86   H46   S    
C11   C12   A    
Cu1   O1    S    
C15   N4    A    
C4    O4    A    
C84   H41   S    
C74   O35   D    
C12   C24   A    
C28   C43   A    
C13   C17   A    
C21   H2    S    
C29   C54   A    
C33   C41   A    
C90   H55   S    
C67   O22   S    
O38   H23   S    
C77   H29   S    
C8    C30   S    
C6    O6    A    
C77   C78   S    
C94   H67   S    
C9    C21   A    
C88   H50   S    
C71   O29   D    
C95   H74   S    
C93   H68   S    
C99   H84   S    
C39   C60   A    
C12   C19   A    
C17   C93   S    
Cu3   O8    S    
C3    O11   A    
C81   H38   S    
C78   H26   S    
C34   C61   A    
C8    O16   A    
C81   H39   S    
C92   H61   S    
C70   O28   S    
C81   C82   S    
C55   C76   S    
C9    C18   A    
Cu1   O11   S    
C100  H82   S    
C51   C59   A    
C21   N2    A    
C24   H3    S    
C80   H31   S    
C99   C100  S    
C83   C84   S    
C67   O21   D    
O18   H13   S    
C71   O30   S    
C78   H25   S    
C2    C28   S    
C14   N1    A    
O24   H16   S    
C69   O25   D    
C39   C81   S    
C98   H77   S    
C5    O5    A    
O32   H20   S    
C26   C41   A    
C95   C96   S    
C68   O24   S    
C90   H56   S    
