data_mof_unit_30803.cif
_audit_creation_date              2012-12-10T17:35:34-0500
_audit_creation_method            fapswitch 2.2
_symmetry_space_group_name_H-M    P1
_symmetry_Int_Tables_number       1
_space_group_crystal_system       triclinic
_cell_length_a                    10.711503
_cell_length_b                    12.312358
_cell_length_c                    13.278056
_cell_angle_alpha                 116.444248
_cell_angle_beta                  77.632876
_cell_angle_gamma                 101.360493
_cell_volume                      1521.18051064

loop_
_atom_site_label
_atom_site_type_symbol
_atom_type_description
_atom_site_fract_x
_atom_site_fract_y
_atom_site_fract_z
_atom_type_partial_charge
C1    C     C_R   0.518275 0.855017 0.287316 0.764237
C2    C     C_3   0.121824 0.999213 0.499628 0.161440
C3    C     C_3   0.075161 0.121477 0.591229 -0.406461
C4    C     C_3   0.040271 0.893103 0.526135 -0.367366
C5    C     C_R   0.340102 0.282389 0.015122 -0.195806
C6    C     C_R   0.476210 0.229275 0.833998 -0.116945
C7    C     C_R   0.674850 0.806509 0.115123 -0.196298
C8    C     C_R   0.744144 0.717588 0.027480 -0.155329
C9    C     C_R   0.693473 0.595442 0.989798 -0.140312
C10   C     C_R   0.565355 0.560394 0.029483 0.095317
C11   C     C_R   0.498774 0.650320 0.124554 0.088670
C12   C     C_R   0.739898 0.999305 0.499602 0.762620
C13   C     C_R   0.504015 0.437842 0.983078 -0.000979
C14   C     C_R   0.393523 0.404211 0.049039 0.159182
C15   C     C_R   0.332042 0.493416 0.144779 -0.222992
C16   C     C_R   0.378711 0.615390 0.176815 -0.199067
C17   C     C_R   0.541354 0.349887 0.871134 -0.074532
C18   C     C_R   0.383336 0.194973 0.909380 -0.215808
C19   C     C_R   0.556761 0.772686 0.169342 -0.092850
C20   C     C_R   0.705894 0.348345 0.330603 -0.302909
C21   C     C_R   0.325369 0.758570 0.644255 0.072047
C22   C     C_R   0.287680 0.661456 0.675236 -0.256497
C23   C     C_R   0.487535 0.145276 0.712851 0.820023
C24   C     C_R   0.353377 0.558417 0.620933 -0.162745
C25   C     C_R   0.458323 0.551179 0.534322 -0.002500
C26   C     C_R   0.493524 0.653255 0.505567 0.291725
C27   C     C_R   0.529636 0.447152 0.475358 -0.040077
C28   C     C_R   0.634086 0.447856 0.389527 0.176438
C29   C     C_R   0.666667 0.547859 0.362878 -0.290236
C30   C     C_R   0.598220 0.648033 0.419574 -0.188919
C31   C     C_R   0.502516 0.341602 0.497293 0.045869
C32   C     C_R   0.674468 0.247883 0.356501 0.075305
C33   C     C_R   0.260055 0.999939 0.499827 0.749196
C34   C     C_3   0.955087 0.981288 0.381473 -0.396713
C35   C     C_3   0.099316 0.981841 0.381570 -0.372407
C36   C     C_3   0.931096 0.121025 0.591148 -0.329804
C37   C     C_3   0.897384 0.892604 0.525925 -0.373150
C38   C     C_3   0.877774 0.998465 0.499546 0.140027
Cu1   Cu    Cu3+1 0.529690 0.098270 0.475420 0.950387
Cu2   Cu    Cu3+1 0.470310 0.901730 0.524580 0.920375
H1    H     H_    0.943006 0.055918 0.359963 0.166577
H2    H     H_    0.054095 0.903154 0.610788 0.164085
H3    H     H_    0.876722 0.134828 0.676573 0.176904
H4    H     H_    0.090560 0.135326 0.676649 0.153542
H5    H     H_    0.334142 0.102926 0.882176 0.152818
H6    H     H_    0.243534 0.469286 0.191666 0.136886
H7    H     H_    0.259401 0.255891 0.067757 0.130977
H8    H     H_    0.720925 0.899675 0.149454 0.139205
H9    H     H_    0.758493 0.529769 0.933099 0.140030
H10   H     H_    0.840925 0.742619 0.993349 0.135158
H11   H     H_    0.918291 0.893481 0.314602 0.149192
H12   H     H_    0.321432 0.681865 0.245494 0.150984
H13   H     H_    0.729518 0.170771 0.311425 0.113279
H14   H     H_    0.746506 0.549006 0.297324 0.148257
H15   H     H_    0.785928 0.348356 0.264947 0.133275
H16   H     H_    0.424895 0.333051 0.560898 0.127970
H17   H     H_    0.273830 0.838127 0.686885 0.119379
H18   H     H_    0.320091 0.486080 0.648416 0.139332
H19   H     H_    0.207231 0.666062 0.741614 0.142583
H20   H     H_    0.631654 0.719646 0.392897 0.204216
H21   H     H_    0.132461 0.894295 0.314699 0.146317
H22   H     H_    0.156005 0.056830 0.360278 0.173374
H23   H     H_    0.918863 0.198692 0.574051 0.206257
H24   H     H_    0.131445 0.199411 0.574384 0.171229
H25   H     H_    0.842834 0.902222 0.610337 0.177883
H26   H     H_    0.860654 0.803193 0.460975 0.168598
H27   H     H_    0.071590 0.803721 0.461513 0.169650
N1    N     N_R   0.574690 0.246280 0.438200 -0.180367
N2    N     N_R   0.426100 0.754320 0.561190 -0.204912
O1    O     O_R   0.537340 0.972510 0.318130 -0.581456
O2    O     O_R   0.487200 0.806530 0.359650 -0.597229
O3    O     O_R   0.707380 0.082980 0.479220 -0.573899
O4    O     O_R   0.657240 0.917000 0.520740 -0.608962
O5    O     O_R   0.512800 0.193470 0.640350 -0.559922
O6    O     O_R   0.462660 0.027490 0.681870 -0.588955
O7    O     O_R   0.342760 0.083000 0.479260 -0.591984
O8    O     O_R   0.292620 0.917020 0.520780 -0.598585
C39   C     C_2   0.632582 0.386505 0.787115 0.839881
O9    O     O_2   0.728673 0.334463 0.737933 -0.637502
O10   O     O_R   0.606868 0.479033 0.763267 -0.755973
H28   H     H_    0.675021 0.494870 0.703840 0.329754

loop_
_geom_bond_atom_site_label_1
_geom_bond_atom_site_label_2
_ccdc_geom_bond_type
C2    C35   S    
Cu2   O2    S    
Cu1   N1    S    
C7    C8    A    
C3    H24   S    
C5    H7    S    
C11   C19   A    
C34   H11   S    
C1    O2    A    
C21   C22   A    
C28   C29   A    
C37   C38   S    
C39   O10   S    
C29   H14   S    
C15   C16   A    
Cu2   O4    S    
C34   C35   S    
Cu1   O5    S    
C8    C9    A    
C30   H20   S    
Cu1   O3    S    
C31   H16   S    
C36   H23   S    
C9    C10   A    
C32   N1    A    
C12   O3    A    
C13   C14   A    
C34   H1    S    
C20   H15   S    
C31   N1    A    
C6    C18   A    
C3    H4    S    
C1    C19   S    
Cu2   N2    S    
C27   C31   A    
C9    H9    S    
C24   C25   A    
Cu1   Cu2   S    
C39   O9    D    
C5    C18   A    
C20   C28   A    
C25   C26   A    
C21   N2    A    
C2    C4    S    
C21   H17   S    
C29   C30   A    
C11   C16   A    
C33   O7    A    
C14   C15   A    
C37   H26   S    
C35   H21   S    
Cu1   O7    S    
C5    C14   A    
C2    C33   S    
C37   H25   S    
C26   C30   A    
C7    C19   A    
C22   C24   A    
C23   O5    A    
C18   H5    S    
C8    H10   S    
C32   H13   S    
C22   H19   S    
C20   C32   A    
C6    C17   A    
C34   C38   S    
C16   H12   S    
C23   O6    A    
O10   H28   S    
C10   C13   A    
C4    H27   S    
C25   C27   A    
C1    O1    A    
Cu2   O6    S    
C13   C17   A    
C7    H8    S    
C36   C38   S    
C2    C3    S    
C33   O8    A    
C4    H2    S    
C3    C36   S    
C6    C23   S    
C17   C39   S    
Cu1   O1    S    
C35   H22   S    
C12   C38   S    
C10   C11   A    
C4    C37   S    
C24   H18   S    
C27   C28   A    
C26   N2    A    
Cu2   O8    S    
C36   H3    S    
C15   H6    S    
C12   O4    A    
