data_mof_unit_61880.cif
_audit_creation_date              2012-12-10T19:17:20-0500
_audit_creation_method            fapswitch 2.2
_symmetry_space_group_name_H-M    P1
_symmetry_Int_Tables_number       1
_space_group_crystal_system       triclinic
_cell_length_a                    22.302205
_cell_length_b                    22.347583
_cell_length_c                    15.00519
_cell_angle_alpha                 90.033909
_cell_angle_beta                  89.985826
_cell_angle_gamma                 89.99612
_cell_volume                      7478.590802

loop_
_atom_site_label
_atom_site_type_symbol
_atom_type_description
_atom_site_fract_x
_atom_site_fract_y
_atom_site_fract_z
_atom_type_partial_charge
C1    C     C_R   0.080995 0.419094 0.499950 0.903846
C2    C     C_R   0.080979 0.580922 0.500034 0.894031
C3    C     C_R   0.580981 0.919077 0.499960 0.903585
C4    C     C_R   0.580980 0.080940 0.500002 0.896905
C5    C     C_1   0.160899 0.664487 0.501549 -0.022077
C6    C     C_1   0.160607 0.335221 0.498416 -0.056877
C7    C     C_1   0.659906 0.165508 0.499509 -0.013879
C8    C     C_1   0.660356 0.834971 0.498731 -0.057236
C9    C     C_1   0.834684 0.339924 0.499835 -0.086202
C10   C     C_1   0.834962 0.660341 0.499769 -0.088648
C11   C     C_1   0.335915 0.838730 0.500384 -0.095751
C12   C     C_1   0.335124 0.160505 0.499458 -0.088778
C13   C     C_1   0.873492 0.376134 0.499956 -0.172024
C14   C     C_1   0.873632 0.623989 0.500040 -0.175394
C15   C     C_1   0.374108 0.875557 0.500027 -0.169850
C16   C     C_1   0.373720 0.124077 0.499949 -0.173132
C17   C     C_3   0.062838 0.471592 0.054376 0.273378
C18   C     C_3   0.058070 0.462912 0.947400 0.261883
C19   C     C_3   0.997853 0.568617 0.052822 0.254836
C20   C     C_3   0.007470 0.568344 0.945997 0.303312
C21   C     C_3   0.550201 0.952580 0.052393 0.307139
C22   C     C_3   0.556817 0.960624 0.945634 0.277316
C23   C     C_3   0.519832 0.066162 0.054351 0.275085
C24   C     C_3   0.509644 0.068342 0.947594 0.307453
C25   C     C_3   0.001198 0.500563 0.090273 -0.208739
C26   C     C_3   0.001363 0.500621 0.909717 -0.237101
C27   C     C_3   0.501525 0.000534 0.090369 -0.250855
C28   C     C_3   0.501516 0.000570 0.909630 -0.250122
C29   C     C_3   0.940190 0.471760 0.947233 0.399783
C30   C     C_3   0.945312 0.462715 0.052679 0.392984
C31   C     C_3   0.439600 0.973202 0.947267 0.398359
C32   C     C_3   0.436013 0.983427 0.052754 0.398807
C33   C     C_1   0.000359 0.500189 0.809008 0.263376
C34   C     C_1   0.000283 0.500186 0.190991 0.264925
C35   C     C_1   0.500404 0.000208 0.808993 0.257415
C36   C     C_1   0.500423 0.000155 0.191006 0.258227
C37   C     C_R   0.918957 0.419156 0.499991 0.909579
C38   C     C_R   0.918965 0.580843 0.500027 0.906076
C39   C     C_R   0.418991 0.919144 0.499989 0.909839
C40   C     C_R   0.418975 0.080851 0.500017 0.908100
C41   C     C_3   0.769652 0.278941 0.597897 -0.107360
C42   C     C_3   0.810138 0.238444 0.447086 -0.129199
C43   C     C_3   0.768078 0.719950 0.597008 -0.111854
C44   C     C_3   0.811950 0.762770 0.450063 -0.089650
C45   C     C_3   0.315524 0.734026 0.542591 -0.083426
C46   C     C_3   0.266848 0.781583 0.403249 -0.133974
C47   C     C_3   0.263683 0.215578 0.595418 -0.112919
C48   C     C_3   0.314315 0.265110 0.458291 -0.090690
C49   C     C_3   0.222806 0.727396 0.404404 -0.110925
C50   C     C_3   0.265283 0.685554 0.545401 -0.160262
C51   C     C_3   0.264558 0.313751 0.455233 -0.152005
C52   C     C_3   0.221334 0.270880 0.595454 -0.160207
C53   C     C_3   0.759953 0.190092 0.445579 -0.144190
C54   C     C_3   0.726809 0.224011 0.596657 -0.178150
C55   C     C_3   0.762039 0.811250 0.447132 -0.148798
C56   C     C_3   0.725692 0.775220 0.595693 -0.164560
C57   C     C_1   0.124356 0.626035 0.500363 -0.172057
C58   C     C_1   0.124237 0.373853 0.499587 -0.175498
C59   C     C_1   0.623893 0.126528 0.499918 -0.182740
C60   C     C_1   0.624101 0.873716 0.499677 -0.179322
C61   C     C_3   0.787410 0.295552 0.499427 0.171524
C62   C     C_3   0.787865 0.704891 0.498916 0.157399
C63   C     C_3   0.289393 0.793704 0.501331 0.129757
C64   C     C_3   0.288104 0.205131 0.498321 0.156845
C65   C     C_3   0.205538 0.711382 0.503530 0.149622
C66   C     C_3   0.205041 0.288071 0.496440 0.180879
C67   C     C_3   0.704026 0.212984 0.498618 0.213076
C68   C     C_3   0.704692 0.787721 0.497068 0.181807
C69   C     C_3   0.180685 0.769248 0.553732 0.208664
C70   C     C_3   0.181133 0.231582 0.442485 0.205768
C71   C     C_3   0.677132 0.272411 0.455962 0.207024
C72   C     C_3   0.678432 0.728870 0.451828 0.208675
C73   C     C_3   0.729101 0.322365 0.452258 0.107098
C74   C     C_3   0.730532 0.679072 0.447963 0.107841
C75   C     C_3   0.234307 0.816963 0.561266 0.141366
C76   C     C_3   0.233388 0.181938 0.438912 0.107136
H1    H     H_    0.279327 0.647832 0.501558 0.185021
H2    H     H_    0.246970 0.687856 0.376422 0.161261
H3    H     H_    0.245825 0.309353 0.625977 0.160768
H4    H     H_    0.278691 0.351950 0.498188 0.179393
H5    H     H_    0.752643 0.183753 0.618281 0.158109
H6    H     H_    0.776584 0.149506 0.481250 0.164980
H7    H     H_    0.751475 0.814978 0.619460 0.159633
H8    H     H_    0.778073 0.851353 0.484387 0.177458
H9    H     H_    0.821552 0.251697 0.377961 0.171739
H10   H     H_    0.745475 0.317568 0.628137 0.191700
H11   H     H_    0.824958 0.750545 0.381073 0.177738
H12   H     H_    0.742979 0.681012 0.624510 0.192074
H13   H     H_    0.243589 0.821724 0.377680 0.153938
H14   H     H_    0.331781 0.743642 0.610820 0.175139
H15   H     H_    0.330584 0.256130 0.389729 0.179544
H16   H     H_    0.237439 0.175499 0.616082 0.190639
N1    N     N_1   0.999850 0.500000 0.731150 -0.074607
N2    N     N_1   0.999850 0.500000 0.268850 -0.074674
N3    N     N_1   0.499850 1.000000 0.731150 -0.074771
N4    N     N_1   0.499850 1.000000 0.268850 -0.074273
O1    O     O_R   0.061440 0.438650 0.574260 -0.613357
O2    O     O_R   0.061440 0.438650 0.425740 -0.602229
O3    O     O_R   0.061440 0.561350 0.574260 -0.617434
O4    O     O_R   0.061440 0.561350 0.425740 -0.617547
O5    O     O_R   0.561440 0.938650 0.574260 -0.602853
O6    O     O_R   0.561440 0.938650 0.425740 -0.617919
O7    O     O_R   0.561440 0.061350 0.574260 -0.625768
O8    O     O_R   0.561440 0.061350 0.425740 -0.610290
O9    O     O_R   0.938580 0.438650 0.574260 -0.594552
O10   O     O_R   0.938580 0.438650 0.425740 -0.595864
O11   O     O_R   0.938580 0.561350 0.574260 -0.595350
O12   O     O_R   0.938580 0.561350 0.425740 -0.605023
O13   O     O_R   0.438580 0.938650 0.574260 -0.593326
O14   O     O_R   0.438580 0.938650 0.425740 -0.597637
O15   O     O_R   0.438580 0.061350 0.574260 -0.601454
O16   O     O_R   0.438580 0.061350 0.425740 -0.595866
Zn1   Zn    Zn3+2 0.000010 0.500000 0.599130 1.022546
Zn2   Zn    Zn3+2 0.000010 0.500000 0.400870 1.022446
Zn3   Zn    Zn3+2 0.500010 1.000000 0.599130 1.020601
Zn4   Zn    Zn3+2 0.500010 1.000000 0.400870 1.021458
N5    N     N_3   0.822048 0.266958 0.654608 -0.459522
H17   H     H_    0.844357 0.307265 0.666999 0.231638
H18   H     H_    0.807043 0.252445 0.717008 0.207016
N6    N     N_3   0.865798 0.212523 0.483087 -0.447298
H19   H     H_    0.859073 0.194186 0.546230 0.226937
H20   H     H_    0.899530 0.244843 0.487061 0.218976
N7    N     N_3   0.819279 0.730604 0.656655 -0.460279
H21   H     H_    0.840986 0.689922 0.668641 0.232035
H22   H     H_    0.803020 0.744291 0.718793 0.210592
N8    N     N_3   0.866755 0.787948 0.489970 -0.441109
H23   H     H_    0.858472 0.805474 0.553252 0.223892
H24   H     H_    0.900228 0.755416 0.494842 0.210370
N9    N     N_3   0.368746 0.710526 0.496023 -0.433288
H25   H     H_    0.357904 0.692369 0.434006 0.223320
H26   H     H_    0.400956 0.743939 0.487258 0.217173
N10   N     N_3   0.316287 0.770335 0.340639 -0.458456
H27   H     H_    0.340144 0.810070 0.330810 0.232598
H28   H     H_    0.298031 0.759764 0.278361 0.208787
N11   N     N_3   0.311903 0.223270 0.661237 -0.458844
H29   H     H_    0.333095 0.182071 0.671168 0.229291
H30   H     H_    0.292703 0.234025 0.722794 0.211607
N12   N     N_3   0.367038 0.288189 0.506362 -0.437578
H31   H     H_    0.355737 0.302716 0.570291 0.225774
H32   H     H_    0.400257 0.255404 0.511315 0.213812
N13   N     N_3   0.170409 0.736647 0.346111 -0.441043
H33   H     H_    0.182699 0.725899 0.280738 0.192133
H34   H     H_    0.157376 0.781500 0.344318 0.213996
N14   N     N_3   0.260009 0.657249 0.633735 -0.448868
H35   H     H_    0.268979 0.686334 0.686364 0.189564
H36   H     H_    0.218266 0.637063 0.643060 0.206624
N15   N     N_3   0.258783 0.339581 0.365391 -0.434632
H37   H     H_    0.253687 0.306944 0.316480 0.226907
H38   H     H_    0.222379 0.368903 0.362163 0.217598
N16   N     N_3   0.168346 0.259876 0.651461 -0.441584
H39   H     H_    0.146701 0.300566 0.663676 0.223118
H40   H     H_    0.182655 0.244958 0.713990 0.209820
N17   N     N_3   0.745298 0.169806 0.354836 -0.435930
H41   H     H_    0.779614 0.141408 0.333081 0.202124
H42   H     H_    0.744623 0.205386 0.309999 0.212727
N18   N     N_3   0.677772 0.231816 0.661134 -0.451409
H43   H     H_    0.656100 0.190776 0.670150 0.204847
H44   H     H_    0.696235 0.242278 0.723293 0.201285
N19   N     N_3   0.751953 0.832782 0.355630 -0.438664
H45   H     H_    0.744578 0.797935 0.310928 0.224011
H46   H     H_    0.715452 0.862018 0.353171 0.211373
N20   N     N_3   0.675523 0.767027 0.658145 -0.436285
H47   H     H_    0.654387 0.808238 0.668277 0.229596
H48   H     H_    0.692805 0.755095 0.720440 0.211871
N21   N     N_3   0.709465 0.376964 0.499705 -0.481911
H49   H     H_    0.673968 0.396415 0.464528 0.203637
H50   H     H_    0.743393 0.409216 0.499239 0.198182
N22   N     N_3   0.741840 0.340529 0.359185 -0.449312
H51   H     H_    0.753111 0.304739 0.318142 0.196035
H52   H     H_    0.776974 0.371432 0.356753 0.213998
N23   N     N_3   0.710036 0.623497 0.491860 -0.481131
H53   H     H_    0.743904 0.591182 0.490968 0.199064
H54   H     H_    0.675114 0.604945 0.454384 0.203652
N24   N     N_3   0.745120 0.662882 0.354663 -0.446568
H55   H     H_    0.780418 0.632155 0.352302 0.214282
H56   H     H_    0.757072 0.699533 0.315884 0.198462
N25   N     N_3   0.252563 0.825151 0.655319 -0.432635
H57   H     H_    0.264772 0.785779 0.687119 0.166220
H58   H     H_    0.289062 0.854349 0.659812 0.220101
N26   N     N_3   0.213477 0.876770 0.531788 -0.434948
H59   H     H_    0.247043 0.908959 0.539961 0.198566
H60   H     H_    0.199703 0.878258 0.465562 0.183124
N27   N     N_3   0.210973 0.124493 0.474639 -0.481638
H61   H     H_    0.244868 0.092204 0.473941 0.199526
H62   H     H_    0.177965 0.107849 0.431740 0.205476
N28   N     N_3   0.252409 0.170135 0.345917 -0.443485
H63   H     H_    0.287793 0.139493 0.344065 0.217452
H64   H     H_    0.266098 0.208490 0.312416 0.199751
N29   N     N_3   0.154667 0.753479 0.641301 -0.457127
H65   H     H_    0.184234 0.731866 0.683569 0.183333
H66   H     H_    0.140456 0.792362 0.673939 0.220397
N30   N     N_3   0.130816 0.794555 0.501142 -0.457555
H67   H     H_    0.111386 0.830367 0.535626 0.205409
H68   H     H_    0.096530 0.762872 0.495108 0.210141
N31   N     N_3   0.126095 0.209065 0.486497 -0.437414
H69   H     H_    0.135555 0.185334 0.544635 0.234332
H70   H     H_    0.103191 0.179655 0.444290 0.181331
N32   N     N_3   0.164090 0.250020 0.351452 -0.459321
H71   H     H_    0.148716 0.212782 0.315863 0.217903
H72   H     H_    0.127770 0.279571 0.354012 0.221085
N33   N     N_3   0.624967 0.291847 0.509860 -0.446450
H73   H     H_    0.637884 0.311752 0.569725 0.235669
H74   H     H_    0.599894 0.323778 0.475144 0.180907
N34   N     N_3   0.654757 0.259429 0.365325 -0.450014
H75   H     H_    0.637263 0.298533 0.337150 0.207176
H76   H     H_    0.618713 0.229581 0.368555 0.214085
N35   N     N_3   0.625699 0.708607 0.503792 -0.434851
H77   H     H_    0.637980 0.687656 0.563123 0.236124
H78   H     H_    0.600916 0.677331 0.467293 0.180490
N36   N     N_3   0.657031 0.742988 0.361115 -0.465687
H79   H     H_    0.640118 0.704188 0.331225 0.214465
H80   H     H_    0.620825 0.772647 0.364403 0.212199
N37   N     N_3   0.113974 0.482976 0.904207 -0.488780
H81   H     H_    0.149386 0.455405 0.924255 0.228275
H82   H     H_    0.111160 0.477207 0.835221 0.196093
N38   N     N_3   0.113054 0.511826 0.076800 -0.462244
H83   H     H_    0.154133 0.491678 0.061843 0.218020
H84   H     H_    0.114262 0.518750 0.145733 0.207401
N39   N     N_3   0.065917 0.594874 0.921463 -0.430476
H85   H     H_    0.102159 0.582654 0.960766 0.237020
H86   H     H_    0.076050 0.587381 0.854335 0.204383
N40   N     N_3   0.044173 0.606146 0.095208 -0.456009
H87   H     H_    0.040846 0.649840 0.070637 0.243277
H88   H     H_    0.036533 0.609169 0.163806 0.200223
N41   N     N_3   0.613666 0.990586 0.924267 -0.491787
H89   H     H_    0.649788 0.962286 0.938589 0.230638
H90   H     H_    0.616210 0.997670 0.855445 0.187590
N42   N     N_3   0.609034 0.956522 0.097983 -0.423318
H91   H     H_    0.637660 0.990992 0.079460 0.206877
H92   H     H_    0.604461 0.956863 0.167258 0.193181
N43   N     N_3   0.558129 0.101841 0.902009 -0.423889
H93   H     H_    0.602042 0.092704 0.920563 0.204636
H94   H     H_    0.554795 0.098717 0.832732 0.192279
N44   N     N_3   0.583000 0.078093 0.075740 -0.490075
H95   H     H_    0.593578 0.122689 0.061417 0.232919
H96   H     H_    0.589403 0.074141 0.144565 0.193188
Br1   Br    Br    0.922722 0.609090 0.088849 -0.377585
Br2   Br    Br    0.955074 0.625964 0.883104 -0.386713
Br3   Br    Br    0.086747 0.397538 0.118752 -0.418331
Br4   Br    Br    0.054352 0.377581 0.912613 -0.376449
Br5   Br    Br    0.479515 0.132412 0.120047 -0.396984
Br6   Br    Br    0.441329 0.119896 0.915676 -0.344710
Br7   Br    Br    0.528978 0.869777 0.084278 -0.339992
Br8   Br    Br    0.566680 0.883750 0.879894 -0.405208
Br9   Br    Br    0.948755 0.377717 0.085959 -0.289908
Br10  Br    Br    0.915240 0.399072 0.882025 -0.329695
Br11  Br    Br    0.869929 0.478332 0.117846 -0.320828
Br12  Br    Br    0.868324 0.517576 0.914049 -0.288780
Br13  Br    Br    0.397346 0.917066 0.118103 -0.336349
Br14  Br    Br    0.427573 0.888907 0.914258 -0.288386
Br15  Br    Br    0.373964 0.041880 0.085761 -0.286403
Br16  Br    Br    0.367921 0.001042 0.881944 -0.319920

loop_
_geom_bond_atom_site_label_1
_geom_bond_atom_site_label_2
_ccdc_geom_bond_type
N23   H53   S    
C53   N17   S    
N8    H23   S    
N31   H70   S    
C30   Br9   S    
C43   N7    S    
C29   Br10  S    
C6    C58   T    
N15   H37   S    
C18   C26   S    
C41   C61   S    
C24   N43   S    
N5    H18   S    
N42   H92   S    
C55   C68   S    
N2    Zn2   S    
C2    C57   S    
C76   N28   S    
N11   H29   S    
C40   O16   A    
C46   H13   S    
N37   H81   S    
N6    H19   S    
C45   N9    S    
C41   H10   S    
N23   H54   S    
C32   Br15  S    
C44   N8    S    
N21   H49   S    
C6    C66   S    
C49   C65   S    
O10   Zn2   S    
C9    C61   S    
C43   H12   S    
O9    Zn1   S    
N18   H43   S    
N15   H38   S    
N38   H84   S    
C74   N24   S    
C11   C63   S    
N27   H62   S    
C42   C53   S    
C46   N10   S    
C12   C64   S    
C20   Br2   S    
N22   H52   S    
N7    H22   S    
C14   C38   S    
C4    O7    A    
C4    O8    A    
C49   H2    S    
N11   H30   S    
C47   H16   S    
O12   Zn2   S    
C38   O11   A    
N29   H66   S    
C9    C13   T    
N24   H55   S    
O11   Zn1   S    
N41   H90   S    
O8    Zn4   S    
C23   N44   S    
C11   C15   T    
C48   C51   S    
C72   N36   S    
C12   C16   T    
C28   C35   S    
N3    Zn3   S    
N10   H27   S    
N25   H58   S    
C48   H15   S    
C49   N13   S    
C23   C24   S    
N19   H46   S    
C52   N16   S    
C24   Br6   S    
N32   H71   S    
C23   C27   S    
N17   H42   S    
C76   N27   S    
C13   C37   S    
C25   C34   S    
C21   Br7   S    
C3    C60   S    
C3    O5    A    
C55   N19   S    
C21   C27   S    
N28   H63   S    
C2    O4    A    
N21   H50   S    
C22   C28   S    
C21   C22   S    
N33   H74   S    
C10   C62   S    
C19   N40   S    
N44   H96   S    
C73   N22   S    
C19   C25   S    
C69   N30   S    
C7    C59   T    
N42   H91   S    
C18   Br4   S    
N41   H89   S    
C40   O15   A    
N20   H48   S    
C39   O14   A    
C71   N34   S    
C48   N12   S    
C30   Br11  S    
N35   H77   S    
C24   C28   S    
N7    H21   S    
O4    Zn2   S    
N38   H83   S    
C72   C74   S    
C10   C14   T    
C1    O1    A    
C47   C64   S    
C71   C73   S    
C70   N31   S    
C54   C67   S    
C44   C62   S    
C56   C68   S    
C7    C67   S    
C32   Br13  S    
C45   C63   S    
C72   N35   S    
C31   Br14  S    
C53   H6    S    
C50   N14   S    
N13   H34   S    
N30   H68   S    
O7    Zn3   S    
N27   H61   S    
C37   O9    A    
C22   Br8   S    
C75   N26   S    
N39   H86   S    
C36   N4    T    
C26   C33   S    
N19   H45   S    
C46   C49   S    
C51   N15   S    
C68   C72   S    
C5    C65   S    
C17   C18   S    
C64   C76   S    
C75   N25   S    
N43   H94   S    
C42   H9    S    
N1    Zn1   S    
N40   H88   S    
C45   H14   S    
C42   C61   S    
C15   C39   S    
C74   N23   S    
N12   H32   S    
C16   C40   S    
N10   H28   S    
O1    Zn1   S    
C17   Br3   S    
C3    O6    A    
N14   H36   S    
N22   H51   S    
C73   N21   S    
N34   H76   S    
C2    O3    A    
C8    C68   S    
N36   H80   S    
C28   C31   S    
C70   C76   S    
N39   H85   S    
O5    Zn3   S    
C29   Br12  S    
N16   H40   S    
C18   N37   S    
C23   Br5   S    
N44   H95   S    
C69   N29   S    
C44   H11   S    
C50   H1    S    
O14   Zn4   S    
O16   Zn4   S    
C52   C66   S    
N26   H59   S    
N6    H20   S    
C56   H7    S    
N20   H47   S    
C25   C30   S    
C71   N33   S    
C21   N42   S    
N8    H24   S    
N26   H60   S    
C47   N11   S    
C27   C32   S    
C31   C32   S    
C62   C74   S    
C34   N2    T    
N14   H35   S    
C20   C26   S    
C33   N1    T    
C1    O2    A    
O3    Zn1   S    
N32   H72   S    
C47   C52   S    
C35   N3    T    
C27   C36   S    
O2    Zn2   S    
C55   H8    S    
N33   H73   S    
C5    C57   T    
C46   C63   S    
C61   C73   S    
N30   H67   S    
C19   C20   S    
C19   Br1   S    
N9    H25   S    
N37   H82   S    
C17   C25   S    
C37   O10   A    
N5    H17   S    
C8    C60   T    
C54   N18   S    
C44   C55   S    
C42   N6    S    
C66   C70   S    
C63   C75   S    
C45   C50   S    
C65   C69   S    
C51   H4    S    
C4    C59   S    
N18   H44   S    
C20   N39   S    
C31   Br16  S    
C69   C75   S    
C67   C71   S    
N36   H79   S    
O6    Zn4   S    
C38   O12   A    
N29   H65   S    
C53   C67   S    
C50   C65   S    
N24   H56   S    
C41   C54   S    
N13   H33   S    
C17   N38   S    
C48   C64   S    
N12   H31   S    
O13   Zn3   S    
C29   C30   S    
N31   H69   S    
C43   C56   S    
C39   O13   A    
N34   H75   S    
C26   C29   S    
C70   N32   S    
N25   H57   S    
N43   H93   S    
N35   H78   S    
N16   H39   S    
N4    Zn4   S    
O15   Zn3   S    
C41   N5    S    
N17   H41   S    
C1    C58   S    
N28   H64   S    
N40   H87   S    
C51   C66   S    
C54   H5    S    
C56   N20   S    
C43   C62   S    
C22   N41   S    
N9    H26   S    
C52   H3    S    
