data_mof_unit_50740.cif
_audit_creation_date              2012-10-26T19:15:05-0400
_audit_creation_method            fapswitch 2.2
_symmetry_space_group_name_H-M    P1
_symmetry_Int_Tables_number       1
_space_group_crystal_system       triclinic
_cell_length_a                    10.846054
_cell_length_b                    10.844787
_cell_length_c                    9.586721
_cell_angle_alpha                 90.786636
_cell_angle_beta                  89.140296
_cell_angle_gamma                 91.683811
_cell_volume                      1126.90688331

loop_
_atom_site_label
_atom_site_type_symbol
_atom_type_description
_atom_site_fract_x
_atom_site_fract_y
_atom_site_fract_z
_atom_type_partial_charge
C1    C     C_R   0.497846 0.262889 0.499018 0.562792
C2    C     C_R   0.575821 0.942098 0.588771 -0.030546
C3    C     C_3   0.588078 0.944435 0.744057 -0.248391
C4    C     C_R   0.262872 0.508264 0.501246 0.536492
C5    C     C_3   0.588929 0.083714 0.740221 0.107192
C6    C     C_R   0.593781 0.556713 0.071171 0.154648
C7    C     C_R   0.415672 0.431225 0.074804 -0.007970
C8    C     C_R   0.416068 0.430942 0.926023 -0.007617
C9    C     C_R   0.598393 0.548825 0.924694 0.187626
C10   C     C_3   0.651466 0.675097 0.910607 0.090240
C11   C     C_3   0.641859 0.689278 0.068380 -0.074869
C12   C     C_R   0.936256 0.428398 0.593174 -0.068784
C13   C     C_R   0.498635 0.737752 0.501161 0.527772
C14   C     C_R   0.737283 0.495751 0.498574 0.542005
C15   C     C_R   0.061586 0.451137 0.604437 0.003580
C16   C     C_R   0.129099 0.517048 0.503569 -0.020605
C17   C     C_R   0.064708 0.566124 0.389772 0.213601
C18   C     C_R   0.936282 0.550654 0.384950 -0.084476
C19   C     C_R   0.870534 0.489561 0.492391 -0.046905
C20   C     C_3   0.556850 0.796911 0.106854 -0.291766
C21   C     C_3   0.419637 0.774038 0.076392 -0.421925
C22   C     C_3   0.055159 0.596721 0.822429 -0.184204
C23   C     C_3   0.916020 0.418162 0.746816 -0.219271
C24   C     C_3   0.183647 0.656172 0.830809 -0.379389
C25   C     C_3   0.049972 0.463335 0.761653 0.247589
C26   C     C_R   0.575200 0.069340 0.586486 0.058352
C27   C     C_R   0.500130 0.130334 0.495553 0.049307
C28   C     C_R   0.430035 0.061475 0.398700 -0.157311
C29   C     C_R   0.426385 0.932740 0.404594 -0.167173
C30   C     C_R   0.497221 0.871758 0.502445 0.005141
Cu1   Cu    Cu3+1 0.499990 0.499980 0.640670 0.947212
Cu2   Cu    Cu3+1 0.500010 0.500020 0.359330 0.933400
H1    H     H_    0.678530 0.910302 0.777013 0.106405
H2    H     H_    0.372974 0.106945 0.324439 0.125825
H3    H     H_    0.365422 0.880842 0.336011 0.122142
H4    H     H_    0.504666 0.904826 0.797745 0.160779
H5    H     H_    0.197846 0.674941 0.324825 0.324017
H6    H     H_    0.502491 0.136969 0.906277 0.314916
H7    H     H_    0.772601 0.695692 0.762834 0.327660
H8    H     H_    0.406270 0.741295 0.967693 0.133035
H9    H     H_    0.377558 0.705539 0.148779 0.203384
H10   H     H_    0.370201 0.861702 0.089386 0.133761
H11   H     H_    0.570842 0.824195 0.216510 0.180565
H12   H     H_    0.677370 0.130665 0.770731 0.109757
H13   H     H_    0.589260 0.879363 0.047532 0.131652
H14   H     H_    0.247182 0.594031 0.882162 0.199578
H15   H     H_    0.218818 0.681552 0.725672 0.154073
H16   H     H_    0.179072 0.742560 0.893986 0.127742
H17   H     H_    0.998148 0.657469 0.758723 0.134256
H18   H     H_    0.014735 0.594834 0.929722 0.203123
H19   H     H_    0.121171 0.300738 0.784975 0.327481
H20   H     H_    0.345768 0.377553 0.130543 0.146865
H21   H     H_    0.347632 0.376224 0.870690 0.198601
H22   H     H_    0.590254 0.731151 0.849270 0.136920
H23   H     H_    0.733676 0.699690 0.118201 0.155668
H24   H     H_    0.887487 0.594820 0.302310 0.152232
H25   H     H_    0.846375 0.480285 0.790566 0.188631
H26   H     H_    0.899179 0.320406 0.777156 0.128171
N1    N     N_R   0.500790 0.500930 0.147930 -0.248876
N2    N     N_R   0.500790 0.500890 0.852020 -0.274601
O1    O     O_R   0.500000 0.319640 0.618810 -0.445945
O2    O     O_3   0.483666 0.131478 0.805390 -0.681532
O3    O     O_3   0.774200 0.677448 0.863915 -0.764970
O4    O     O_3   0.121191 0.381011 0.836148 -0.704614
O5    O     O_R   0.500010 0.319680 0.381230 -0.517310
O6    O     O_R   0.319650 0.499970 0.618810 -0.495825
O7    O     O_R   0.319660 0.500010 0.381230 -0.494678
O8    O     O_R   0.499990 0.680320 0.618770 -0.524823
O9    O     O_R   0.500000 0.680360 0.381190 -0.518878
O10   O     O_R   0.680340 0.499990 0.618770 -0.505693
O11   O     O_R   0.680350 0.500030 0.381190 -0.503414
O12   O     O_3   0.121689 0.635795 0.286680 -0.701827

loop_
_geom_bond_atom_site_label_1
_geom_bond_atom_site_label_2
_ccdc_geom_bond_type
C8    H21   S    
Cu1   N2    S    
C4    O7    A    
C1    O5    A    
C5    O2    S    
C4    C16   S    
Cu2   O9    S    
Cu1   O6    S    
H7    O3    S    
C9    C10   S    
Cu1   O1    S    
Cu1   Cu2   S    
C12   C15   A    
C18   H24   S    
C22   H18   S    
C9    N2    A    
C24   H14   S    
C6    C9    A    
C23   C25   S    
C2    C3    S    
C28   H2    S    
C7    C8    A    
C2    C26   A    
C14   O11   A    
C8    N2    A    
C4    O6    A    
C14   O10   A    
C12   C23   S    
C26   C27   A    
C29   C30   A    
C21   H8    S    
C13   O9    A    
C3    H4    S    
Cu2   O7    S    
C21   H9    S    
C14   C19   S    
C12   C19   A    
C7    N1    A    
C28   C29   A    
C5    H12   S    
C7    H20   S    
C17   C18   A    
Cu2   O11   S    
C22   H17   S    
C10   O3    S    
Cu1   O8    S    
C10   H22   S    
C22   C24   S    
C11   C20   S    
C15   C25   S    
C2    C30   A    
C3    H1    S    
C5    C26   S    
C24   H16   S    
C20   H13   S    
C13   C30   S    
C27   C28   A    
C20   H11   S    
C11   H23   S    
C20   C21   S    
C22   C25   S    
C17   O12   S    
C1    C27   S    
C18   C19   A    
C10   C11   S    
H5    O12   S    
C6    C11   S    
C23   H25   S    
C29   H3    S    
C16   C17   A    
C21   H10   S    
Cu2   N1    S    
C3    C5    S    
C24   H15   S    
C6    N1    A    
C25   O4    S    
Cu1   O10   S    
C23   H26   S    
H19   O4    S    
C15   C16   A    
Cu2   O5    S    
H6    O2    S    
C13   O8    A    
C1    O1    A    
