data_mof_unit_36640.cif
_audit_creation_date              2013-03-05T15:41:18-0500
_audit_creation_method            fapswitch 2.2
_symmetry_space_group_name_H-M    P1
_symmetry_Int_Tables_number       1
_space_group_crystal_system       triclinic
_cell_length_a                    16.865582
_cell_length_b                    16.733924
_cell_length_c                    16.758207
_cell_angle_alpha                 65.694644
_cell_angle_beta                  66.049232
_cell_angle_gamma                 66.127123
_cell_volume                      3775.54751385

loop_
_atom_site_label
_atom_site_type_symbol
_atom_site_description
_atom_site_fract_x
_atom_site_fract_y
_atom_site_fract_z
_atom_type_partial_charge
O1    O     O_R   0.982940 0.138950 0.510160 -0.643826
O2    O     O_R   0.017060 0.861050 0.489840 -0.642943
O3    O     O_R   0.138950 0.510160 0.982940 -0.623340
O4    O     O_R   0.861050 0.489840 0.017060 -0.628777
O5    O     O_R   0.510160 0.982940 0.138950 -0.656588
O6    O     O_R   0.489840 0.017060 0.861050 -0.634652
O7    O     O_R   0.489840 0.861050 0.017060 -0.621323
O8    O     O_R   0.510160 0.138950 0.982940 -0.615491
O9    O     O_R   0.017060 0.489840 0.861050 -0.640389
O10   O     O_R   0.982940 0.510160 0.138950 -0.642995
O11   O     O_R   0.861050 0.017060 0.489840 -0.615252
O12   O     O_R   0.138950 0.982940 0.510160 -0.618746
C1    C     C_R   0.314922 0.002207 0.429995 -0.004612
C2    C     C_R   0.685127 0.997778 0.569812 -0.006694
C3    C     C_R   0.946605 0.460224 0.325898 -0.000933
C4    C     C_R   0.052963 0.539796 0.674197 -0.003374
C5    C     C_R   0.429633 0.296841 0.033253 -0.000060
C6    C     C_R   0.570791 0.680418 0.002035 -0.007687
C7    C     C_R   0.541174 0.056019 0.672084 -0.007895
C8    C     C_R   0.458874 0.943620 0.327935 -0.018304
C9    C     C_R   0.674078 0.536767 0.062385 -0.006634
C10   C     C_R   0.328581 0.440240 0.967857 -0.010165
C11   C     C_R   0.060066 0.671199 0.538437 -0.007162
C12   C     C_R   0.939455 0.328863 0.461690 -0.008357
O13   O     O_R   0.867700 0.025880 0.612340 -0.572275
O14   O     O_R   0.132300 0.974120 0.387660 -0.563869
O15   O     O_R   0.025880 0.612340 0.867700 -0.554817
O16   O     O_R   0.974120 0.387660 0.132300 -0.552323
O17   O     O_R   0.612340 0.867700 0.025880 -0.568864
O18   O     O_R   0.387660 0.132300 0.974120 -0.560837
O19   O     O_R   0.387660 0.974120 0.132300 -0.555645
O20   O     O_R   0.612340 0.025880 0.867700 -0.554643
O21   O     O_R   0.132300 0.387660 0.974120 -0.559979
O22   O     O_R   0.867700 0.612340 0.025880 -0.559081
O23   O     O_R   0.974120 0.132300 0.387660 -0.545165
O24   O     O_R   0.025880 0.867700 0.612340 -0.556550
C13   C     C_R   0.959651 0.179823 0.438905 0.896626
C14   C     C_R   0.040263 0.820160 0.561144 0.884012
C15   C     C_R   0.179010 0.433209 0.971136 0.881118
C16   C     C_R   0.820925 0.559785 0.042333 0.876861
C17   C     C_R   0.439411 0.959034 0.179552 0.872738
C18   C     C_R   0.560675 0.040763 0.820443 0.903864
C19   C     C_R   0.568706 0.822356 0.023259 0.891328
C20   C     C_R   0.424937 0.162096 0.006238 0.897379
C21   C     C_R   0.038945 0.561674 0.820405 0.894397
C22   C     C_R   0.961195 0.438224 0.179599 0.888144
C23   C     C_R   0.822873 0.022734 0.568888 0.895147
C24   C     C_R   0.177116 0.977313 0.431068 0.903612
C25   C     C_R   0.409841 0.977747 0.403619 0.072994
C26   C     C_R   0.590213 0.022039 0.596300 0.076449
C27   C     C_R   0.952389 0.416469 0.415818 0.067206
C28   C     C_R   0.047055 0.583616 0.584321 0.066684
C29   C     C_R   0.404126 0.392759 0.002876 0.081910
C30   C     C_R   0.598443 0.584226 0.028436 0.076970
C31   C     C_R   0.272074 0.972308 0.393329 -0.220780
C32   C     C_R   0.727913 0.027736 0.606516 -0.227962
C33   C     C_R   0.936771 0.410855 0.279294 -0.216539
C34   C     C_R   0.063172 0.589019 0.720694 -0.227250
C35   C     C_R   0.382097 0.250676 0.022630 -0.216233
C36   C     C_R   0.606483 0.725828 0.030314 -0.228509
C37   C     C_R   0.589921 0.062224 0.720807 -0.214338
C38   C     C_R   0.410112 0.937555 0.279160 -0.193114
C39   C     C_R   0.722091 0.588013 0.065497 -0.206421
C40   C     C_R   0.270888 0.389880 0.979158 -0.223954
C41   C     C_R   0.065957 0.719605 0.588582 -0.215638
C42   C     C_R   0.933758 0.280387 0.411521 -0.212038
Zn1   Zn    Zn3+2 0.004880 0.004880 0.583590 1.189308
Zn2   Zn    Zn3+2 0.995120 0.995120 0.416410 1.206767
Zn3   Zn    Zn3+2 0.004880 0.583590 0.004880 1.183798
Zn4   Zn    Zn3+2 0.995120 0.416410 0.995120 1.186771
Zn5   Zn    Zn3+2 0.583590 0.004880 0.004880 1.170967
Zn6   Zn    Zn3+2 0.416410 0.995120 0.995120 1.188747
C43   C     C_R   0.446007 0.084464 0.695599 -0.076113
C44   C     C_R   0.554034 0.914921 0.304558 -0.061964
C45   C     C_R   0.068914 0.706160 0.443649 -0.072393
C46   C     C_R   0.930574 0.293893 0.556473 -0.070435
C47   C     C_R   0.698983 0.440534 0.093086 -0.078823
C48   C     C_R   0.312260 0.535576 0.925922 -0.098320
C49   C     C_R   0.266827 0.052910 0.493574 -0.104947
C50   C     C_R   0.733253 0.947161 0.506141 -0.108083
C51   C     C_R   0.500696 0.249249 0.074042 -0.109636
C52   C     C_R   0.508332 0.726820 0.949923 -0.116621
C53   C     C_R   0.950942 0.551945 0.286033 -0.077566
C54   C     C_R   0.048441 0.448133 0.714110 -0.094867
C55   C     C_R   0.322510 0.933301 0.322135 0.239222
C56   C     C_R   0.677433 0.066727 0.677708 0.226989
C57   C     C_R   0.918987 0.326808 0.326453 0.228088
C58   C     C_R   0.080985 0.673030 0.673541 0.215962
C59   C     C_R   0.296247 0.294553 0.014240 0.223519
C60   C     C_R   0.678492 0.676472 0.068527 0.232631
C61   C     C_R   0.690115 0.937922 0.455400 -0.052765
C62   C     C_R   0.309949 0.061966 0.544438 -0.056048
C63   C     C_R   0.013774 0.410990 0.678742 -0.088810
C64   C     C_R   0.985526 0.589147 0.321433 -0.093765
C65   C     C_R   0.461628 0.680372 0.938982 -0.060547
C66   C     C_R   0.550869 0.295337 0.079754 -0.060378
C67   C     C_R   0.600445 0.921792 0.354121 -0.058096
C68   C     C_R   0.399595 0.077584 0.646053 -0.053549
C69   C     C_R   0.362968 0.584493 0.927384 -0.071744
C70   C     C_R   0.650568 0.391169 0.089005 -0.078431
C71   C     C_R   0.952518 0.334823 0.600269 -0.075622
C72   C     C_R   0.046887 0.665264 0.399879 -0.076470
C73   C     C_R   0.740213 0.898551 0.382961 0.334922
C74   C     C_R   0.259837 0.101261 0.616930 0.339151
C75   C     C_R   0.986277 0.330519 0.730824 0.360939
C76   C     C_R   0.013054 0.669595 0.269344 0.361164
C77   C     C_R   0.394184 0.728009 0.892706 0.328608
C78   C     C_R   0.623381 0.247046 0.119134 0.327300
C79   C     C_R   0.695822 0.890470 0.332554 0.376028
C80   C     C_R   0.304211 0.108894 0.667642 0.362956
C81   C     C_R   0.344723 0.680450 0.887573 0.349988
C82   C     C_R   0.673435 0.294642 0.122991 0.353319
C83   C     C_R   0.951977 0.294855 0.692957 0.377275
C84   C     C_R   0.047471 0.705191 0.307173 0.376331
H1    H     H_    0.408553 0.116365 0.749702 0.208773
H2    H     H_    0.591455 0.882970 0.250476 0.222972
H3    H     H_    0.094920 0.764297 0.403005 0.226869
H4    H     H_    0.904665 0.235687 0.597067 0.226932
H5    H     H_    0.753493 0.404682 0.124450 0.220336
H6    H     H_    0.260951 0.571644 0.890636 0.220873
H7    H     H_    0.195763 0.087459 0.502525 0.204523
H8    H     H_    0.804339 0.912707 0.497093 0.202997
H9    H     H_    0.514579 0.175985 0.104211 0.198258
H10   H     H_    0.497174 0.799033 0.915795 0.208317
H11   H     H_    0.924864 0.596994 0.228909 0.235151
H12   H     H_    0.074525 0.403021 0.771208 0.226666
C85   C     C_R   0.550315 0.960933 0.426943 -0.019395
C86   C     C_R   0.449741 0.038655 0.573090 -0.016521
C87   C     C_R   0.977472 0.416607 0.549692 -0.024395
C88   C     C_R   0.021840 0.583537 0.450486 -0.024026
C89   C     C_R   0.433065 0.536531 0.970186 -0.025043
C90   C     C_R   0.577366 0.439533 0.050442 -0.025559
C91   C     C_R   0.595148 0.970151 0.476606 -0.013365
C92   C     C_R   0.404912 0.029570 0.523339 -0.012942
C93   C     C_R   0.481940 0.584366 0.976344 -0.019433
C94   C     C_R   0.528091 0.391724 0.045035 -0.019368
C95   C     C_R   0.004837 0.456470 0.590141 -0.021553
C96   C     C_R   0.994455 0.543682 0.410041 -0.021172
C97   C     C_R   0.455106 0.989947 0.450928 0.066417
C98   C     C_R   0.544955 0.009756 0.549031 0.065586
C99   C     C_R   0.973446 0.459540 0.459043 0.062088
C100  C     C_R   0.025875 0.540603 0.541133 0.060678
C101  C     C_R   0.455002 0.440430 0.006130 0.061779
C102  C     C_R   0.552650 0.535990 0.018247 0.063122
N1    N     N_R   0.287405 0.886329 0.294630 0.219838
O25   O     O_R   0.321517 0.798345 0.309036 -0.363590
O26   O     O_R   0.235880 0.932002 0.240429 -0.272945
N2    N     N_R   0.712355 0.114087 0.704942 0.223742
O27   O     O_R   0.763766 0.068815 0.759266 -0.293149
O28   O     O_R   0.678491 0.202172 0.689759 -0.359984
N3    N     N_R   0.879843 0.291392 0.290813 0.217874
O29   O     O_R   0.792405 0.307816 0.315874 -0.353068
O30   O     O_R   0.930466 0.238924 0.238249 -0.265123
N4    N     N_R   0.120893 0.707893 0.708929 0.225210
O31   O     O_R   0.070983 0.761367 0.760586 -0.283237
O32   O     O_R   0.208433 0.682902 0.691515 -0.343691
N5    N     N_R   0.233735 0.240965 0.049983 0.229598
O33   O     O_R   0.209103 0.201076 0.137489 -0.379536
O34   O     O_R   0.215404 0.218105 0.995252 -0.277750
N6    N     N_R   0.706099 0.713341 0.113768 0.222410
O35   O     O_R   0.690846 0.681154 0.202031 -0.365742
O36   O     O_R   0.760343 0.764898 0.066874 -0.285148
Cl1   Cl    Cl    0.238531 0.157889 0.758499 -0.448432
Cl2   Cl    Cl    0.761474 0.841104 0.241969 -0.400219
Cl3   Cl    Cl    0.088919 0.801380 0.237652 -0.385959
Cl4   Cl    Cl    0.910777 0.198499 0.762396 -0.389334
Cl5   Cl    Cl    0.765056 0.231405 0.170953 -0.387166
Cl6   Cl    Cl    0.258670 0.743260 0.831906 -0.395320
Cl7   Cl    Cl    0.140437 0.136282 0.649073 -0.508400
Cl8   Cl    Cl    0.859601 0.864137 0.350401 -0.505669
Cl9   Cl    Cl    0.653388 0.126090 0.163735 -0.503268
Cl10  Cl    Cl    0.368978 0.848273 0.841933 -0.501823
Cl11  Cl    Cl    0.010593 0.723377 0.154222 -0.402229
Cl12  Cl    Cl    0.988652 0.276771 0.845980 -0.406625

loop_
_geom_bond_atom_site_label_1
_geom_bond_atom_site_label_2
_geom_bond_distance
_ccdc_geom_bond_type
C90   C102  1.411138 A    
C24   C31   1.443799 S    
C30   C102  1.415010 A    
C95   C100  1.413646 A    
C1    C49   1.413689 A    
O9    C21   1.235372 A    
N5    O33   1.301016 A    
C68   C80   1.412308 A    
C71   C83   1.413627 A    
C2    C32   1.434375 A    
C45   H3    1.077082 S    
O12   C24   1.241368 A    
O4    Zn4   2.050835 S    
N1    O25   1.300593 A    
O24   Zn1   2.048700 S    
C66   C94   1.412468 A    
C50   H8    1.075957 S    
O11   Zn2   2.050068 S    
C41   C58   1.385051 A    
O6    Zn6   2.036268 S    
C15   C40   1.457552 S    
C49   H7    1.076010 S    
O16   C22   1.286186 A    
O21   C15   1.275447 A    
C16   C39   1.463086 S    
C76   C84   1.408217 A    
O22   C16   1.287298 A    
C40   C59   1.397534 A    
C75   C83   1.408114 A    
O3    Zn3   2.050835 S    
C55   N1    1.441297 S    
C94   C101  1.418007 A    
O2    Zn2   2.027223 S    
C93   C102  1.414654 A    
C9    C30   1.406727 A    
O1    C13   1.240555 A    
C26   C98   1.415749 A    
C87   C99   1.405100 A    
C20   C35   1.449778 S    
C4    C54   1.419401 A    
C47   C70   1.411266 A    
C35   C59   1.369350 A    
C63   C75   1.414041 A    
O11   C23   1.240954 A    
O4    C16   1.241597 A    
O13   Zn1   2.069958 S    
O10   C22   1.235747 A    
C45   C72   1.408768 A    
N3    O29   1.300287 A    
O7    C19   1.248591 A    
O14   C24   1.270602 A    
C44   C67   1.412483 A    
O13   C23   1.270976 A    
N4    O32   1.300276 A    
O15   Zn3   2.051388 S    
C67   C85   1.416033 A    
O15   C21   1.286751 A    
C12   C27   1.408071 A    
C68   C86   1.415938 A    
C66   C78   1.414380 A    
O3    C15   1.245282 A    
N5    O34   1.303056 A    
C57   N3    1.439462 S    
O17   C19   1.274718 A    
C8    C38   1.427016 A    
C3    C33   1.437778 A    
O18   C20   1.297283 A    
C85   C97   1.407582 A    
C17   C38   1.462846 S    
C53   H11   1.075887 S    
C6    C52   1.414885 A    
C52   H10   1.075709 S    
N1    O26   1.302346 A    
O20   Zn5   2.052160 S    
C77   Cl10  1.773804 S    
C27   C99   1.419913 A    
C54   H12   1.075788 S    
C43   C68   1.412344 A    
O12   Zn1   2.050068 S    
O16   Zn4   2.051388 S    
C21   C34   1.461538 S    
C85   C91   1.413950 A    
C7    C43   1.407319 A    
O9    Zn4   2.028585 S    
C10   C48   1.411890 A    
C4    C28   1.403450 A    
C36   C60   1.396907 A    
C11   C45   1.414566 A    
C42   C57   1.384866 A    
C51   C66   1.405266 A    
C6    C30   1.406395 A    
C12   C46   1.414374 A    
C3    C53   1.419352 A    
C82   Cl5   1.771521 S    
C96   C99   1.413575 A    
C28   C100  1.419986 A    
C78   C82   1.407891 A    
C34   C58   1.387691 A    
C29   C101  1.415429 A    
C58   N4    1.439368 S    
C31   C55   1.393124 A    
C48   H6    1.077838 S    
C8    C25   1.407517 A    
C72   C84   1.413701 A    
C86   C92   1.413852 A    
C73   Cl8   1.764032 S    
C67   C79   1.412231 A    
O2    C14   1.240580 A    
C32   C56   1.392979 A    
O22   Zn3   2.070147 S    
C14   C41   1.471478 S    
C90   C94   1.413455 A    
C69   C81   1.415295 A    
C13   C42   1.471510 S    
C65   C93   1.411036 A    
N4    O31   1.301952 A    
C8    C44   1.407282 A    
C4    C34   1.437831 A    
N2    O27   1.302295 A    
C18   C37   1.463325 S    
O8    C20   1.259617 A    
C49   C62   1.406178 A    
C65   C77   1.415656 A    
C61   C91   1.406754 A    
C5    C35   1.414791 A    
C1    C25   1.403467 A    
C10   C29   1.415238 A    
N2    O28   1.300573 A    
C6    C36   1.436180 A    
O19   Zn6   2.052161 S    
C51   H9    1.080285 S    
C70   C82   1.413860 A    
C3    C27   1.403429 A    
C75   Cl12  1.771855 S    
C25   C97   1.415582 A    
C22   C33   1.461085 S    
O21   Zn4   2.070148 S    
C64   C96   1.401897 A    
C88   C96   1.411761 A    
C5    C29   1.402424 A    
O7    Zn6   2.035683 S    
C89   C101  1.409888 A    
C2    C50   1.413906 A    
C84   Cl3   1.772760 S    
C46   C71   1.408645 A    
O5    C17   1.244945 A    
C64   C76   1.413964 A    
O8    Zn5   2.035681 S    
O20   C18   1.292561 A    
C52   C65   1.410082 A    
O19   C17   1.292597 A    
O23   C13   1.290141 A    
C77   C81   1.410186 A    
C62   C92   1.406866 A    
C72   C88   1.410685 A    
C61   C73   1.413036 A    
C47   H5    1.080581 S    
C79   Cl2   1.772046 S    
C56   N2    1.441215 S    
O18   Zn6   2.049666 S    
C80   Cl1   1.772209 S    
C70   C90   1.416099 A    
C59   N5    1.443894 S    
C12   C42   1.436747 A    
C89   C93   1.414916 A    
C43   H1    1.080061 S    
C69   C89   1.415231 A    
C73   C79   1.407766 A    
C19   C36   1.449145 S    
O14   Zn2   2.069958 S    
N6    O35   1.300575 A    
C11   C41   1.437175 A    
C50   C61   1.406346 A    
O24   C14   1.290151 A    
C86   C98   1.407622 A    
C83   Cl4   1.772742 S    
O5    Zn5   2.036267 S    
C44   H2    1.080262 S    
C74   C80   1.407756 A    
C53   C64   1.399495 A    
C7    C26   1.407591 A    
C11   C28   1.408200 A    
C2    C26   1.403482 A    
O23   Zn2   2.048698 S    
C7    C37   1.427332 A    
C39   C60   1.372959 A    
O1    Zn1   2.027223 S    
C76   Cl11  1.771764 S    
C5    C51   1.407972 A    
C54   C63   1.399360 A    
N3    O30   1.301945 A    
C60   N6    1.440973 S    
C88   C100  1.405119 A    
C46   H4    1.077085 S    
C9    C39   1.423728 A    
C63   C95   1.401842 A    
C37   C56   1.373122 A    
C62   C74   1.413032 A    
C10   C40   1.440683 A    
O10   Zn3   2.028585 S    
C33   C57   1.388022 A    
C87   C95   1.411705 A    
C91   C98   1.415205 A    
O6    C18   1.244566 A    
C78   Cl9   1.773191 S    
C9    C47   1.407229 A    
C48   C69   1.414995 A    
C92   C97   1.415194 A    
C38   C55   1.373194 A    
C74   Cl7   1.764292 S    
C81   Cl6   1.771637 S    
C1    C31   1.433995 A    
N6    O36   1.302276 A    
C23   C32   1.443809 S    
O17   Zn5   2.049664 S    
C71   C87   1.410747 A    
