data_mof_unit_25110.cif
_audit_creation_date              2012-12-10T20:55:42-0500
_audit_creation_method            fapswitch 2.2
_symmetry_space_group_name_H-M    P1
_symmetry_Int_Tables_number       1
_space_group_crystal_system       triclinic
_cell_length_a                    15.792854
_cell_length_b                    15.030842
_cell_length_c                    10.630508
_cell_angle_alpha                 86.79255
_cell_angle_beta                  91.376341
_cell_angle_gamma                 91.049966
_cell_volume                      2518.42443184

loop_
_atom_site_label
_atom_site_type_symbol
_atom_type_description
_atom_site_fract_x
_atom_site_fract_y
_atom_site_fract_z
_atom_type_partial_charge
C1    C     C_1   0.250175 0.496621 0.509118 0.014704
C2    C     C_R   0.426778 0.047021 0.461562 -0.133035
C3    C     C_R   0.958520 0.579129 0.530489 0.228595
C4    C     C_R   0.040342 0.421694 0.465290 0.290450
C5    C     C_R   0.045258 0.568426 0.559513 0.237606
C6    C     C_R   0.953568 0.432454 0.436461 0.305037
C7    C     C_R   0.338732 0.499105 0.502925 0.972692
C8    C     C_R   0.661235 0.500876 0.499244 0.855865
C9    C     C_R   0.499811 0.503261 0.257592 0.909665
C10   C     C_R   0.518901 0.498042 0.737619 0.911605
C11   C     C_R   0.913507 0.508257 0.477243 -0.258781
C12   C     C_1   0.749419 0.503599 0.491412 -0.013339
C13   C     C_R   0.085563 0.492583 0.518749 -0.256775
C14   C     C_1   0.499709 0.807290 0.499305 0.292861
C15   C     C_1   0.499801 0.192799 0.498474 0.177196
C16   C     C_1   0.824156 0.506487 0.483491 0.225890
C17   C     C_1   0.175169 0.493901 0.514785 0.230031
C18   C     C_R   0.625416 0.621774 0.130113 0.358313
C19   C     C_R   0.502224 0.331118 0.914069 0.420899
C20   C     C_R   0.648573 0.611109 0.878568 0.372867
C21   C     C_R   0.393148 0.389940 0.094651 0.471675
C22   C     C_R   0.708210 0.626793 0.085575 -0.248246
C23   C     C_R   0.539673 0.491870 0.871883 -0.127340
C24   C     C_R   0.441031 0.273049 0.967162 -0.261607
C25   C     C_R   0.720274 0.619786 0.957050 -0.157204
C26   C     C_R   0.382844 0.304434 0.049726 -0.235573
C27   C     C_R   0.578617 0.563561 0.932452 -0.019298
C28   C     C_R   0.462814 0.444214 0.053250 -0.095210
C29   C     C_R   0.565408 0.569623 0.062640 -0.035252
C30   C     C_R   0.502735 0.421630 0.944781 -0.125552
C31   C     C_R   0.502622 0.512185 0.121429 -0.087622
C32   C     C_R   0.499748 0.905087 0.498493 0.018644
C33   C     C_R   0.499871 0.095014 0.497642 0.035628
C34   C     C_R   0.426724 0.953108 0.461975 -0.102155
C35   C     C_R   0.572922 0.046963 0.534020 -0.074033
C36   C     C_R   0.572880 0.953072 0.534335 -0.099927
H1    H     H_    0.331200 0.261177 0.081753 0.222891
H2    H     H_    0.779018 0.360006 0.229913 0.381921
H3    H     H_    0.849982 0.697318 0.364691 0.349125
H4    H     H_    0.207916 0.255663 0.512068 0.393619
H5    H     H_    0.694252 0.816225 0.143210 0.375280
H6    H     H_    0.664355 0.281606 0.023369 0.348545
H7    H     H_    0.668293 0.847720 0.787784 0.388363
H8    H     H_    0.175000 0.451926 0.130641 0.404823
H9    H     H_    0.779102 0.645722 0.918158 0.229467
H10   H     H_    0.438389 0.203669 0.944651 0.219273
H11   H     H_    0.758259 0.657461 0.140573 0.185379
H12   H     H_    0.369561 0.082190 0.433224 0.160238
H13   H     H_    0.630081 0.917884 0.562676 0.176932
H14   H     H_    0.630121 0.082092 0.562438 0.188488
H15   H     H_    0.369483 0.917944 0.433844 0.170559
H16   H     H_    0.155096 0.547310 0.790344 0.372725
N1    N     N_1   0.500000 0.270550 0.500000 -0.052495
N2    N     N_1   0.500000 0.729450 0.500000 0.006009
O1    O     O_R   0.378020 0.573650 0.500040 -0.598033
O2    O     O_2   0.048265 0.685506 0.746669 -0.177887
O3    O     O_3   0.183258 0.593268 0.734620 -0.524364
O4    O     O_2   0.948270 0.312118 0.253304 -0.171157
O5    O     O_2   0.855428 0.284802 0.433644 -0.230584
O6    O     O_3   0.815505 0.408113 0.262907 -0.587294
O7    O     O_2   0.871176 0.678191 0.683295 -0.206667
O8    O     O_2   0.964322 0.760333 0.535055 -0.170356
O9    O     O_3   0.823941 0.695458 0.448671 -0.493324
O10   O     O_2   0.032390 0.241198 0.473707 -0.169693
O11   O     O_2   0.119863 0.316587 0.311447 -0.214499
O12   O     O_R   0.621980 0.426350 0.499960 -0.593314
O13   O     O_3   0.176909 0.306565 0.542797 -0.546063
O14   O     O_2   0.500463 0.729776 0.198303 -0.226105
O15   O     O_2   0.631263 0.722601 0.329276 -0.297521
O16   O     O_3   0.634986 0.809102 0.112266 -0.451264
O17   O     O_2   0.562744 0.212978 0.761140 -0.280692
O18   O     O_2   0.647159 0.350539 0.779385 -0.300545
O19   O     O_3   0.648844 0.233240 0.967077 -0.474195
O20   O     O_2   0.662518 0.697707 0.652137 -0.249278
O21   O     O_2   0.538041 0.730383 0.776143 -0.278916
O22   O     O_3   0.684208 0.794944 0.842632 -0.481477
O23   O     O_R   0.621980 0.573650 0.499960 -0.548037
O24   O     O_2   0.293608 0.371702 0.292254 -0.297413
O25   O     O_2   0.322117 0.525887 0.210259 -0.322775
O26   O     O_3   0.220473 0.425966 0.082394 -0.497275
O27   O     O_R   0.378020 0.426350 0.500040 -0.581855
O28   O     O_R   0.499990 0.573670 0.316780 -0.552029
O29   O     O_R   0.500010 0.426330 0.683220 -0.597307
O30   O     O_R   0.500010 0.573670 0.683220 -0.564221
O31   O     O_R   0.499990 0.426330 0.316780 -0.633114
O32   O     O_2   0.141028 0.717507 0.567847 -0.196576
S1    S     S_3+6 0.103767 0.644772 0.653290 0.123910
S2    S     S_3+6 0.893754 0.355306 0.345527 0.104774
S3    S     S_3+6 0.905377 0.681214 0.552421 0.132479
S4    S     S_3+6 0.091847 0.318525 0.445312 0.125188
S5    S     S_3+6 0.595113 0.721048 0.197520 0.082374
S6    S     S_3+6 0.591595 0.282952 0.848643 0.064180
S7    S     S_3+6 0.630668 0.708909 0.781845 0.071579
S8    S     S_3+6 0.307506 0.431076 0.176135 0.038675
Zn1   Zn    Zn3+2 0.500000 0.598370 0.500000 1.169422
Zn2   Zn    Zn3+2 0.500000 0.401630 0.500000 1.080830

loop_
_geom_bond_atom_site_label_1
_geom_bond_atom_site_label_2
_ccdc_geom_bond_type
C20   S7    S    
C8    O12   A    
C25   H9    S    
C27   C29   A    
O16   S5    S    
O10   S4    D    
C21   C26   A    
O6    S2    S    
C34   H15   S    
C18   S5    S    
C15   N1    T    
C24   C26   A    
O18   S6    D    
O31   Zn2   S    
C20   C25   A    
O8    S3    D    
C10   O29   A    
O14   S5    D    
C6    S2    S    
C22   C25   A    
C4    C13   A    
O5    S2    D    
C19   S6    S    
C9    O31   A    
O17   S6    D    
C12   C16   T    
H4    O13   S    
C23   C27   A    
C5    C13   A    
C9    O28   A    
C2    C34   A    
C22   H11   S    
C18   C22   A    
N1    Zn2   S    
O20   S7    D    
O7    S3    D    
C4    S4    S    
O11   S4    D    
C23   C30   A    
H8    O26   S    
O25   S8    D    
O1    Zn1   S    
C6    C11   A    
O27   Zn2   S    
O32   S1    D    
O2    S1    D    
C2    H12   S    
O23   Zn1   S    
O13   S4    S    
O3    S1    S    
O30   Zn1   S    
C32   C34   A    
O22   S7    S    
C11   C16   S    
C8    C12   S    
O9    S3    S    
C35   H14   S    
C18   C29   A    
N2    Zn1   S    
H2    O6    S    
C7    O1    A    
C2    C33   A    
C4    C6    A    
C7    O27   A    
C21   C28   A    
C8    O23   A    
O26   S8    S    
C32   C36   A    
O21   S7    D    
O12   Zn2   S    
H7    O22   S    
H6    O19   S    
O28   Zn1   S    
C14   N2    T    
C1    C7    S    
C28   C31   A    
O19   S6    S    
C14   C32   S    
C3    C5    A    
O4    S2    D    
C26   H1    S    
C20   C27   A    
C10   C23   S    
H3    O9    S    
C1    C17   T    
C13   C17   S    
C3    S3    S    
C24   H10   S    
C28   C30   A    
C19   C24   A    
C29   C31   A    
O24   S8    D    
O29   Zn2   S    
C10   O30   A    
C33   C35   A    
C3    C11   A    
H16   O3    S    
C9    C31   S    
C5    S1    S    
C21   S8    S    
C35   C36   A    
O15   S5    D    
C19   C30   A    
C15   C33   S    
C36   H13   S    
H5    O16   S    
