data_mof_unit_28545.cif
_audit_creation_date              2012-10-26T20:34:04-0400
_audit_creation_method            fapswitch 2.2
_symmetry_space_group_name_H-M    P1
_symmetry_Int_Tables_number       1
_space_group_crystal_system       triclinic
_cell_length_a                    15.925778
_cell_length_b                    9.096319
_cell_length_c                    7.786535
_cell_angle_alpha                 90.001645
_cell_angle_beta                  90.048217
_cell_angle_gamma                 90.000448
_cell_volume                      1128.00344465

loop_
_atom_site_label
_atom_site_type_symbol
_atom_type_description
_atom_site_fract_x
_atom_site_fract_y
_atom_site_fract_z
_atom_type_partial_charge
C1    C     C_R   0.500001 0.220021 0.499999 0.554023
C2    C     C_3   0.049320 0.451113 0.309104 0.483291
C3    C     C_3   0.950657 0.376908 0.640558 0.474023
C4    C     C_3   0.949594 0.447543 0.312713 0.539906
C5    C     C_1   0.749521 0.496993 0.500164 -0.012367
C6    C     C_1   0.250478 0.497202 0.499434 -0.012311
C7    C     C_3   0.082921 0.488036 0.495870 -0.038612
C8    C     C_3   0.917077 0.487345 0.498842 -0.038956
C9    C     C_3   0.951482 0.642761 0.544364 -0.264603
C10   C     C_3   0.048546 0.642598 0.545161 -0.263731
C11   C     C_1   0.824812 0.493183 0.499871 -0.060937
C12   C     C_1   0.175185 0.493616 0.498136 -0.060553
C13   C     C_R   0.339841 0.499958 0.499907 0.550373
C14   C     C_R   0.660159 0.499938 0.500067 0.548984
C15   C     C_1   0.500002 0.934639 0.500002 -0.033699
C16   C     C_1   0.500002 0.065370 0.499998 -0.033043
C17   C     C_R   0.500001 0.779987 0.500001 0.552743
C18   C     C_3   0.050394 0.375356 0.635424 0.530898
Cu1   Cu    Cu3+1 0.500000 0.500010 0.669080 1.047233
Cu2   Cu    Cu3+1 0.500000 0.500010 0.330920 1.047576
H1    H     H_    0.071530 0.675831 0.674465 0.198089
H2    H     H_    0.140199 0.391504 0.808751 0.348914
H3    H     H_    0.859824 0.533860 0.170516 0.349027
H4    H     H_    0.863153 0.416106 0.814728 0.321588
H5    H     H_    0.071943 0.727644 0.454302 0.181350
H6    H     H_    0.928099 0.678750 0.672272 0.191621
H7    H     H_    0.928502 0.725974 0.450703 0.186759
H8    H     H_    0.857486 0.234459 0.625577 0.328861
H9    H     H_    0.945586 0.229539 0.319212 0.363601
H10   H     H_    0.054409 0.188016 0.505035 0.361078
H11   H     H_    0.142451 0.320721 0.240277 0.329834
H12   H     H_    0.136792 0.557969 0.179200 0.318446
N1    N     N_1   0.500000 0.499970 0.076820 -0.074472
N2    N     N_1   0.500000 0.499970 0.923180 -0.074465
O1    O     O_R   0.500000 0.288400 0.642760 -0.494869
O2    O     O_3   0.917232 0.310318 0.257613 -0.619551
O3    O     O_3   0.082753 0.232642 0.604981 -0.642098
O4    O     O_3   0.080419 0.315045 0.248767 -0.664590
O5    O     O_3   0.074948 0.562494 0.193166 -0.581020
O6    O     O_3   0.080283 0.420388 0.798324 -0.549960
O7    O     O_3   0.919675 0.555039 0.196468 -0.573852
O8    O     O_3   0.925032 0.425382 0.805371 -0.551703
O9    O     O_R   0.500000 0.288400 0.357240 -0.494223
O10   O     O_R   0.379440 0.500020 0.642850 -0.494184
O11   O     O_R   0.379440 0.500020 0.357150 -0.501174
O12   O     O_R   0.620560 0.500020 0.642850 -0.500023
O13   O     O_R   0.620560 0.500020 0.357150 -0.492907
O14   O     O_R   0.500000 0.711620 0.642810 -0.494851
O15   O     O_R   0.500000 0.711620 0.357190 -0.495165
O16   O     O_3   0.919531 0.232993 0.615269 -0.690303

loop_
_geom_bond_atom_site_label_1
_geom_bond_atom_site_label_2
_ccdc_geom_bond_type
C7    C10   S    
C2    C4    S    
C4    O2    S    
C3    O8    S    
Cu2   O15   S    
H4    O8    S    
C9    C10   S    
C2    O4    S    
Cu2   O11   S    
H3    O7    S    
H11   O4    S    
C4    C8    S    
C17   O14   A    
H2    O6    S    
C7    C18   S    
N1    N2    T    
Cu1   O12   S    
C14   O12   A    
C1    C16   S    
Cu1   O1    S    
C6    C13   S    
C13   O11   A    
H9    O2    S    
C1    O1    A    
C5    C14   S    
C14   O13   A    
C8    C11   S    
Cu2   N1    S    
C10   H5    S    
C18   O3    S    
C1    O9    A    
C9    H6    S    
C5    C11   T    
C10   H1    S    
C6    C12   T    
C7    C12   S    
Cu2   O13   S    
C4    O7    S    
C15   C16   T    
Cu2   O9    S    
Cu1   O10   S    
C9    H7    S    
C3    C18   S    
C3    C8    S    
H12   O5    S    
C17   O15   A    
C15   C17   S    
C18   O6    S    
Cu1   O14   S    
C2    C7    S    
H8    O16   S    
C2    O5    S    
C3    O16   S    
C13   O10   A    
Cu1   Cu2   S    
H10   O3    S    
C8    C9    S    
Cu1   N2    S    
