data_mof_unit_30235.cif
_audit_creation_date              2012-12-10T19:44:57-0500
_audit_creation_method            fapswitch 2.2
_symmetry_space_group_name_H-M    P1
_symmetry_Int_Tables_number       1
_space_group_crystal_system       triclinic
_cell_length_a                    15.027287
_cell_length_b                    10.861363
_cell_length_c                    13.799825
_cell_angle_alpha                 90.037456
_cell_angle_beta                  91.754878
_cell_angle_gamma                 88.180249
_cell_volume                      2250.17164285

loop_
_atom_site_label
_atom_site_type_symbol
_atom_type_description
_atom_site_fract_x
_atom_site_fract_y
_atom_site_fract_z
_atom_type_partial_charge
C1    C     C_R   0.498632 0.262249 0.499316 0.856185
C2    C     C_R   0.503980 0.737380 0.500688 0.816109
C3    C     C_R   0.050417 0.292503 0.565641 -0.212608
C4    C     C_R   0.949481 0.714233 0.440171 -0.220258
C5    C     C_R   0.359231 0.216894 0.201013 0.183512
C6    C     C_R   0.652670 0.769863 0.790582 0.185996
C7    C     C_R   0.382500 0.170924 0.294298 -0.066513
C8    C     C_R   0.626044 0.814804 0.698429 -0.108452
C9    C     C_R   0.466978 0.116021 0.313887 0.096735
C10   C     C_R   0.545403 0.882524 0.684989 0.113491
C11   C     C_R   0.528043 0.104620 0.239341 -0.172159
C12   C     C_R   0.492040 0.906048 0.765109 -0.173831
C13   C     C_R   0.505247 0.148623 0.146613 -0.172929
C14   C     C_R   0.517666 0.859910 0.856594 -0.169801
C15   C     C_R   0.421661 0.204828 0.127628 -0.169418
C16   C     C_R   0.597572 0.792008 0.869415 -0.124617
C17   C     C_R   0.495034 0.933071 0.413989 -0.191816
C18   C     C_R   0.513251 0.066035 0.585518 -0.191547
C19   C     C_R   0.508540 0.871054 0.502183 -0.088929
C20   C     C_R   0.498438 0.128096 0.497507 -0.051807
C21   C     C_R   0.520762 0.938566 0.589269 -0.008651
C22   C     C_R   0.488602 0.060399 0.410196 -0.016082
C23   C     C_R   0.329139 0.499174 0.499011 0.847276
C24   C     C_R   0.670750 0.502723 0.500981 0.811860
C25   C     C_R   0.568318 0.440855 0.796786 0.135405
C26   C     C_R   0.432062 0.559940 0.203224 0.145013
C27   C     C_R   0.431644 0.556902 0.790620 0.013170
C28   C     C_R   0.567614 0.441527 0.209430 0.030469
C29   C     C_R   0.428579 0.557285 0.893347 -0.011450
C30   C     C_R   0.571050 0.441831 0.106683 -0.006315
C31   C     C_R   0.499989 0.500639 0.948310 0.035552
C32   C     C_R   0.500527 0.500517 0.051717 0.034997
C33   C     C_R   0.570173 0.441876 0.899872 -0.096070
C34   C     C_R   0.430158 0.558789 0.100154 -0.099034
C35   C     C_R   0.356076 0.611484 0.942841 0.151906
C36   C     C_R   0.641928 0.383396 0.057233 0.149588
C37   C     C_R   0.359103 0.614303 0.044599 -0.229382
C38   C     C_R   0.640013 0.383357 0.955422 -0.228428
C39   C     C_R   0.809811 0.611767 0.469291 -0.040870
C40   C     C_R   0.189831 0.394159 0.535997 -0.052563
C41   C     C_R   0.766974 0.507231 0.502284 -0.121136
C42   C     C_R   0.232795 0.495673 0.497942 -0.132335
C43   C     C_R   0.815205 0.402964 0.533876 -0.258717
C44   C     C_R   0.184745 0.600549 0.466927 -0.265679
C45   C     C_R   0.908250 0.399080 0.535092 0.096104
C46   C     C_R   0.091739 0.607026 0.470016 0.100484
C47   C     C_R   0.952993 0.504552 0.503733 0.015414
C48   C     C_R   0.046900 0.502715 0.503346 0.018636
C49   C     C_R   0.903805 0.611245 0.471346 0.019931
C50   C     C_R   0.095995 0.396152 0.536010 0.017457
C51   C     C_R   0.957681 0.292230 0.566007 0.143786
C52   C     C_R   0.042413 0.714432 0.439908 0.141489
Cu1   Cu    Cu3+1 0.500010 0.499980 0.597420 0.981079
Cu2   Cu    Cu3+1 0.499990 0.500020 0.402580 0.999383
H1    H     H_    0.486757 0.882316 0.346909 0.214010
H2    H     H_    0.521234 0.116946 0.652450 0.205919
H3    H     H_    0.379748 0.602145 0.746901 0.155146
H4    H     H_    0.618464 0.394293 0.253335 0.151495
H5    H     H_    0.303815 0.659731 0.079839 0.167855
H6    H     H_    0.694647 0.336595 0.920028 0.165262
H7    H     H_    0.778213 0.324331 0.555529 0.161751
H8    H     H_    0.221885 0.677780 0.442738 0.163680
H9    H     H_    0.086772 0.208716 0.586746 0.168606
H10   H     H_    0.912988 0.796390 0.415591 0.171966
H11   H     H_    0.405427 0.238937 0.055259 0.136148
H12   H     H_    0.616943 0.757584 0.940890 0.140285
H13   H     H_    0.335511 0.175237 0.351847 0.171119
H14   H     H_    0.668648 0.799035 0.637637 0.154854
H15   H     H_    0.592926 0.060650 0.252953 0.136964
H16   H     H_    0.430735 0.960670 0.756636 0.134020
H17   H     H_    0.552480 0.139220 0.089212 0.147989
H18   H     H_    0.475925 0.877744 0.917900 0.153617
N1    N     N_R   0.499960 0.499900 0.743810 -0.229888
N2    N     N_R   0.500040 0.500100 0.256190 -0.225165
O1    O     O_R   0.500000 0.319630 0.582270 -0.550976
O2    O     O_R   0.500000 0.680370 0.417730 -0.539290
O3    O     O_R   0.499990 0.319660 0.417730 -0.599742
O4    O     O_R   0.500010 0.680340 0.582270 -0.599779
O5    O     O_R   0.370260 0.499960 0.582280 -0.593399
O6    O     O_R   0.629740 0.500040 0.417720 -0.570474
O7    O     O_R   0.370250 0.499990 0.417740 -0.568922
O8    O     O_R   0.629750 0.500010 0.582260 -0.578925
C53   C     C_2   0.755892 0.720159 0.432919 0.772077
O9    O     O_2   0.710704 0.712219 0.358123 -0.582689
O10   O     O_R   0.757585 0.831143 0.483921 -0.813331
H19   H     H_    0.717743 0.897793 0.452429 0.328618
C54   C     C_2   0.243408 0.287988 0.576910 0.810661
O11   O     O_2   0.296444 0.232018 0.526535 -0.656471
O12   O     O_R   0.233335 0.253068 0.673346 -0.765991
H20   H     H_    0.273589 0.179991 0.692860 0.327709
C55   C     C_2   0.641535 0.374384 0.748134 0.865281
O13   O     O_2   0.629672 0.273433 0.712120 -0.627238
O14   O     O_R   0.726848 0.421930 0.752724 -0.809149
H21   H     H_    0.773788 0.362332 0.727448 0.319671
C56   C     C_2   0.358668 0.625901 0.251888 0.864688
O15   O     O_2   0.370177 0.726978 0.287946 -0.622672
O16   O     O_R   0.273599 0.577436 0.247392 -0.797816
H22   H     H_    0.226359 0.636647 0.272613 0.317209
C57   C     C_3   0.271776 0.660672 0.890902 -0.407985
C58   C     C_3   0.281284 0.792436 0.855561 -0.847067
H23   H     H_    0.302163 0.852827 0.916587 0.254498
H24   H     H_    0.330639 0.795583 0.797821 0.248128
H25   H     H_    0.216275 0.828098 0.825032 0.248344
H26   H     H_    0.214831 0.660007 0.940498 0.207353
H27   H     H_    0.252622 0.599780 0.829562 0.205321
C59   C     C_3   0.720890 0.320072 0.109891 -0.440701
C60   C     C_3   0.785905 0.413767 0.150666 -0.789651
H28   H     H_    0.811934 0.469284 0.090809 0.255503
H29   H     H_    0.753395 0.476753 0.203152 0.264598
H30   H     H_    0.842813 0.364643 0.188526 0.238923
H31   H     H_    0.698345 0.259293 0.168303 0.189408
H32   H     H_    0.757963 0.258304 0.059862 0.205808
C61   C     C_3   0.915008 0.174946 0.598560 -0.416863
C62   C     C_3   0.883654 0.098679 0.511866 -0.811900
H33   H     H_    0.830685 0.148930 0.468637 0.248071
H34   H     H_    0.940361 0.076008 0.464523 0.251057
H35   H     H_    0.856739 0.011470 0.538382 0.282608
H36   H     H_    0.963586 0.116879 0.642179 0.203257
H37   H     H_    0.859342 0.195349 0.647611 0.200727
C63   C     C_3   0.085659 0.831518 0.407414 -0.415596
C64   C     C_3   0.122021 0.904323 0.493953 -0.802860
H38   H     H_    0.067257 0.930029 0.543084 0.253260
H39   H     H_    0.173964 0.849857 0.535444 0.252374
H40   H     H_    0.151889 0.990024 0.467923 0.248762
H41   H     H_    0.138883 0.810571 0.355364 0.199037
H42   H     H_    0.036485 0.892510 0.367227 0.197200
C65   C     C_3   0.269140 0.276758 0.174985 -0.412658
C66   C     C_3   0.205528 0.292449 0.258942 -0.767052
H43   H     H_    0.187668 0.201228 0.287588 0.232997
H44   H     H_    0.236196 0.348029 0.317835 0.284969
H45   H     H_    0.143384 0.341382 0.232789 0.247404
H46   H     H_    0.279834 0.369133 0.143695 0.239171
H47   H     H_    0.236147 0.220746 0.117713 0.197559
C67   C     C_3   0.740832 0.701976 0.805564 -0.378230
C68   C     C_3   0.810793 0.787216 0.847765 -0.839009
H48   H     H_    0.819935 0.865760 0.797860 0.261339
H49   H     H_    0.790400 0.823098 0.919426 0.250455
H50   H     H_    0.875360 0.735456 0.857483 0.250223
H51   H     H_    0.733271 0.623343 0.855805 0.236186
H52   H     H_    0.764494 0.664254 0.735625 0.240723

loop_
_geom_bond_atom_site_label_1
_geom_bond_atom_site_label_2
_ccdc_geom_bond_type
C68   H50   S    
C54   O11   D    
O14   H21   S    
C27   C29   A    
C18   C21   A    
C1    O3    A    
C56   O15   D    
C28   N2    A    
C66   H43   S    
O16   H22   S    
C68   H48   S    
C39   C41   A    
C59   H32   S    
Cu1   Cu2   S    
C51   C61   S    
C23   C42   S    
C4    C52   A    
C40   C54   S    
C35   C37   A    
C67   H52   S    
C63   H42   S    
C9    C22   S    
C59   C60   S    
C45   C51   A    
C34   C37   A    
C46   C52   A    
C68   H49   S    
C24   O8    A    
C65   H46   S    
C64   H40   S    
C17   C19   A    
Cu2   N2    S    
C26   C34   A    
C53   O9    D    
C44   C46   A    
C60   H28   S    
C31   C33   A    
C17   C22   A    
C17   H1    S    
C25   N1    A    
C53   O10   S    
C18   H2    S    
Cu2   O3    S    
C40   C42   A    
C57   H26   S    
C61   H37   S    
C24   C41   S    
C60   H29   S    
C4    H10   S    
Cu1   O1    S    
C42   C44   A    
C35   C57   S    
C3    C50   A    
C24   O6    A    
C62   H33   S    
Cu2   O6    S    
C59   H31   S    
C45   C47   A    
C10   C21   S    
C57   H27   S    
C46   C48   A    
C25   C55   S    
C5    C15   A    
C36   C59   S    
C1    O1    A    
C47   C48   A    
C47   C49   A    
C27   H3    S    
C67   H51   S    
C5    C7    A    
C3    C51   A    
C63   H41   S    
C6    C8    A    
C13   H17   S    
C44   H8    S    
O10   H19   S    
C6    C16   A    
C58   H25   S    
Cu1   O8    S    
C32   C34   A    
C2    O4    A    
C55   O14   S    
C9    C11   A    
C31   C32   A    
C5    C65   S    
C58   H24   S    
C43   C45   A    
C64   H38   S    
C37   H5    S    
C10   C12   A    
C38   H6    S    
C52   C63   S    
C8    C10   A    
C39   C49   A    
C12   C14   A    
C8    H14   S    
C28   H4    S    
C13   C15   A    
C60   H30   S    
C14   C16   A    
C16   H12   S    
C65   C66   S    
C66   H45   S    
C55   O13   D    
C2    O2    A    
C63   C64   S    
C43   H7    S    
C61   C62   S    
C26   C56   S    
C7    C9    A    
C12   H16   S    
C56   O16   S    
C1    C20   S    
C23   O7    A    
Cu1   O5    S    
C2    C19   S    
Cu2   O2    S    
C14   H18   S    
Cu1   N1    S    
C41   C43   A    
C65   H47   S    
C20   C22   A    
C66   H44   S    
C62   H34   S    
C11   H15   S    
C67   C68   S    
C3    H9    S    
C29   C35   A    
C33   C38   A    
C57   C58   S    
C30   C36   A    
C4    C49   A    
C54   O12   S    
Cu1   O4    S    
C39   C53   S    
C28   C30   A    
C29   C31   A    
C36   C38   A    
C30   C32   A    
C11   C13   A    
C40   C50   A    
C48   C50   A    
C58   H23   S    
C26   N2    A    
C18   C20   A    
C64   H39   S    
C62   H35   S    
C7    H13   S    
C61   H36   S    
C6    C67   S    
C23   O5    A    
O12   H20   S    
C27   N1    A    
Cu2   O7    S    
C25   C33   A    
C19   C21   A    
C15   H11   S    
