data_mof_unit_53386.cif
_audit_creation_date              2012-12-11T15:42:45-0500
_audit_creation_method            fapswitch 2.2
_symmetry_space_group_name_H-M    P1
_symmetry_Int_Tables_number       1
_space_group_crystal_system       triclinic
_cell_length_a                    6.934778
_cell_length_b                    14.544691
_cell_length_c                    16.188878
_cell_angle_alpha                 90.371984
_cell_angle_beta                  89.9168
_cell_angle_gamma                 90.080287
_cell_volume                      1632.84056314

loop_
_atom_site_label
_atom_site_type_symbol
_atom_type_description
_atom_site_fract_x
_atom_site_fract_y
_atom_site_fract_z
_atom_type_partial_charge
O1    O     O_R   0.505810 0.583360 0.413880 -0.538914
O2    O     O_R   0.175870 0.595480 0.585520 -0.544282
O3    O     O_R   0.005540 0.416640 0.586120 -0.541147
C1    C     C_R   0.344919 0.617651 0.614645 0.684195
O4    O     O_R   0.176100 0.594390 0.414490 -0.540969
O5    O     O_R   0.005770 0.415540 0.413870 -0.540866
C2    C     C_R   0.345340 0.616399 0.385843 0.699429
O6    O     O_R   0.505580 0.584460 0.586130 -0.540720
O7    O     O_3   0.339190 0.441320 0.500000 -0.370073
V1    V     V_3+5 0.064350 0.510890 0.500000 1.400816
O8    O     O_R   0.676050 0.404520 0.414480 -0.544987
C3    C     C_R   0.845141 0.382000 0.385792 0.683974
O9    O     O_R   0.675830 0.405610 0.585510 -0.539831
C4    C     C_R   0.844947 0.383649 0.613701 0.746747
V2    V     V_3+5 0.564340 0.489110 0.500000 1.401832
O10   O     O_3   0.839370 0.558680 0.500000 -0.370176
C5    C     C_2   0.720511 0.208807 0.786149 -0.129405
C6    C     C_2   0.885850 0.181886 0.822584 -0.312091
H1    H     H_    0.584612 0.179923 0.807117 0.136988
H2    H     H_    0.023461 0.210099 0.803799 0.127222
C7    C     C_2   0.707897 0.277338 0.718233 -0.135934
C8    C     C_2   0.861371 0.315346 0.680447 -0.309663
H3    H     H_    0.563831 0.296431 0.698541 0.134858
H4    H     H_    0.006567 0.296886 0.698233 0.129310
C9    C     C_R   0.047441 0.222319 0.219872 -0.151853
H5    H     H_    0.188248 0.203526 0.196284 0.117423
C10   C     C_R   0.036165 0.286375 0.284631 -0.154180
H6    H     H_    0.168871 0.315123 0.308772 0.118639
C11   C     C_R   0.856453 0.313037 0.317549 -0.046000
C12   C     C_R   0.688357 0.273729 0.283957 -0.157512
H7    H     H_    0.547550 0.292486 0.307566 0.116570
C13   C     C_R   0.699638 0.209671 0.219199 -0.156504
H8    H     H_    0.566945 0.180885 0.195079 0.119889
C14   C     C_R   0.879321 0.183204 0.186140 -0.047016
C15   C     C_R   0.188387 0.723617 0.718997 -0.157851
H9    H     H_    0.047582 0.705517 0.695036 0.115982
C16   C     C_R   0.199769 0.785808 0.785352 -0.151435
H10   H     H_    0.067115 0.813937 0.810121 0.118160
C17   C     C_R   0.379402 0.811480 0.819040 -0.046437
C18   C     C_R   0.547313 0.773125 0.784333 -0.157147
H11   H     H_    0.688118 0.791231 0.808290 0.115979
C19   C     C_R   0.535931 0.710930 0.717981 -0.150679
H12   H     H_    0.668585 0.682804 0.693210 0.118318
C20   C     C_R   0.356298 0.685263 0.684289 -0.047550
C21   C     C_R   0.222969 0.756736 0.313264 -0.212596
H13   H     H_    0.112472 0.763671 0.360284 0.122653
C22   C     C_R   0.233102 0.822016 0.249437 0.288464
C23   C     C_R   0.377991 0.814658 0.187869 -0.079846
C24   C     C_R   0.512284 0.742631 0.193443 -0.235796
H14   H     H_    0.624305 0.735030 0.147241 0.129285
C25   C     C_R   0.503054 0.679083 0.258089 -0.152046
H15   H     H_    0.608654 0.624356 0.260362 0.124036
C26   C     C_R   0.356800 0.684728 0.318067 -0.079716
O11   O     O_R   0.230120 0.912300 0.917180 -0.542177
O12   O     O_R   0.559740 0.902430 0.088770 -0.554315
O13   O     O_R   0.729930 0.081310 0.089370 -0.544208
C27   C     C_R   0.390495 0.881470 0.118435 0.722867
O14   O     O_R   0.559840 0.901330 0.917750 -0.544271
O15   O     O_R   0.730030 0.080210 0.917120 -0.536681
C28   C     C_R   0.390783 0.879117 0.888662 0.681453
O16   O     O_R   0.230020 0.913400 0.089430 -0.517296
O17   O     O_3   0.396460 0.055470 0.003290 -0.370502
V3    V     V_3+5 0.671360 0.985960 0.003250 1.387372
O18   O     O_R   0.059740 0.091300 0.917690 -0.545346
C29   C     C_R   0.891121 0.113251 0.889480 0.745215
O19   O     O_R   0.059640 0.092400 0.088720 -0.537344
C30   C     C_R   0.890581 0.114680 0.117574 0.696762
V4    V     V_3+5 0.171350 0.007820 0.003190 1.417628
O20   O     O_3   0.896380 0.938200 0.003220 -0.373183
N1    N     N_2   0.105900 0.898586 0.250937 -0.535188
H16   H     H_    0.109022 0.933720 0.306478 0.243224
C31   C     C_3   0.910948 0.877365 0.225779 -0.474710
H17   H     H_    0.841590 0.830798 0.271170 0.176506
H18   H     H_    0.910605 0.844341 0.163729 0.212138
H19   H     H_    0.825758 0.941803 0.222639 0.184512

loop_
_geom_bond_atom_site_label_1
_geom_bond_atom_site_label_2
_ccdc_geom_bond_type
O19   V4    S    
C3    C11   S    
C10   C11   A    
C15   H9    S    
C1    O6    A    
C23   C27   S    
O11   C28   A    
C21   H13   S    
C6    C29   S    
C11   C12   A    
O18   V4    S    
C15   C16   A    
C16   H10   S    
O5    C3    A    
C12   H7    S    
O11   V4    S    
O14   C28   A    
V2    O10   S    
O8    V2    S    
V3    O20   S    
V4    O20   S    
C24   C25   A    
O12   V3    S    
N1    H16   S    
O1    V2    S    
O7    V1    S    
C9    C14   A    
C18   C19   A    
O19   C30   A    
C21   C26   A    
C7    C8    D    
C19   C20   A    
C31   H19   S    
C21   C22   A    
C25   H15   S    
C31   H18   S    
C17   C18   A    
O4    C2    A    
C1    C20   S    
C9    H5    S    
C5    C7    S    
C25   C26   A    
C13   C14   A    
O2    C1    A    
C22   N1    S    
O17   V3    S    
C22   C23   A    
C5    C6    D    
O13   V3    S    
O12   C27   A    
C15   C20   A    
O3    C4    A    
C23   C24   A    
O6    V2    S    
O9    V2    S    
C8    H4    S    
C19   H12   S    
C2    C26   S    
O2    V1    S    
O14   V3    S    
C18   H11   S    
O1    C2    A    
C31   H17   S    
C14   C30   S    
O5    V1    S    
O8    C3    A    
C27   O16   A    
C9    C10   A    
O13   C30   A    
O15   V3    S    
O17   V4    S    
C13   H8    S    
C4    C8    S    
C7    H3    S    
O7    V2    S    
O4    V1    S    
C16   C17   A    
O3    V1    S    
V1    O10   S    
O18   C29   A    
C12   C13   A    
O16   V4    S    
C17   C28   S    
C5    H1    S    
C6    H2    S    
C24   H14   S    
C10   H6    S    
N1    C31   S    
O9    C4    A    
O15   C29   A    
