data_mof_unit_16542.cif
_audit_creation_date              2012-12-11T16:46:31-0500
_audit_creation_method            fapswitch 2.2
_symmetry_space_group_name_H-M    P1
_symmetry_Int_Tables_number       1
_space_group_crystal_system       triclinic
_cell_length_a                    26.261053
_cell_length_b                    7.187272
_cell_length_c                    23.838896
_cell_angle_alpha                 89.999327
_cell_angle_beta                  101.607897
_cell_angle_gamma                 90.00023
_cell_volume                      4407.45480976

loop_
_atom_site_label
_atom_site_type_symbol
_atom_type_description
_atom_site_fract_x
_atom_site_fract_y
_atom_site_fract_z
_atom_type_partial_charge
O1    O     O_R   0.547620 0.505720 0.453310 -0.538044
O2    O     O_R   0.452380 0.005720 0.546690 -0.538042
O3    O     O_R   0.442260 0.172470 0.436770 -0.530583
O4    O     O_R   0.557740 0.672470 0.563230 -0.530583
C1    C     C_R   0.076111 0.468096 0.078696 0.719928
C2    C     C_R   0.923889 0.968097 0.921304 0.719930
C3    C     C_R   0.424053 0.344442 0.421611 0.706399
C4    C     C_R   0.575946 0.844440 0.578389 0.706394
O5    O     O_R   0.546600 0.175780 0.446490 -0.540952
O6    O     O_R   0.453400 0.675780 0.553510 -0.540951
O7    O     O_R   0.557460 0.008970 0.556480 -0.531587
O8    O     O_R   0.442540 0.508970 0.443520 -0.531589
C5    C     C_R   0.562061 0.344679 0.434127 0.678678
C6    C     C_R   0.437939 0.844678 0.565873 0.678669
O9    O     O_R   0.047630 0.803580 0.953300 -0.537381
O10   O     O_R   0.952370 0.303580 0.046700 -0.537381
O11   O     O_3   0.503440 0.340340 0.536080 -0.372345
O12   O     O_3   0.496560 0.840340 0.463920 -0.372345
V1    V     V_3+5 0.499360 0.064140 0.493310 1.408289
V2    V     V_3+5 0.500640 0.564140 0.506690 1.408291
O13   O     O_R   0.057730 0.636870 0.063240 -0.533093
O14   O     O_R   0.942270 0.136870 0.936760 -0.533094
O15   O     O_3   0.996540 0.468950 0.963950 -0.372954
O16   O     O_3   0.003460 0.968950 0.036050 -0.372952
C7    C     C_R   0.112609 0.783159 0.873285 -0.164791
C8    C     C_R   0.887391 0.283163 0.126717 -0.164795
H1    H     H_    0.093537 0.656399 0.882459 0.126674
H2    H     H_    0.906470 0.156408 0.117554 0.126675
C9    C     C_R   0.148916 0.772563 0.837722 -0.148834
C10   C     C_R   0.851080 0.272570 0.162276 -0.148846
H3    H     H_    0.156132 0.638493 0.820137 0.103010
H4    H     H_    0.843869 0.138506 0.179868 0.103008
C11   C     C_R   0.174827 0.932875 0.824287 0.118899
C12   C     C_R   0.825160 0.432877 0.175696 0.118902
C13   C     C_R   0.163082 0.104440 0.847283 -0.146838
C14   C     C_R   0.836899 0.604434 0.152690 -0.146840
H5    H     H_    0.182802 0.230504 0.838809 0.103470
H6    H     H_    0.817172 0.730494 0.161152 0.103476
C15   C     C_R   0.126447 0.115297 0.882552 -0.171677
C16   C     C_R   0.873539 0.615290 0.117427 -0.171693
H7    H     H_    0.118787 0.249601 0.899718 0.122014
H8    H     H_    0.881194 0.749588 0.100252 0.122017
C17   C     C_R   0.100758 0.954682 0.896152 -0.049403
C18   C     C_R   0.899237 0.454680 0.103842 -0.049401
C19   C     C_R   0.218483 0.064438 0.747771 -0.223206
C20   C     C_R   0.781493 0.564475 0.252196 -0.223340
H9    H     H_    0.193312 0.184978 0.744322 0.124277
H10   H     H_    0.806657 0.685033 0.255635 0.124228
C21   C     C_R   0.254705 0.053251 0.711826 0.403183
C22   C     C_R   0.745270 0.553296 0.288141 0.403195
C23   C     C_R   0.288295 0.897564 0.715129 -0.018768
C24   C     C_R   0.711692 0.397582 0.284855 -0.018695
C25   C     C_R   0.283333 0.753905 0.753704 -0.198320
C26   C     C_R   0.716662 0.253897 0.246293 -0.198400
H11   H     H_    0.308556 0.633396 0.757471 0.143337
H12   H     H_    0.691447 0.133368 0.242538 0.143356
C27   C     C_R   0.246773 0.765393 0.788910 -0.152174
C28   C     C_R   0.753221 0.265380 0.211085 -0.152166
H13   H     H_    0.245068 0.653487 0.818869 0.119996
H14   H     H_    0.754933 0.153451 0.181137 0.119995
C29   C     C_R   0.213841 0.920810 0.786537 0.023753
C30   C     C_R   0.786144 0.420819 0.213444 0.023808
C31   C     C_R   0.334968 0.713667 0.650795 -0.176841
C32   C     C_R   0.665030 0.213685 0.349202 -0.176814
H15   H     H_    0.311827 0.592786 0.656189 0.133206
H16   H     H_    0.688169 0.092803 0.343806 0.133185
C33   C     C_R   0.371075 0.700213 0.614956 -0.163579
C34   C     C_R   0.628926 0.200226 0.385044 -0.163558
H17   H     H_    0.374938 0.568977 0.593875 0.120348
H18   H     H_    0.625065 0.068989 0.406127 0.120358
C35   C     C_R   0.400799 0.855598 0.605407 -0.040757
C36   C     C_R   0.599199 0.355605 0.394593 -0.040768
C37   C     C_R   0.394318 0.023253 0.633660 -0.191981
C38   C     C_R   0.605676 0.523259 0.366335 -0.192029
H19   H     H_    0.417038 0.145097 0.628042 0.128178
H20   H     H_    0.582954 0.645097 0.371951 0.128185
C39   C     C_R   0.358812 0.035786 0.670068 -0.098635
C40   C     C_R   0.641180 0.535796 0.329925 -0.098583
H21   H     H_    0.355720 0.165985 0.691962 0.142148
H22   H     H_    0.644263 0.665990 0.308025 0.142170
C41   C     C_R   0.327969 0.882237 0.678345 0.105777
C42   C     C_R   0.672027 0.382256 0.321650 0.105889
C43   C     C_3   0.758794 0.752146 0.805718 0.293345
C44   C     C_3   0.241213 0.252185 0.194278 0.293362
C45   C     C_3   0.758134 0.098651 0.787041 -0.336778
C46   C     C_3   0.241855 0.598678 0.212972 -0.336807
C47   C     C_3   0.710669 0.083812 0.736448 -0.365474
C48   C     C_3   0.289318 0.583842 0.263568 -0.365497
H23   H     H_    0.781791 0.222532 0.780709 0.141345
H24   H     H_    0.218191 0.722534 0.219308 0.141346
H25   H     H_    0.744232 0.120575 0.827532 0.177466
H26   H     H_    0.255759 0.620644 0.172483 0.177467
H27   H     H_    0.674640 0.126711 0.750250 0.132708
H28   H     H_    0.325346 0.626796 0.249772 0.132703
H29   H     H_    0.715354 0.188132 0.703322 0.161770
H30   H     H_    0.284623 0.688124 0.296699 0.161764
C49   C     C_1   0.621550 0.854738 0.624418 -0.178536
C50   C     C_1   0.378449 0.354742 0.375584 -0.178532
C51   C     C_3   0.792032 0.920216 0.792012 0.181729
C52   C     C_3   0.207967 0.420218 0.207990 0.181739
C53   C     C_3   0.709801 0.728487 0.756036 0.295283
C54   C     C_3   0.290208 0.228535 0.243957 0.295273
C55   C     C_3   0.706967 0.885684 0.709314 0.140805
C56   C     C_3   0.293031 0.385691 0.290690 0.140819
C57   C     C_3   0.757153 0.864501 0.684450 -0.415042
C58   C     C_3   0.242845 0.364435 0.315549 -0.415041
C59   C     C_3   0.806676 0.885158 0.732765 -0.424752
C60   C     C_3   0.193322 0.385100 0.267234 -0.424751
C61   C     C_1   0.659879 0.867158 0.662628 -0.040884
C62   C     C_1   0.340119 0.367165 0.337375 -0.040890
C63   C     C_1   0.839818 0.942790 0.837509 -0.051492
C64   C     C_1   0.160181 0.442787 0.162492 -0.051477
C65   C     C_1   0.878326 0.957243 0.875349 -0.203180
C66   C     C_1   0.121674 0.457240 0.124651 -0.203167
H31   H     H_    0.830714 0.756959 0.734626 0.145744
H32   H     H_    0.169288 0.256888 0.265365 0.145743
H33   H     H_    0.830647 0.002770 0.722175 0.174859
H34   H     H_    0.169347 0.502688 0.277831 0.174859
H35   H     H_    0.757695 0.726690 0.663281 0.145695
H36   H     H_    0.242309 0.226600 0.336707 0.145696
H37   H     H_    0.782784 0.623440 0.805473 -0.003775
H38   H     H_    0.217229 0.123463 0.194520 -0.003784
H39   H     H_    0.717771 0.599218 0.733438 0.048115
H40   H     H_    0.282248 0.099236 0.266548 0.048113
H41   H     H_    0.757918 0.971326 0.650811 0.172534
H42   H     H_    0.242073 0.471222 0.349197 0.172531
V3    V     V_3+5 0.000640 0.745210 0.006690 1.393305
V4    V     V_3+5 0.999360 0.245210 0.993310 1.393305
O17   O     O_R   0.057440 0.306950 0.056520 -0.534188
O18   O     O_R   0.942560 0.806950 0.943480 -0.534190
O19   O     O_R   0.953390 0.633680 0.053510 -0.541437
O20   O     O_R   0.046610 0.133680 0.946490 -0.541437
C67   C     C_R   0.937515 0.464821 0.065465 0.678984
C68   C     C_R   0.062484 0.964822 0.934533 0.678981
O21   O     O_3   0.663190 0.681101 0.774828 -0.567966
C69   C     C_3   0.636539 0.832872 0.793081 0.144409
H43   H     H_    0.613510 0.905390 0.755191 0.110395
H44   H     H_    0.663110 0.931941 0.820158 0.158366
C70   C     C_3   0.598697 0.758704 0.828701 -0.294386
H45   H     H_    0.571314 0.659144 0.802604 0.197934
H46   H     H_    0.620733 0.683594 0.866684 0.201243
C71   C     C_3   0.567709 0.916088 0.848838 -0.853496
H47   H     H_    0.594292 0.015627 0.875910 0.233954
H48   H     H_    0.540647 0.857668 0.874563 0.237446
H49   H     H_    0.544631 0.991196 0.811490 0.232704
O22   O     O_3   0.336823 0.181222 0.225162 -0.567966
C72   C     C_3   0.363462 0.333043 0.206920 0.144409
H50   H     H_    0.386485 0.405551 0.244814 0.110403
H51   H     H_    0.336884 0.432104 0.179848 0.158362
C73   C     C_3   0.401312 0.258955 0.171297 -0.294396
H52   H     H_    0.428699 0.159394 0.197388 0.197942
H53   H     H_    0.379283 0.183868 0.133306 0.201238
C74   C     C_3   0.432293 0.416396 0.151176 -0.853495
H54   H     H_    0.405705 0.515936 0.124110 0.233956
H55   H     H_    0.459361 0.358033 0.125450 0.237446
H56   H     H_    0.455363 0.491486 0.188532 0.232704
O23   O     O_3   0.743776 0.780370 0.859267 -0.572207
C75   C     C_3   0.770179 0.659588 0.902422 0.092638
H57   H     H_    0.772075 0.728811 0.944454 0.132580
H58   H     H_    0.811272 0.633601 0.898895 0.111421
C76   C     C_3   0.740096 0.477082 0.902250 -0.303002
H59   H     H_    0.702758 0.504751 0.915875 0.195073
H60   H     H_    0.730946 0.419502 0.858215 0.199861
C77   C     C_3   0.771245 0.333848 0.942415 -0.850008
H61   H     H_    0.807873 0.299175 0.928144 0.233780
H62   H     H_    0.748027 0.204526 0.941992 0.240195
H63   H     H_    0.780698 0.388618 0.986888 0.237325
O24   O     O_3   0.256229 0.280452 0.140729 -0.572204
C78   C     C_3   0.229847 0.159622 0.097577 0.092642
H64   H     H_    0.227956 0.228824 0.055542 0.132586
H65   H     H_    0.188753 0.133602 0.101093 0.111413
C79   C     C_3   0.259946 0.977141 0.097770 -0.302996
H66   H     H_    0.297289 0.004840 0.084159 0.195082
H67   H     H_    0.269087 0.919575 0.141809 0.199853
C80   C     C_3   0.228819 0.833871 0.057603 -0.850034
H68   H     H_    0.192184 0.799181 0.071859 0.233781
H69   H     H_    0.252045 0.704564 0.058043 0.240211
H70   H     H_    0.219377 0.888619 0.013127 0.237326
O25   O     O_3   0.258394 0.200109 0.675454 -0.587077
C81   C     C_3   0.227126 0.161844 0.621280 0.063780
H71   H     H_    0.185286 0.161910 0.624114 0.119803
H72   H     H_    0.237229 0.024658 0.604532 0.124068
C82   C     C_3   0.236263 0.313195 0.579373 -0.281172
H73   H     H_    0.225212 0.450676 0.594665 0.192877
H74   H     H_    0.278238 0.317311 0.577573 0.194598
C83   C     C_3   0.204587 0.277539 0.519318 -0.853405
H75   H     H_    0.215869 0.142504 0.502688 0.231257
H76   H     H_    0.212068 0.390078 0.490096 0.229035
H77   H     H_    0.162401 0.275460 0.519904 0.231013
O26   O     O_3   0.741569 0.700161 0.324504 -0.587090
C84   C     C_3   0.772952 0.662160 0.378635 0.063787
H78   H     H_    0.814769 0.662647 0.375705 0.119863
H79   H     H_    0.762983 0.524863 0.395424 0.123972
C85   C     C_3   0.763782 0.813383 0.420564 -0.281223
H80   H     H_    0.774654 0.951007 0.405201 0.192908
H81   H     H_    0.721833 0.816964 0.422499 0.194600
C86   C     C_3   0.795636 0.778121 0.480559 -0.853389
H82   H     H_    0.784555 0.642903 0.497256 0.231256
H83   H     H_    0.788110 0.890525 0.509803 0.229044
H84   H     H_    0.837796 0.776663 0.479839 0.231014

loop_
_geom_bond_atom_site_label_1
_geom_bond_atom_site_label_2
_ccdc_geom_bond_type
C28   C30   A    
C85   H81   S    
C48   H30   S    
O26   C84   S    
C50   C62   T    
C3    C50   S    
C1    C66   S    
C86   H84   S    
C78   H65   S    
C78   H64   S    
C13   C15   A    
C72   H50   S    
C2    O18   A    
V4    O17   S    
C7    C17   A    
C56   C58   S    
C76   H59   S    
C45   H25   S    
C8    C18   A    
O21   C69   S    
C15   H7    S    
O9    C68   A    
C81   H71   S    
C57   C59   S    
O7    V1    S    
C77   H62   S    
O23   C75   S    
C53   O21   S    
C38   H20   S    
C20   C30   A    
C44   O24   S    
C32   C34   A    
C77   H61   S    
C13   H5    S    
O3    C3    A    
C82   H74   S    
C31   H15   S    
C70   C71   S    
C40   H22   S    
C27   H13   S    
C85   C86   S    
C44   H38   S    
C2    O14   A    
C9    C11   A    
C12   C30   S    
O11   V2    S    
C44   C54   S    
O12   V1    S    
C6    C35   S    
C19   H9    S    
C19   C29   A    
C86   H83   S    
O5    C5    A    
C75   C76   S    
C48   C56   S    
O5    V1    S    
C63   C65   T    
C79   H67   S    
C21   C23   A    
C73   C74   S    
C47   H29   S    
C32   C42   A    
O16   V3    S    
C22   C24   A    
O3    V1    S    
C39   C41   A    
C74   H55   S    
C46   C52   S    
C23   C41   S    
C12   C14   A    
C79   C80   S    
O4    C4    A    
C34   H18   S    
C25   H11   S    
C85   H80   S    
O2    C6    A    
C53   C55   S    
O9    V3    S    
C75   H58   S    
C37   H19   S    
C71   H49   S    
C2    C65   S    
C69   C70   S    
C54   H40   S    
O10   C67   A    
V4    O20   S    
C64   C66   T    
C76   H60   S    
C24   C26   A    
C80   H70   S    
C20   H10   S    
C39   H21   S    
C7    C9    A    
C3    O8    A    
C31   C33   A    
C52   C60   S    
C10   C12   A    
C46   C48   S    
C84   H78   S    
C44   C52   S    
C60   H34   S    
C14   C16   A    
C72   C73   S    
C80   H69   S    
C46   H24   S    
C82   C83   S    
O6    V2    S    
C35   C37   A    
C25   C27   A    
C72   H51   S    
C15   C17   A    
C23   C25   A    
C32   H16   S    
C17   C68   S    
C54   C56   S    
C4    C49   S    
C84   H79   S    
C82   H73   S    
C45   C51   S    
C49   C61   T    
C40   C42   A    
O14   V4    S    
C80   H68   S    
C43   O23   S    
C19   C21   A    
C34   C36   A    
C51   C63   S    
O8    V2    S    
C55   C57   S    
C53   H39   S    
C43   H37   S    
C74   H56   S    
C24   C42   S    
O10   V4    S    
C59   H31   S    
O20   C68   A    
C47   C55   S    
C36   C38   A    
O24   C78   S    
C31   C41   A    
C52   C64   S    
O6    C6    A    
C75   H57   S    
C78   C79   S    
C73   H53   S    
O1    C5    A    
C83   H76   S    
C76   C77   S    
C79   H66   S    
C56   C62   S    
C69   H44   S    
O22   C72   S    
C26   C28   A    
C18   C67   S    
C58   H42   S    
C16   H8    S    
O1    V2    S    
C45   H23   S    
C81   H72   S    
C58   H36   S    
O2    V1    S    
C71   H47   S    
C77   H63   S    
C69   H43   S    
O19   C67   A    
C70   H45   S    
C81   C82   S    
C26   H12   S    
C27   C29   A    
C5    C36   S    
C7    H1    S    
C51   C59   S    
C20   C22   A    
C8    H2    S    
C57   H41   S    
C55   C61   S    
C60   H32   S    
C83   H77   S    
C14   H6    S    
C83   H75   S    
V3    O18   S    
C9    H3    S    
C46   H26   S    
C54   O22   S    
C10   H4    S    
C70   H46   S    
C58   C60   S    
C4    O7    A    
C47   H27   S    
C1    O17   A    
C11   C13   A    
O13   V3    S    
C33   C35   A    
C86   H82   S    
C22   O26   S    
V3    O19   S    
C84   C85   S    
O25   C81   S    
O4    V2    S    
C45   C47   S    
C16   C18   A    
C1    O13   A    
C37   C39   A    
C11   C29   S    
C38   C40   A    
C48   H28   S    
C43   C53   S    
C73   H52   S    
C57   H35   S    
C43   C51   S    
C33   H17   S    
C74   H54   S    
C28   H14   S    
C59   H33   S    
C71   H48   S    
O15   V4    S    
C21   O25   S    
C8    C10   A    
