data_mof_unit_53141.cif
_audit_creation_date              2012-12-10T17:30:47-0500
_audit_creation_method            fapswitch 2.2
_symmetry_space_group_name_H-M    P1
_symmetry_Int_Tables_number       1
_space_group_crystal_system       triclinic
_cell_length_a                    18.440489
_cell_length_b                    18.395276
_cell_length_c                    59.856059
_cell_angle_alpha                 90.071525
_cell_angle_beta                  89.986788
_cell_angle_gamma                 90.012844
_cell_volume                      20304.2288528

loop_
_atom_site_label
_atom_site_type_symbol
_atom_type_description
_atom_site_fract_x
_atom_site_fract_y
_atom_site_fract_z
_atom_type_partial_charge
C1    C     C_R   0.500044 0.999983 0.189811 0.937868
C2    C     C_R   0.510239 0.000117 0.618109 -0.031616
C3    C     C_R   0.977055 0.621879 0.475788 -0.215252
C4    C     C_R   0.645044 0.995340 0.524362 -0.215254
C5    C     C_R   0.384395 0.972909 0.475780 -0.218048
C6    C     C_R   0.002465 0.622677 0.524220 -0.214833
C7    C     C_R   0.009192 0.359287 0.475670 -0.215231
C8    C     C_R   0.639952 0.860088 0.250005 0.783475
C9    C     C_R   0.360303 0.139926 0.750110 0.787883
C10   C     C_R   0.139969 0.640021 0.249990 0.788092
C11   C     C_R   0.860314 0.360078 0.749895 0.787279
C12   C     C_R   0.360127 0.140023 0.250024 0.783977
C13   C     C_R   0.997338 0.491815 0.381890 -0.021056
C14   C     C_R   0.639500 0.859726 0.750103 0.788987
C15   C     C_R   0.860146 0.360066 0.249988 0.779516
C16   C     C_R   0.139531 0.640180 0.749859 0.790356
C17   C     C_R   0.639891 0.140080 0.750104 0.782326
C18   C     C_R   0.360205 0.860190 0.250018 0.791450
C19   C     C_R   0.139834 0.359860 0.749845 0.784543
C20   C     C_R   0.860295 0.639968 0.250092 0.786966
C21   C     C_R   0.360396 0.859841 0.750124 0.791748
C22   C     C_R   0.639827 0.139928 0.250012 0.789107
C23   C     C_R   0.860514 0.640296 0.749899 0.784832
C24   C     C_R   0.994153 0.491747 0.618115 -0.014939
C25   C     C_R   0.139967 0.360286 0.249858 0.787521
C26   C     C_R   0.308279 0.799430 0.208705 -0.136373
C27   C     C_R   0.697524 0.199270 0.791809 -0.136528
C28   C     C_R   0.211972 0.318572 0.209014 -0.146953
C29   C     C_R   0.895682 0.790917 0.741125 -0.142871
C30   C     C_R   0.786909 0.105624 0.262257 -0.145936
C31   C     C_R   0.222814 0.885504 0.729126 -0.132205
C32   C     C_R   0.784922 0.676796 0.209653 -0.148162
C33   C     C_R   0.204116 0.310763 0.791320 -0.134176
C34   C     C_R   0.310343 0.204125 0.791366 -0.145297
C35   C     C_R   0.985886 0.497816 0.881753 -0.013104
C36   C     C_R   0.681814 0.786900 0.209151 -0.138667
C37   C     C_R   0.117374 0.776997 0.727559 -0.144082
C38   C     C_R   0.893897 0.212324 0.262185 -0.139240
C39   C     C_R   0.787670 0.896313 0.740293 -0.150157
C40   C     C_R   0.318935 0.212196 0.209051 -0.137681
C41   C     C_R   0.795387 0.313534 0.791034 -0.139299
C42   C     C_R   0.196222 0.699418 0.208258 -0.132734
C43   C     C_R   0.809540 0.297060 0.708583 -0.144028
C44   C     C_R   0.198784 0.696837 0.291729 -0.131509
C45   C     C_R   0.604407 0.709237 0.759048 -0.150198
C46   C     C_R   0.990418 0.497565 0.118042 -0.016700
C47   C     C_R   0.288141 0.183292 0.290958 -0.140113
C48   C     C_R   0.276133 0.615234 0.771453 -0.140970
C49   C     C_R   0.712920 0.394297 0.237748 -0.138507
C50   C     C_R   0.294799 0.185605 0.708987 -0.141698
C51   C     C_R   0.712074 0.818777 0.290969 -0.137838
C52   C     C_R   0.818939 0.712320 0.290904 -0.146131
C53   C     C_R   0.197422 0.300333 0.708145 -0.136607
C54   C     C_R   0.605846 0.287696 0.238035 -0.146316
C55   C     C_R   0.382716 0.722670 0.772235 -0.137864
C56   C     C_R   0.177115 0.285315 0.290308 -0.146780
C57   C     C_R   0.496840 0.007993 0.882014 -0.017985
C58   C     C_R   0.712456 0.603881 0.759965 -0.136602
C59   C     C_R   0.299740 0.808111 0.291352 -0.137283
C60   C     C_R   0.702304 0.191502 0.708521 -0.135372
C61   C     C_R   0.278823 0.777200 0.188499 -0.160790
C62   C     C_R   0.724335 0.227867 0.811718 -0.141037
C63   C     C_R   0.244540 0.297676 0.189054 -0.160191
C64   C     C_R   0.913317 0.863375 0.737159 -0.143881
C65   C     C_R   0.857830 0.087964 0.268079 -0.143022
C66   C     C_R   0.157375 0.898035 0.718216 -0.137477
C67   C     C_R   0.751448 0.695950 0.189708 -0.155563
C68   C     C_R   0.497144 0.014331 0.118276 -0.018141
C69   C     C_R   0.231728 0.284942 0.811443 -0.139075
C70   C     C_R   0.285191 0.232253 0.811463 -0.157102
C71   C     C_R   0.700532 0.751300 0.189434 -0.127230
C72   C     C_R   0.105380 0.843602 0.717132 -0.173341
C73   C     C_R   0.911197 0.141135 0.268005 -0.141843
C74   C     C_R   0.859436 0.915778 0.736497 -0.141462
C75   C     C_R   0.297627 0.244411 0.189055 -0.139010
C76   C     C_R   0.771658 0.286126 0.811341 -0.154511
C77   C     C_R   0.221984 0.728341 0.188307 -0.137686
C78   C     C_R   0.783267 0.270351 0.688446 -0.158398
C79   C     C_R   0.514189 0.996823 0.452676 -0.058650
C80   C     C_R   0.227654 0.722564 0.311706 -0.138136
C81   C     C_R   0.586794 0.636830 0.763099 -0.147844
C82   C     C_R   0.252882 0.202483 0.310675 -0.127327
C83   C     C_R   0.341515 0.602754 0.782407 -0.147376
C84   C     C_R   0.641862 0.411985 0.232065 -0.141614
C85   C     C_R   0.271277 0.213085 0.688665 -0.161374
C86   C     C_R   0.744451 0.797514 0.310939 -0.139750
C87   C     C_R   0.797997 0.744729 0.310888 -0.159673
C88   C     C_R   0.224186 0.271524 0.688256 -0.138327
C89   C     C_R   0.588490 0.358825 0.232191 -0.144021
C90   C     C_R   0.512794 0.001293 0.547240 -0.055926
C91   C     C_R   0.394136 0.656661 0.783067 -0.161130
C92   C     C_R   0.196977 0.252732 0.310323 -0.155236
C93   C     C_R   0.640683 0.584437 0.763777 -0.144845
C94   C     C_R   0.277069 0.778962 0.311544 -0.161525
C95   C     C_R   0.729117 0.218377 0.688409 -0.141075
C96   C     C_R   0.222613 0.723953 0.229306 0.063159
C97   C     C_R   0.774654 0.280866 0.770483 0.074269
C98   C     C_R   0.284420 0.230139 0.229547 0.062245
C99   C     C_R   0.768403 0.823587 0.745520 0.070861
C100  C     C_R   0.822384 0.231618 0.255807 0.073222
C101  C     C_R   0.993611 0.490646 0.452648 -0.056173
C102  C     C_R   0.182924 0.763314 0.739115 0.077693
C103  C     C_R   0.715779 0.769286 0.229708 0.066868
C104  C     C_R   0.280014 0.225771 0.770612 0.074833
C105  C     C_R   0.225938 0.280223 0.770536 0.065104
C106  C     C_R   0.769085 0.714045 0.229852 0.075975
C107  C     C_R   0.236999 0.817932 0.739551 0.073528
C108  C     C_R   0.768000 0.177364 0.255843 0.068160
C109  C     C_R   0.823214 0.769792 0.745740 0.074624
C110  C     C_R   0.229915 0.284234 0.229493 0.077602
C111  C     C_R   0.722721 0.224387 0.770721 0.062848
C112  C     C_R   0.499861 0.000567 0.810224 0.917986
C113  C     C_R   0.993589 0.490796 0.547305 -0.057161
C114  C     C_R   0.278470 0.776500 0.229418 0.075956
C115  C     C_R   0.725175 0.220725 0.729381 0.062169
C116  C     C_R   0.276599 0.778439 0.270619 0.075727
C117  C     C_R   0.731673 0.676524 0.754627 0.074810
C118  C     C_R   0.214256 0.269349 0.270118 0.076245
C119  C     C_R   0.316966 0.736586 0.760836 0.076966
C120  C     C_R   0.677478 0.268383 0.244291 0.067390
C121  C     C_R   0.222576 0.275329 0.729237 0.062330
C122  C     C_R   0.784398 0.730089 0.270453 0.077609
C123  C     C_R   0.730084 0.784372 0.270449 0.061902
C124  C     C_R   0.985124 0.499959 0.952556 -0.057290
C125  C     C_R   0.274355 0.218700 0.729507 0.077911
C126  C     C_R   0.731897 0.322599 0.244180 0.073531
C127  C     C_R   0.262584 0.682270 0.760617 0.073291
C128  C     C_R   0.269835 0.216424 0.270322 0.066098
C129  C     C_R   0.676850 0.730305 0.754378 0.073861
C130  C     C_R   0.223717 0.722877 0.270700 0.063254
C131  C     C_R   0.779550 0.274884 0.729344 0.075133
C132  C     C_R   0.196126 0.696376 0.249996 -0.169889
C133  C     C_R   0.803826 0.304559 0.749888 -0.168994
C134  C     C_R   0.304296 0.196604 0.249989 -0.167049
C135  C     C_R   0.987343 0.496779 0.047213 -0.057473
C136  C     C_R   0.695644 0.803628 0.749936 -0.163218
C137  C     C_R   0.804024 0.303909 0.249955 -0.157336
C138  C     C_R   0.195814 0.696102 0.749846 -0.155076
C139  C     C_R   0.696294 0.804028 0.250037 -0.166615
C140  C     C_R   0.303753 0.195386 0.750102 -0.167027
C141  C     C_R   0.196874 0.304404 0.749852 -0.169468
C142  C     C_R   0.803917 0.695712 0.250128 -0.164261
C143  C     C_R   0.304046 0.803893 0.750150 -0.153827
C144  C     C_R   0.695908 0.196071 0.250067 -0.161652
C145  C     C_R   0.804389 0.696424 0.750120 -0.160638
C146  C     C_R   0.494477 0.011823 0.952895 -0.058858
C147  C     C_R   0.195568 0.303788 0.249806 -0.164564
C148  C     C_R   0.696751 0.195726 0.750084 -0.170326
C149  C     C_R   0.304278 0.804117 0.250023 -0.168364
C150  C     C_R   0.452385 0.977291 0.417397 0.564600
C151  C     C_R   0.575847 0.992077 0.582725 0.567647
C152  C     C_R   0.007102 0.427303 0.417249 0.568406
C153  C     C_R   0.002985 0.555164 0.582633 0.575881
C154  C     C_R   0.575904 0.015645 0.417304 0.573184
C155  C     C_R   0.448085 0.011944 0.582405 0.572310
C156  C     C_R   0.981892 0.554432 0.417346 0.569486
C157  C     C_R   0.490759 0.015584 0.047460 -0.056222
C158  C     C_R   0.984828 0.426822 0.582680 0.563521
C159  C     C_R   0.921675 0.486301 0.917214 0.563522
C160  C     C_R   0.052680 0.488037 0.082318 0.559299
C161  C     C_R   0.502872 0.945712 0.917865 0.580442
C162  C     C_R   0.513691 0.077110 0.082684 0.570564
C163  C     C_R   0.047921 0.514320 0.917190 0.574972
C164  C     C_R   0.924454 0.504589 0.082812 0.572114
C165  C     C_R   0.489656 0.074630 0.917281 0.563554
C166  C     C_R   0.469677 0.955226 0.082892 0.577110
C167  C     C_R   0.561643 0.957986 0.369020 0.367820
C168  C     C_R   0.450428 0.980332 0.440833 -0.051412
C169  C     C_R   0.465248 0.950017 0.629359 0.344438
C170  C     C_R   0.048226 0.535563 0.370658 0.341058
C171  C     C_R   0.046110 0.451228 0.629996 0.334187
C172  C     C_R   0.460267 0.042493 0.370812 0.339009
C173  C     C_R   0.553874 0.047944 0.630694 0.345772
C174  C     C_R   0.946932 0.450952 0.369471 0.342732
C175  C     C_R   0.942277 0.532774 0.629924 0.364792
C176  C     C_R   0.031915 0.448966 0.870486 0.360429
C177  C     C_R   0.952209 0.444931 0.130423 0.361564
C178  C     C_R   0.547979 0.049023 0.869900 0.337866
C179  C     C_R   0.578026 0.995161 0.559256 -0.056544
C180  C     C_R   0.539106 0.960535 0.128951 0.339640
C181  C     C_R   0.944055 0.547637 0.869381 0.340099
C182  C     C_R   0.032466 0.549920 0.129344 0.337861
C183  C     C_R   0.445448 0.965807 0.870316 0.361797
C184  C     C_R   0.458726 0.065117 0.131360 0.346085
C185  C     C_R   0.561968 0.964925 0.345520 0.270593
C186  C     C_R   0.457456 0.953911 0.652741 0.289730
C187  C     C_R   0.044943 0.542678 0.347299 0.295003
C188  C     C_R   0.043292 0.448579 0.653448 0.291025
C189  C     C_R   0.451906 0.037416 0.347495 0.282162
C190  C     C_R   0.004369 0.425554 0.440720 -0.054322
C191  C     C_R   0.555736 0.042080 0.654120 0.296381
C192  C     C_R   0.950769 0.449900 0.345961 0.278643
C193  C     C_R   0.949036 0.541159 0.653301 0.271309
C194  C     C_R   0.042247 0.456093 0.847261 0.282277
C195  C     C_R   0.950745 0.449335 0.153992 0.262403
C196  C     C_R   0.544040 0.051815 0.846441 0.285927
C197  C     C_R   0.535449 0.952125 0.152306 0.281407
C198  C     C_R   0.944851 0.545306 0.845852 0.277229
C199  C     C_R   0.040821 0.545950 0.152634 0.297013
C200  C     C_R   0.451423 0.957767 0.846918 0.268702
C201  C     C_R   0.000748 0.556464 0.559178 -0.053196
C202  C     C_R   0.465829 0.064188 0.154818 0.281722
C203  C     C_3   0.328539 0.034384 0.342292 0.151950
C204  C     C_3   0.302359 0.991649 0.321938 -0.416714
C205  C     C_3   0.226901 0.959924 0.325752 -0.942979
C206  C     C_3   0.675003 0.038153 0.664550 0.107923
C207  C     C_3   0.678738 0.977203 0.681999 -0.394532
C208  C     C_3   0.753295 0.941248 0.682201 -0.944056
C209  C     C_3   0.923660 0.333448 0.334754 0.161562
C210  C     C_3   0.974066 0.314648 0.315242 -0.398671
C211  C     C_3   0.992355 0.233783 0.314944 -0.979521
C212  C     C_R   0.578059 0.012628 0.440783 -0.058841
C213  C     C_3   0.925793 0.661816 0.660355 0.137630
C214  C     C_3   0.995259 0.682787 0.672968 -0.393672
C215  C     C_3   0.016323 0.761446 0.668252 -0.949797
C216  C     C_3   0.680343 0.981075 0.334985 0.093666
C217  C     C_3   0.677226 0.045233 0.318645 -0.380015
C218  C     C_3   0.746879 0.089963 0.319475 -0.942818
C219  C     C_3   0.336809 0.934384 0.660063 0.165739
C220  C     C_3   0.315896 0.991661 0.677526 -0.411976
C221  C     C_3   0.238016 0.017396 0.674155 -0.971867
C222  C     C_3   0.054481 0.664235 0.339726 0.142738
C223  C     C_R   0.999789 0.499758 0.189758 0.910270
C224  C     C_R   0.447053 0.008260 0.558961 -0.054477
C225  C     C_3   0.007495 0.684111 0.319533 -0.412151
C226  C     C_3   0.990297 0.765258 0.319160 -0.948543
C227  C     C_3   0.049376 0.328617 0.663207 0.136500
C228  C     C_3   0.002234 0.314447 0.683807 -0.409633
C229  C     C_3   0.979010 0.234918 0.685101 -0.945663
C230  C     C_3   0.828856 0.567567 0.833636 0.164280
C231  C     C_3   0.814798 0.519377 0.813203 -0.402250
C232  C     C_3   0.735108 0.497704 0.811567 -0.976420
C233  C     C_3   0.162136 0.556036 0.159886 0.143843
C234  C     C_3   0.182591 0.508457 0.179914 -0.413525
C235  C     C_R   0.983165 0.555822 0.440802 -0.054160
C236  C     C_3   0.263499 0.491000 0.179990 -0.948922
C237  C     C_3   0.433675 0.836828 0.839349 0.144571
C238  C     C_3   0.494805 0.817588 0.822987 -0.392976
C239  C     C_3   0.522230 0.740357 0.826802 -0.955476
C240  C     C_3   0.482511 0.182387 0.165889 0.096243
C241  C     C_3   0.547053 0.178097 0.182016 -0.383066
C242  C     C_3   0.592413 0.247436 0.181216 -0.939093
C243  C     C_3   0.165115 0.459742 0.842040 0.111092
C244  C     C_3   0.175651 0.526355 0.826964 -0.393129
C245  C     C_3   0.246811 0.565032 0.832241 -0.937213
C246  C     C_R   0.986685 0.425247 0.559205 -0.055312
C247  C     C_3   0.834473 0.422532 0.165092 0.156211
C248  C     C_3   0.815386 0.473378 0.184509 -0.394064
C249  C     C_3   0.734606 0.491222 0.184748 -0.978813
C250  C     C_3   0.549377 0.171904 0.836740 0.136667
C251  C     C_3   0.502412 0.186599 0.816152 -0.407985
C252  C     C_3   0.479382 0.266198 0.815009 -0.945431
C253  C     C_3   0.532471 0.828208 0.157289 0.151725
C254  C     C_3   0.490482 0.801587 0.177697 -0.416574
C255  C     C_3   0.458661 0.726038 0.173807 -0.943775
C256  C     C_3   0.445129 0.154415 0.385905 0.097119
C257  C     C_R   0.920222 0.488310 0.940713 -0.056743
C258  C     C_3   0.394478 0.201563 0.399975 -0.316015
C259  C     C_3   0.426056 0.277309 0.403680 -0.964125
C260  C     C_3   0.561790 0.163729 0.618164 0.100143
C261  C     C_3   0.609139 0.217142 0.605180 -0.316178
C262  C     C_3   0.571660 0.290596 0.602551 -0.968054
C263  C     C_3   0.831685 0.449787 0.382697 0.131450
C264  C     C_3   0.772554 0.402117 0.392969 -0.355709
C265  C     C_3   0.752219 0.338831 0.377640 -0.760573
C266  C     C_3   0.820478 0.534455 0.622007 0.100655
C267  C     C_3   0.811304 0.467552 0.606943 -0.378632
C268  C     C_R   0.053259 0.490414 0.058873 -0.052097
C269  C     C_3   0.735195 0.435644 0.608855 -0.944990
C270  C     C_3   0.597316 0.841158 0.376757 0.109410
C271  C     C_3   0.542434 0.815409 0.394297 -0.382474
C272  C     C_3   0.531591 0.733265 0.393211 -0.937317
C273  C     C_3   0.468425 0.837484 0.613931 0.100854
C274  C     C_3   0.426257 0.783542 0.599511 -0.316561
C275  C     C_3   0.470330 0.714826 0.595074 -0.960554
C276  C     C_3   0.161122 0.535191 0.385500 0.098413
C277  C     C_3   0.214838 0.578745 0.399583 -0.315864
C278  C     C_3   0.285091 0.536604 0.403271 -0.963282
C279  C     C_R   0.498402 0.945391 0.941303 -0.056886
C280  C     C_3   0.159579 0.449910 0.615559 0.102504
C281  C     C_3   0.213692 0.404766 0.602107 -0.316084
C282  C     C_3   0.284119 0.446415 0.598176 -0.963315
C283  C     C_3   0.939319 0.661348 0.883951 0.105238
C284  C     C_3   0.892267 0.714190 0.897278 -0.318390
C285  C     C_3   0.932149 0.785383 0.901815 -0.961114
C286  C     C_3   0.025770 0.662696 0.114399 0.098584
C287  C     C_3   0.065684 0.718240 0.099984 -0.314420
C288  C     C_3   0.019377 0.785723 0.095982 -0.962623
C289  C     C_3   0.324335 0.960516 0.878987 0.112247
C290  C     C_R   0.509857 0.079031 0.059213 -0.057655
C291  C     C_3   0.313402 0.023571 0.895425 -0.385920
C292  C     C_3   0.236187 0.053103 0.894322 -0.938637
C293  C     C_3   0.344642 0.098441 0.121562 0.097839
C294  C     C_3   0.299929 0.158134 0.110430 -0.314732
C295  C     C_3   0.219229 0.139899 0.110582 -0.970276
C296  C     C_3   0.047449 0.328453 0.878954 0.105378
C297  C     C_3   0.982245 0.311719 0.894022 -0.380791
C298  C     C_3   0.959148 0.232328 0.892000 -0.939936
C299  C     C_3   0.944403 0.323859 0.121169 0.119666
C300  C     C_3   0.998255 0.311723 0.102033 -0.384122
C301  C     C_R   0.049687 0.512296 0.940627 -0.050905
C302  C     C_3   0.025537 0.233457 0.101546 -0.942942
C303  C     C_3   0.663774 0.053340 0.882487 0.102312
C304  C     C_3   0.719100 0.100217 0.894884 -0.315921
C305  C     C_3   0.792163 0.061800 0.896819 -0.964977
C306  C     C_3   0.649497 0.941313 0.113432 0.096353
C307  C     C_3   0.694020 0.888884 0.099156 -0.319224
C308  C     C_3   0.770828 0.917264 0.095417 -0.959672
C309  C     C_R   0.922194 0.502559 0.059325 -0.057240
C310  C     C_R   0.491887 0.077158 0.940752 -0.054904
C311  C     C_R   0.999560 0.500146 0.810215 0.920353
C312  C     C_R   0.471653 0.952741 0.059447 -0.053202
C313  C     C_R   0.386208 0.967083 0.452601 -0.139857
C314  C     C_R   0.643724 0.991155 0.547600 -0.140601
C315  C     C_R   0.012997 0.360429 0.452448 -0.141605
C316  C     C_R   0.006209 0.621870 0.547425 -0.137273
C317  C     C_R   0.642207 0.026194 0.452573 -0.137316
C318  C     C_R   0.381845 0.011690 0.547061 -0.141572
C319  C     C_R   0.973775 0.620826 0.452577 -0.142521
C320  C     C_R   0.981158 0.359729 0.547452 -0.140976
C321  C     C_R   0.855635 0.478057 0.952557 -0.140650
C322  C     C_R   0.999783 0.499559 0.689782 0.920956
C323  C     C_R   0.118269 0.486083 0.046925 -0.140529
C324  C     C_R   0.498342 0.880213 0.953330 -0.135492
C325  C     C_R   0.525963 0.142421 0.047290 -0.139901
C326  C     C_R   0.114526 0.522731 0.952300 -0.136656
C327  C     C_R   0.856447 0.507076 0.047758 -0.138001
C328  C     C_R   0.490763 0.143404 0.952278 -0.138194
C329  C     C_R   0.454986 0.888862 0.047814 -0.140976
C330  C     C_R   0.504145 0.000344 0.334755 -0.325586
C331  C     C_R   0.503818 0.999237 0.665198 -0.344414
C332  C     C_R   0.998871 0.497203 0.334820 -0.334546
C333  C     C_R   0.999816 0.499869 0.310215 0.908674
C334  C     C_R   0.998288 0.497145 0.665165 -0.337528
C335  C     C_R   0.995283 0.500387 0.834778 -0.334845
C336  C     C_R   0.996902 0.498632 0.165136 -0.332432
C337  C     C_R   0.499016 0.002920 0.834860 -0.333580
C338  C     C_R   0.500095 0.005027 0.165291 -0.324044
C339  C     C_R   0.919467 0.497904 0.011885 0.040327
C340  C     C_R   0.052340 0.505016 0.987936 0.040785
C341  C     C_R   0.479781 0.948458 0.012160 0.040558
C342  C     C_R   0.497191 0.080229 0.988142 0.040416
C343  C     C_R   0.053183 0.497958 0.011554 0.041361
C344  C     C_R   0.500271 0.999839 0.689780 0.919873
C345  C     C_R   0.919164 0.492916 0.988166 0.040743
C346  C     C_R   0.503056 0.080370 0.011818 0.040297
C347  C     C_R   0.487887 0.946602 0.988580 0.040416
C348  C     C_R   0.446660 0.998216 0.511682 0.040594
C349  C     C_R   0.580105 0.006817 0.488186 0.040136
C350  C     C_R   0.992208 0.423631 0.511803 0.040862
C351  C     C_R   0.988490 0.557460 0.488162 0.040865
C352  C     C_R   0.580258 0.001074 0.511864 0.040120
C353  C     C_R   0.447555 0.989811 0.488106 0.040709
C354  C     C_R   0.994504 0.557675 0.511821 0.040669
C355  C     C_R   0.499932 0.000086 0.310211 0.939107
C356  C     C_R   0.998026 0.423737 0.488118 0.040442
C357  C     C_R   0.986641 0.497511 0.023468 0.081483
C358  C     C_R   0.985518 0.499314 0.976302 0.081284
C359  C     C_R   0.491096 0.014841 0.023734 0.082377
C360  C     C_R   0.493166 0.012899 0.976617 0.083013
C361  C     C_R   0.513253 0.000241 0.523517 0.082212
C362  C     C_R   0.513976 0.997760 0.476400 0.082623
C363  C     C_R   0.993417 0.490692 0.523559 0.081240
C364  C     C_R   0.993344 0.490600 0.476393 0.080462
C365  C     C_R   0.854904 0.504000 0.024514 -0.214137
C366  C     C_R   0.512435 0.999416 0.381811 -0.023167
C367  C     C_R   0.116096 0.518456 0.975483 -0.215438
C368  C     C_R   0.460112 0.886305 0.024626 -0.216599
C369  C     C_R   0.494613 0.145074 0.975518 -0.216019
C370  C     C_R   0.118435 0.490487 0.023736 -0.216124
C371  C     C_R   0.854846 0.481051 0.975808 -0.214053
C372  C     C_R   0.521445 0.143538 0.024054 -0.214442
C373  C     C_R   0.491950 0.880641 0.976505 -0.215713
C374  C     C_R   0.381425 0.005533 0.523880 -0.216794
C375  C     C_R   0.643619 0.022119 0.475816 -0.215167
C376  C     C_R   0.984566 0.358723 0.524225 -0.215594
H1    H     H_    0.297386 0.800829 0.327136 0.148127
H2    H     H_    0.728454 0.822417 0.326546 0.155798
H3    H     H_    0.341270 0.946962 0.318611 0.205758
H4    H     H_    0.227516 0.921888 0.340148 0.265804
H5    H     H_    0.209282 0.929788 0.310617 0.273407
H6    H     H_    0.187245 0.004110 0.329039 0.267331
H7    H     H_    0.720363 0.076233 0.667749 0.155114
H8    H     H_    0.684847 0.015633 0.647497 0.180858
H9    H     H_    0.667050 0.999716 0.698868 0.209980
H10   H     H_    0.637636 0.934987 0.678055 0.224809
H11   H     H_    0.767263 0.920674 0.665283 0.270855
H12   H     H_    0.752831 0.894553 0.693919 0.273628
H13   H     H_    0.351057 0.551285 0.790638 0.141958
H14   H     H_    0.795257 0.980693 0.687730 0.262208
H15   H     H_    0.873587 0.300194 0.333250 0.161058
H16   H     H_    0.949478 0.317662 0.350894 0.165929
H17   H     H_    0.025234 0.346088 0.316796 0.200736
H18   H     H_    0.947468 0.329599 0.299232 0.226705
H19   H     H_    0.027523 0.221571 0.300361 0.264319
H20   H     H_    0.021777 0.218490 0.330431 0.271615
H21   H     H_    0.942062 0.200830 0.313595 0.276467
H22   H     H_    0.881240 0.697866 0.666139 0.161097
H23   H     H_    0.932292 0.672439 0.642157 0.189783
H24   H     H_    0.628338 0.467079 0.227291 0.143632
H25   H     H_    0.986909 0.675509 0.691227 0.212836
H26   H     H_    0.040771 0.647265 0.667608 0.220207
H27   H     H_    0.021082 0.770775 0.649977 0.277905
H28   H     H_    0.069748 0.773086 0.675973 0.271970
H29   H     H_    0.975142 0.799081 0.675317 0.260979
H30   H     H_    0.728618 0.947837 0.330786 0.152847
H31   H     H_    0.689295 0.001147 0.352359 0.186834
H32   H     H_    0.668932 0.024563 0.301369 0.209594
H33   H     H_    0.631164 0.081361 0.323060 0.227736
H34   H     H_    0.756241 0.110957 0.336643 0.268526
H35   H     H_    0.531163 0.621139 0.765853 0.144684
H36   H     H_    0.742231 0.136989 0.307956 0.275596
H37   H     H_    0.793932 0.056236 0.314294 0.263017
H38   H     H_    0.299859 0.887050 0.661891 0.164350
H39   H     H_    0.327608 0.956136 0.642912 0.179954
H40   H     H_    0.321703 0.968108 0.694507 0.220324
H41   H     H_    0.352575 0.039364 0.676199 0.206982
H42   H     H_    0.233265 0.047563 0.658158 0.274958
H43   H     H_    0.222191 0.054103 0.688056 0.266586
H44   H     H_    0.200262 0.970383 0.673841 0.267218
H45   H     H_    0.098709 0.704557 0.341454 0.158030
H46   H     H_    0.268503 0.177850 0.326296 0.152145
H47   H     H_    0.021648 0.669619 0.355327 0.166176
H48   H     H_    0.035832 0.669438 0.303807 0.222524
H49   H     H_    0.956050 0.652818 0.320283 0.201175
H50   H     H_    0.959473 0.780898 0.334369 0.266683
H51   H     H_    0.957180 0.778184 0.304208 0.270441
H52   H     H_    0.041161 0.797526 0.318308 0.270648
H53   H     H_    0.091992 0.286407 0.662217 0.158801
H54   H     H_    0.016085 0.321237 0.647775 0.163346
H55   H     H_    0.032515 0.328686 0.699230 0.220562
H56   H     H_    0.953244 0.349326 0.682914 0.200481
H57   H     H_    0.805834 0.289383 0.672806 0.144845
H58   H     H_    0.945635 0.220272 0.670318 0.267835
H59   H     H_    0.946411 0.225978 0.700440 0.268975
H60   H     H_    0.027335 0.198947 0.685831 0.268577
H61   H     H_    0.793262 0.616158 0.832564 0.166256
H62   H     H_    0.812924 0.538304 0.849211 0.162679
H63   H     H_    0.830712 0.549013 0.797788 0.227119
H64   H     H_    0.848121 0.469319 0.814466 0.198958
H65   H     H_    0.718969 0.465404 0.826427 0.273635
H66   H     H_    0.726538 0.464088 0.796376 0.262614
H67   H     H_    0.700299 0.546826 0.810410 0.274208
H68   H     H_    0.210987 0.699369 0.327448 0.157786
H69   H     H_    0.202240 0.600462 0.158189 0.158222
H70   H     H_    0.167202 0.523577 0.144174 0.165149
H71   H     H_    0.168610 0.536614 0.195744 0.222672
H72   H     H_    0.151282 0.456929 0.179167 0.201564
H73   H     H_    0.278448 0.460347 0.164667 0.266412
H74   H     H_    0.276840 0.457462 0.194827 0.270314
H75   H     H_    0.295856 0.541884 0.180848 0.270883
H76   H     H_    0.387660 0.799029 0.836389 0.163432
H77   H     H_    0.451677 0.827326 0.856891 0.182448
H78   H     H_    0.474578 0.822863 0.805594 0.213924
H79   H     H_    0.790025 0.310332 0.826840 0.143601
H80   H     H_    0.541038 0.855602 0.825202 0.218270
H81   H     H_    0.549541 0.736565 0.843299 0.277196
H82   H     H_    0.561795 0.725695 0.813548 0.267946
H83   H     H_    0.476561 0.701094 0.826380 0.261113
H84   H     H_    0.449604 0.230605 0.170481 0.151423
H85   H     H_    0.501986 0.192332 0.148521 0.189221
H86   H     H_    0.526961 0.169570 0.199331 0.209246
H87   H     H_    0.582414 0.131634 0.177366 0.229366
H88   H     H_    0.613075 0.256818 0.164026 0.269602
H89   H     H_    0.639526 0.242110 0.192642 0.276075
H90   H     H_    0.198453 0.712162 0.172560 0.158253
H91   H     H_    0.559389 0.294904 0.186517 0.262664
H92   H     H_    0.211294 0.422367 0.839229 0.147201
H93   H     H_    0.168570 0.476025 0.859959 0.195773
H94   H     H_    0.175561 0.509061 0.809161 0.209627
H95   H     H_    0.130690 0.565568 0.829584 0.227197
H96   H     H_    0.248018 0.582181 0.850039 0.275271
H97   H     H_    0.251849 0.614290 0.821668 0.277391
H98   H     H_    0.293502 0.528504 0.828871 0.257173
H99   H     H_    0.801271 0.372368 0.166595 0.164329
H100  H     H_    0.819016 0.448146 0.148885 0.167689
H101  H     H_    0.873191 0.971742 0.732847 0.140879
H102  H     H_    0.830431 0.447154 0.200573 0.226812
H103  H     H_    0.846443 0.524827 0.182881 0.200422
H104  H     H_    0.719143 0.520155 0.169185 0.271816
H105  H     H_    0.722231 0.526830 0.199241 0.263828
H106  H     H_    0.702042 0.440649 0.186225 0.277001
H107  H     H_    0.591973 0.214128 0.837881 0.159145
H108  H     H_    0.515908 0.178769 0.852164 0.163812
H109  H     H_    0.532749 0.172653 0.800712 0.220986
H110  H     H_    0.453379 0.151735 0.816953 0.200277
H111  H     H_    0.446027 0.280622 0.829819 0.267022
H112  H     H_    0.708679 0.198139 0.672666 0.164616
H113  H     H_    0.322802 0.228564 0.173476 0.159766
H114  H     H_    0.446845 0.275514 0.799684 0.269988
H115  H     H_    0.527800 0.302082 0.814348 0.268852
H116  H     H_    0.573657 0.787077 0.152534 0.157465
H117  H     H_    0.494258 0.831929 0.142848 0.172389
H118  H     H_    0.526745 0.799676 0.192462 0.223633
H119  H     H_    0.446050 0.840573 0.181227 0.206183
H120  H     H_    0.420320 0.726937 0.159500 0.266110
H121  H     H_    0.429001 0.708139 0.188977 0.273356
H122  H     H_    0.502614 0.686306 0.170338 0.267158
H123  H     H_    0.453609 0.181266 0.369416 0.159183
H124  H     H_    0.055491 0.853181 0.708137 0.136627
H125  H     H_    0.498128 0.149752 0.394768 0.140803
H126  H     H_    0.341277 0.206586 0.391380 0.229924
H127  H     H_    0.385518 0.175154 0.416447 0.231229
H128  H     H_    0.478697 0.273637 0.412629 0.267589
H129  H     H_    0.387961 0.310122 0.413925 0.269964
H130  H     H_    0.434352 0.305180 0.387424 0.268090
H131  H     H_    0.550533 0.186898 0.635034 0.159630
H132  H     H_    0.509685 0.156503 0.608945 0.138044
H133  H     H_    0.661385 0.225014 0.614132 0.230471
H134  H     H_    0.620910 0.194382 0.588348 0.232060
H135  H     H_    0.966150 0.127361 0.272737 0.143783
H136  H     H_    0.519268 0.284040 0.593612 0.268574
H137  H     H_    0.606769 0.327663 0.592708 0.270533
H138  H     H_    0.561609 0.315483 0.619187 0.270595
H139  H     H_    0.841054 0.496848 0.394072 0.104498
H140  H     H_    0.812026 0.470571 0.366276 0.153152
H141  H     H_    0.791596 0.380515 0.409286 0.229003
H142  H     H_    0.723541 0.435829 0.396046 0.169816
H143  H     H_    0.732981 0.359452 0.361241 0.247123
H144  H     H_    0.708035 0.306611 0.385436 0.231048
H145  H     H_    0.799614 0.302603 0.374954 0.277877
H146  H     H_    0.308141 0.213798 0.827110 0.144513
H147  H     H_    0.777518 0.574448 0.617768 0.172411
H148  H     H_    0.811698 0.519398 0.639838 0.163103
H149  H     H_    0.821777 0.482940 0.589279 0.239196
H150  H     H_    0.850973 0.425138 0.611890 0.240875
H151  H     H_    0.723980 0.419073 0.626361 0.267232
H152  H     H_    0.730870 0.386972 0.597950 0.272185
H153  H     H_    0.694065 0.476092 0.603469 0.267043
H154  H     H_    0.648670 0.810537 0.379096 0.167285
H155  H     H_    0.577734 0.827689 0.359616 0.155382
H156  H     H_    0.561877 0.830603 0.411252 0.238013
H157  H     H_    0.674969 0.766201 0.173883 0.151147
H158  H     H_    0.489381 0.842295 0.391356 0.237226
H159  H     H_    0.511257 0.717093 0.376457 0.266321
H160  H     H_    0.491198 0.716503 0.405967 0.271911
H161  H     H_    0.583492 0.704724 0.396624 0.263779
H162  H     H_    0.481581 0.811253 0.630214 0.162095
H163  H     H_    0.519755 0.851649 0.605087 0.142222
H164  H     H_    0.374979 0.768548 0.608123 0.233271
H165  H     H_    0.412400 0.809499 0.583297 0.230998
H166  H     H_    0.521212 0.728437 0.586060 0.268769
H167  H     H_    0.438133 0.676802 0.584610 0.269947
H168  H     H_    0.764772 0.667345 0.174429 0.145476
H169  H     H_    0.483899 0.687384 0.611057 0.268605
H170  H     H_    0.186440 0.523098 0.368988 0.159763
H171  H     H_    0.149092 0.483182 0.394323 0.142119
H172  H     H_    0.227441 0.630814 0.391006 0.231062
H173  H     H_    0.189971 0.591393 0.416060 0.231238
H174  H     H_    0.273904 0.484898 0.412205 0.267647
H175  H     H_    0.322889 0.569725 0.413527 0.269938
H176  H     H_    0.311494 0.524384 0.387011 0.268456
H177  H     H_    0.184401 0.463913 0.631998 0.160333
H178  H     H_    0.147796 0.500855 0.606137 0.139081
H179  H     H_    0.212297 0.306398 0.827134 0.154080
H180  H     H_    0.225949 0.353690 0.611273 0.230595
H181  H     H_    0.189336 0.390270 0.585702 0.231971
H182  H     H_    0.273285 0.497095 0.588669 0.268286
H183  H     H_    0.322184 0.412138 0.588384 0.269875
H184  H     H_    0.310031 0.460421 0.614374 0.268903
H185  H     H_    0.954013 0.687085 0.867718 0.168327
H186  H     H_    0.989679 0.650292 0.893689 0.141635
H187  H     H_    0.841804 0.725896 0.887784 0.233480
H188  H     H_    0.877040 0.688833 0.913468 0.232317
H189  H     H_    0.982116 0.775077 0.911679 0.268666
H190  H     H_    0.871205 0.032900 0.272931 0.140210
H191  H     H_    0.896477 0.822512 0.911481 0.269950
H192  H     H_    0.946923 0.812251 0.885838 0.269190
H193  H     H_    0.012644 0.688102 0.130831 0.157691
H194  H     H_    0.974443 0.647321 0.105734 0.140159
H195  H     H_    0.116880 0.734519 0.108424 0.231706
H196  H     H_    0.079551 0.693151 0.083623 0.231299
H197  H     H_    0.968461 0.770845 0.087175 0.267419
H198  H     H_    0.049898 0.824947 0.085486 0.270716
H199  H     H_    0.005805 0.812352 0.112116 0.268589
H200  H     H_    0.282641 0.918364 0.882394 0.172398
H201  H     H_    0.147022 0.950123 0.710490 0.142436
H202  H     H_    0.314902 0.979263 0.861514 0.157859
H203  H     H_    0.324830 0.004680 0.912706 0.238812
H204  H     H_    0.351581 0.068277 0.891312 0.238491
H205  H     H_    0.224053 0.073169 0.877229 0.263822
H206  H     H_    0.230262 0.098967 0.906262 0.272816
H207  H     H_    0.196639 0.010026 0.898865 0.266071
H208  H     H_    0.325162 0.091642 0.139071 0.167305
H209  H     H_    0.336517 0.046650 0.112181 0.139625
H210  H     H_    0.308544 0.210298 0.119452 0.228349
H211  H     H_    0.318291 0.165064 0.092867 0.233109
H212  H     H_    0.229086 0.323615 0.173543 0.148731
H213  H     H_    0.209128 0.088322 0.101427 0.270257
H214  H     H_    0.188658 0.184186 0.102250 0.273114
H215  H     H_    0.199285 0.134571 0.128018 0.269022
H216  H     H_    0.092189 0.290590 0.883296 0.169857
H217  H     H_    0.033747 0.317547 0.861112 0.155547
H218  H     H_    0.996540 0.323639 0.911694 0.238555
H219  H     H_    0.935739 0.346694 0.889201 0.238394
H220  H     H_    0.943570 0.219629 0.874497 0.266642
H221  H     H_    0.911690 0.222187 0.902986 0.270946
H222  H     H_    0.004064 0.195861 0.897202 0.266027
H223  H     H_    0.168559 0.266290 0.325602 0.145662
H224  H     H_    0.968959 0.879107 0.734455 0.142968
H225  H     H_    0.900671 0.282511 0.119909 0.171578
H226  H     H_    0.971667 0.314571 0.137553 0.156602
H227  H     H_    0.971674 0.324430 0.085832 0.240078
H228  H     H_    0.045432 0.348523 0.104212 0.239785
H229  H     H_    0.053656 0.220136 0.117436 0.267833
H230  H     H_    0.064347 0.226614 0.087518 0.270391
H231  H     H_    0.979609 0.195224 0.099047 0.268479
H232  H     H_    0.685362 0.040938 0.865499 0.162792
H233  H     H_    0.656038 0.001648 0.891918 0.137521
H234  H     H_    0.726653 0.152330 0.885784 0.230952
H235  H     H_    0.300738 0.797466 0.172922 0.148552
H236  H     H_    0.698409 0.112631 0.911915 0.231820
H237  H     H_    0.786122 0.009987 0.906151 0.268318
H238  H     H_    0.830934 0.097201 0.905948 0.269448
H239  H     H_    0.814569 0.050252 0.879955 0.269946
H240  H     H_    0.677059 0.948356 0.129875 0.161551
H241  H     H_    0.646776 0.994763 0.104694 0.143090
H242  H     H_    0.696859 0.835173 0.107604 0.229532
H243  H     H_    0.667007 0.881474 0.082705 0.231326
H244  H     H_    0.769317 0.970372 0.086618 0.268866
H245  H     H_    0.801663 0.877939 0.085017 0.269555
H246  H     H_    0.707791 0.205368 0.827575 0.158997
H247  H     H_    0.799275 0.923907 0.111647 0.267993
H248  H     H_    0.354839 0.834488 0.207627 0.149064
H249  H     H_    0.657397 0.157330 0.793595 0.185376
H250  H     H_    0.173017 0.362190 0.208028 0.148486
H251  H     H_    0.939688 0.752268 0.740456 0.140349
H252  H     H_    0.747250 0.062487 0.263251 0.143174
H253  H     H_    0.261927 0.929302 0.729273 0.122200
H254  H     H_    0.822497 0.631853 0.208942 0.143120
H255  H     H_    0.626913 0.528489 0.767442 0.143672
H256  H     H_    0.166405 0.355384 0.792559 0.171952
H257  H     H_    0.354289 0.165867 0.792567 0.155046
H258  H     H_    0.640192 0.827812 0.207912 0.162001
H259  H     H_    0.075101 0.736387 0.726304 0.115259
H260  H     H_    0.937242 0.251771 0.262993 0.142118
H261  H     H_    0.747900 0.939108 0.738747 0.149545
H262  H     H_    0.362952 0.173636 0.208074 0.173425
H263  H     H_    0.829939 0.360733 0.791862 0.147909
H264  H     H_    0.155656 0.657945 0.206483 0.180767
H265  H     H_    0.854007 0.334734 0.707391 0.155715
H266  H     H_    0.533504 0.372504 0.227461 0.140075
H267  H     H_    0.156940 0.656641 0.293458 0.180099
H268  H     H_    0.560418 0.747906 0.759705 0.142136
H269  H     H_    0.329441 0.142100 0.292287 0.164853
H270  H     H_    0.236332 0.572026 0.771765 0.126243
H271  H     H_    0.752518 0.437487 0.236790 0.141634
H272  H     H_    0.328982 0.138050 0.708194 0.146697
H273  H     H_    0.673244 0.862567 0.291996 0.172722
H274  H     H_    0.862719 0.673583 0.291846 0.148219
H275  H     H_    0.157532 0.342492 0.706355 0.184146
H276  H     H_    0.562536 0.248213 0.237187 0.143873
H277  H     H_    0.444065 0.647092 0.792013 0.134783
H278  H     H_    0.425597 0.762665 0.773026 0.110696
H279  H     H_    0.131783 0.322385 0.290968 0.143104
H280  H     H_    0.752219 0.561071 0.761437 0.146182
H281  H     H_    0.335255 0.854364 0.292465 0.149900
H282  H     H_    0.664272 0.147228 0.707186 0.180393
H283  H     H_    0.336510 0.953433 0.443906 0.186577
H284  H     H_    0.694727 0.985772 0.556421 0.186523
H285  H     H_    0.022209 0.309670 0.443700 0.186089
H286  H     H_    0.012752 0.673108 0.556138 0.186574
H287  H     H_    0.692044 0.039140 0.443856 0.186195
H288  H     H_    0.824069 0.729345 0.326381 0.147723
H289  H     H_    0.330498 0.017856 0.555653 0.186538
H290  H     H_    0.964614 0.671610 0.443878 0.186747
H291  H     H_    0.974847 0.308562 0.556182 0.186776
H292  H     H_    0.805025 0.468177 0.943881 0.186615
H293  H     H_    0.169696 0.480075 0.055472 0.186866
H294  H     H_    0.502077 0.828298 0.944844 0.186711
H295  H     H_    0.541402 0.191898 0.055896 0.186385
H296  H     H_    0.164816 0.533405 0.943536 0.186958
H297  H     H_    0.805541 0.512387 0.056648 0.186205
H298  H     H_    0.488034 0.194530 0.943356 0.186720
H299  H     H_    0.207810 0.294008 0.672385 0.159215
H300  H     H_    0.439254 0.839923 0.056623 0.186288
H301  H     H_    0.802258 0.508899 0.016839 0.141217
H302  H     H_    0.167906 0.528214 0.983271 0.141844
H303  H     H_    0.445972 0.835408 0.016786 0.142634
H304  H     H_    0.492885 0.198042 0.983249 0.142078
H305  H     H_    0.170578 0.485559 0.015729 0.142132
H306  H     H_    0.803180 0.471495 0.983705 0.141442
H307  H     H_    0.535443 0.194063 0.016008 0.142020
H308  H     H_    0.493019 0.828388 0.984656 0.142157
H309  H     H_    0.329238 0.009270 0.515825 0.142333
H310  H     H_    0.289544 0.188737 0.673176 0.148640
H311  H     H_    0.694784 0.033941 0.483759 0.141720
H312  H     H_    0.978800 0.306234 0.516399 0.141271
H313  H     H_    0.968177 0.673888 0.483642 0.142106
H314  H     H_    0.697561 0.991204 0.516525 0.142192
H315  H     H_    0.333171 0.961377 0.483730 0.142410
H316  H     H_    0.008327 0.675084 0.516386 0.141501
H317  H     H_    0.017573 0.307190 0.483477 0.141328
H318  H     H_    0.287363 0.075685 0.346889 0.157992
H319  H     H_    0.332031 0.996553 0.356850 0.170043
H320  H     H_    0.300765 0.027523 0.307070 0.223729
N1    N     N_R   0.513938 0.996864 0.405980 -0.304914
N2    N     N_R   0.511613 0.001873 0.593934 -0.306817
N3    N     N_R   0.995272 0.491058 0.405997 -0.304012
N4    N     N_R   0.993839 0.491113 0.593979 -0.301520
N5    N     N_R   0.984946 0.499512 0.905884 -0.301988
N6    N     N_R   0.989014 0.496394 0.093897 -0.303423
N7    N     N_R   0.496584 0.009583 0.906200 -0.303906
N8    N     N_R   0.492792 0.016018 0.094144 -0.304984
O1    O     O_3   0.500000 0.000000 0.250000 -0.491641
O2    O     O_R   0.439130 0.000000 0.799610 -0.618465
O3    O     O_3   0.579457 0.912078 0.116417 -0.603175
O4    O     O_R   0.000000 0.560870 0.200390 -0.628467
O5    O     O_R   0.000000 0.439130 0.799610 -0.632794
O6    O     O_R   0.939130 0.500000 0.700390 -0.616414
O7    O     O_R   0.060870 0.500000 0.299610 -0.628387
O8    O     O_R   0.500000 0.939130 0.700390 -0.613483
O9    O     O_R   0.500000 0.060870 0.299610 -0.631638
O10   O     O_R   0.060870 0.500000 0.700390 -0.624564
O11   O     O_R   0.939130 0.500000 0.299610 -0.613522
O12   O     O_R   0.500000 0.060870 0.700390 -0.631043
O13   O     O_3   0.500000 0.000000 0.750000 -0.495232
O14   O     O_R   0.500000 0.939130 0.299610 -0.634871
O15   O     O_R   0.646010 0.914780 0.237240 -0.641197
O16   O     O_R   0.353990 0.085220 0.762760 -0.647740
O17   O     O_R   0.085220 0.646010 0.237240 -0.642868
O18   O     O_R   0.914780 0.353990 0.762760 -0.640516
O19   O     O_R   0.353990 0.085220 0.237240 -0.632806
O20   O     O_R   0.646010 0.914780 0.762760 -0.639291
O21   O     O_R   0.914780 0.353990 0.237240 -0.633189
O22   O     O_R   0.085220 0.646010 0.762760 -0.639311
O23   O     O_R   0.646010 0.085220 0.762760 -0.649064
O24   O     O_3   1.000000 0.500000 0.250000 -0.494265
O25   O     O_R   0.353990 0.914780 0.237240 -0.644080
O26   O     O_R   0.085220 0.353990 0.762760 -0.635359
O27   O     O_R   0.914780 0.646010 0.237240 -0.637589
O28   O     O_R   0.353990 0.914780 0.762760 -0.628799
O29   O     O_R   0.646010 0.085220 0.237240 -0.640019
O30   O     O_R   0.914780 0.646010 0.762760 -0.637117
O31   O     O_R   0.085220 0.353990 0.237240 -0.646258
O32   O     O_R   0.146010 0.414780 0.737240 -0.646339
O33   O     O_R   0.853990 0.585220 0.262760 -0.645706
O34   O     O_R   0.585220 0.146010 0.737240 -0.635426
O35   O     O_3   0.000000 0.500000 0.750000 -0.495438
O36   O     O_R   0.414780 0.853990 0.262760 -0.644916
O37   O     O_R   0.853990 0.585220 0.737240 -0.630939
O38   O     O_R   0.146010 0.414780 0.262760 -0.637183
O39   O     O_R   0.414780 0.853990 0.737240 -0.632232
O40   O     O_R   0.585220 0.146010 0.262760 -0.641364
O41   O     O_R   0.146010 0.585220 0.262760 -0.642207
O42   O     O_R   0.853990 0.414780 0.737240 -0.649836
O43   O     O_R   0.585220 0.853990 0.262760 -0.633946
O44   O     O_R   0.414780 0.146010 0.737240 -0.639833
O45   O     O_R   0.853990 0.414780 0.262760 -0.632589
O46   O     O_R   0.439130 0.000000 0.200390 -0.635006
O47   O     O_R   0.146010 0.585220 0.737240 -0.635576
O48   O     O_R   0.414780 0.146010 0.262760 -0.642553
O49   O     O_R   0.585220 0.853990 0.737240 -0.642854
O50   O     O_2   0.393083 0.954849 0.406111 -0.567327
O51   O     O_2   0.637350 0.978467 0.594190 -0.553748
O52   O     O_2   0.022013 0.365880 0.405786 -0.560537
O53   O     O_2   0.014681 0.617472 0.594010 -0.563131
O54   O     O_2   0.635011 0.038101 0.405951 -0.553914
O55   O     O_2   0.385965 0.025576 0.593578 -0.560559
O56   O     O_2   0.967121 0.615968 0.405962 -0.566289
O57   O     O_R   0.560870 0.000000 0.799610 -0.624608
O58   O     O_2   0.973627 0.364601 0.594094 -0.564049
O59   O     O_2   0.860484 0.470701 0.905817 -0.559777
O60   O     O_2   0.115364 0.477068 0.093457 -0.567420
O61   O     O_2   0.513747 0.882592 0.906845 -0.557325
O62   O     O_2   0.539104 0.135486 0.093887 -0.551508
O63   O     O_2   0.108753 0.531264 0.905775 -0.569538
O64   O     O_2   0.862689 0.515374 0.094446 -0.557554
O65   O     O_2   0.479892 0.136710 0.905677 -0.559123
O66   O     O_2   0.444987 0.897125 0.094357 -0.565045
O67   O     O_3   0.394054 0.071133 0.337027 -0.627168
O68   O     O_R   0.000000 0.439130 0.200390 -0.613116
O69   O     O_3   0.609024 0.077667 0.666236 -0.624482
O70   O     O_3   0.902808 0.407479 0.333779 -0.602969
O71   O     O_3   0.904864 0.589196 0.664901 -0.615557
O72   O     O_3   0.618169 0.936034 0.332953 -0.639211
O73   O     O_3   0.408472 0.909202 0.663660 -0.605114
O74   O     O_3   0.086614 0.594786 0.336676 -0.620223
O75   O     O_3   0.083895 0.397463 0.664868 -0.620628
O76   O     O_3   0.901573 0.592384 0.833678 -0.605378
O77   O     O_3   0.092841 0.588031 0.163141 -0.617266
O78   O     O_3   0.408003 0.908408 0.835622 -0.614277
O79   O     O_R   0.000000 0.560870 0.799610 -0.612224
O80   O     O_3   0.437463 0.120092 0.167676 -0.636283
O81   O     O_3   0.100066 0.421972 0.836805 -0.632427
O82   O     O_3   0.908296 0.401623 0.166237 -0.613236
O83   O     O_3   0.583945 0.103169 0.834876 -0.623971
O84   O     O_3   0.569183 0.893829 0.162593 -0.628777
O85   O     O_3   0.413120 0.085407 0.382993 -0.598071
O86   O     O_3   0.598926 0.096991 0.620085 -0.589260
O87   O     O_3   0.895951 0.408827 0.380337 -0.578609
O88   O     O_3   0.888224 0.568580 0.618218 -0.609494
O89   O     O_3   0.613349 0.915826 0.379666 -0.596631
O90   O     O_R   0.560870 0.000000 0.200390 -0.631518
O91   O     O_3   0.425219 0.899760 0.617406 -0.601159
O92   O     O_3   0.097444 0.576632 0.382651 -0.596768
O93   O     O_3   0.095822 0.408776 0.618678 -0.590475
O94   O     O_3   0.899744 0.596773 0.880282 -0.598298
O95   O     O_3   0.070821 0.601543 0.117467 -0.591484
O96   O     O_3   0.393067 0.927779 0.882082 -0.602630
O97   O     O_3   0.418338 0.118928 0.121161 -0.595943
O98   O     O_3   0.072999 0.400024 0.882672 -0.604152
O99   O     O_3   0.911356 0.393049 0.119314 -0.602977
O100  O     O_3   0.597848 0.091893 0.881016 -0.588784
Zn1   Zn    Zn3+2 0.500000 0.913460 0.269040 0.962461
Zn2   Zn    Zn3+2 0.000000 0.586540 0.230960 0.959243
Zn3   Zn    Zn3+2 0.586540 0.000000 0.769040 0.958061
Zn4   Zn    Zn3+2 0.413460 0.000000 0.230960 0.963245
Zn5   Zn    Zn3+2 1.000000 0.586540 0.769040 0.970196
Zn6   Zn    Zn3+2 1.000000 0.413460 0.230960 0.964434
Zn7   Zn    Zn3+2 0.413460 0.000000 0.769040 0.966296
Zn8   Zn    Zn3+2 0.586540 0.000000 0.230960 0.961137
Zn9   Zn    Zn3+2 0.500000 0.086540 0.730960 0.960751
Zn10  Zn    Zn3+2 0.086540 0.500000 0.269040 0.959212
Zn11  Zn    Zn3+2 0.913460 0.500000 0.730960 0.963546
Zn12  Zn    Zn3+2 0.500000 0.086540 0.269040 0.960541
Zn13  Zn    Zn3+2 0.500000 0.913460 0.730960 0.970465
Zn14  Zn    Zn3+2 0.913460 0.500000 0.269040 0.964198
Zn15  Zn    Zn3+2 0.086540 0.500000 0.730960 0.962672
Zn16  Zn    Zn3+2 0.000000 0.413460 0.769040 0.959058

loop_
_geom_bond_atom_site_label_1
_geom_bond_atom_site_label_2
_ccdc_geom_bond_type
C228  H56   S    
O49   Zn13  S    
C81   C93   A    
O35   Zn15  S    
C189  C330  A    
C51   C123  A    
C41   H263  S    
C291  C292  S    
C120  C144  A    
C347  C360  A    
C226  H52   S    
C112  C337  S    
C80   H68   S    
C112  O57   A    
C126  C137  A    
C205  H4    S    
C55   C119  A    
C344  O12   A    
C44   H267  S    
C245  H97   S    
C317  H287  S    
C266  H148  S    
C234  H71   S    
C342  C369  A    
C13   N3    S    
C254  H119  S    
C214  H26   S    
C29   C109  A    
C284  C285  S    
C323  C370  A    
C5    C353  A    
C272  H159  S    
O1    Zn12  S    
C40   C98   A    
C286  O95   S    
C345  C358  A    
C297  C298  S    
C311  O79   A    
C146  C310  A    
C156  C235  A    
C44   C130  A    
C231  H64   S    
C167  C185  A    
C281  H181  S    
C201  C316  A    
C119  C143  A    
C244  C245  S    
C274  C275  S    
C294  H210  S    
C39   C74   A    
C211  H21   S    
O11   Zn14  S    
C293  H209  S    
C31   H253  S    
C343  C370  A    
C154  C212  A    
C11   O42   A    
C37   H259  S    
C52   C122  A    
C66   C72   A    
C288  H199  S    
C203  O67   S    
C170  C187  A    
C327  C365  A    
O42   Zn11  S    
C339  C365  A    
C113  C201  A    
O13   Zn3   S    
C304  H234  S    
C217  H33   S    
C172  O85   S    
C81   H35   S    
C36   C71   A    
C33   C69   A    
C199  O77   S    
C375  H311  S    
C174  O87   S    
C29   C64   A    
C245  H98   S    
C19   C141  S    
C326  H296  S    
C283  O94   S    
C194  C335  A    
C284  H188  S    
C188  C334  A    
C263  H140  S    
C302  H229  S    
C234  C236  S    
C291  H204  S    
C289  H200  S    
C196  C337  A    
C286  H194  S    
C228  C229  S    
C106  C142  A    
C153  C201  A    
C79   C212  A    
O57   Zn3   S    
C206  O69   S    
C109  C145  A    
C177  O99   S    
C340  C367  A    
C7    H317  S    
C236  H74   S    
C273  O91   S    
C94   H1    S    
C256  O85   S    
C263  C264  S    
C253  H117  S    
C38   C100  A    
C269  H152  S    
C274  H165  S    
C197  O84   S    
C328  H298  S    
C206  C207  S    
C230  O76   S    
C197  C338  A    
C276  O92   S    
C266  O88   S    
C230  H61   S    
C115  C148  A    
C173  C191  A    
C20   O33   A    
C104  C140  A    
C299  O99   S    
C279  C324  A    
C170  O92   S    
C26   C114  A    
C366  N1    S    
C306  H240  S    
C20   C142  S    
O1    Zn1   S    
C17   O34   A    
C72   H124  S    
C10   O17   A    
C151  C179  A    
C303  C304  S    
C40   H262  S    
C241  H86   S    
C218  H37   S    
C306  C307  S    
O35   Zn11  S    
C25   C147  S    
C253  H116  S    
C280  C281  S    
C163  O63   S    
C225  H49   S    
C260  H132  S    
C23   O37   A    
C251  H110  S    
C28   H250  S    
C221  H42   S    
C208  H12   S    
C250  H107  S    
C6    C354  A    
C307  H243  S    
C296  C297  S    
C124  C257  A    
C87   H288  S    
C305  H237  S    
O37   Zn11  S    
C176  O98   S    
C107  C143  A    
C226  H50   S    
C108  C144  A    
C57   C178  A    
C215  H29   S    
C48   H270  S    
C256  H123  S    
C68   C184  A    
C177  C195  A    
C301  C326  A    
C31   C107  A    
C376  H312  S    
C271  H158  S    
C16   C138  S    
C182  C199  A    
C12   O19   A    
C155  N2    A    
C158  N4    A    
C303  H232  S    
C40   C75   A    
C298  H222  S    
C1    O46   A    
C35   C181  A    
C88   H299  S    
C83   C91   A    
C300  H228  S    
C276  H170  S    
C43   C131  A    
C3    H313  S    
C216  O72   S    
C146  C360  A    
C111  C148  A    
C355  O9    A    
C48   C127  A    
C280  H177  S    
C240  O80   S    
O33   Zn14  S    
C37   C102  A    
O68   Zn6   S    
C222  O74   S    
C333  O11   A    
C211  H19   S    
C99   C136  A    
O32   Zn15  S    
C258  H126  S    
C69   C70   A    
C304  H236  S    
C192  O70   S    
C299  H226  S    
C100  C137  A    
C135  C309  A    
C2    C169  A    
C60   C95   A    
C204  H3    S    
C348  C361  A    
C66   H201  S    
C310  C328  A    
C229  H58   S    
C22   C144  S    
O34   Zn9   S    
C68   N8    S    
C53   C121  A    
C93   H255  S    
O16   Zn7   S    
C264  H141  S    
C17   O23   A    
C184  O97   S    
C175  C193  A    
C35   C176  A    
C271  C272  S    
C372  H307  S    
C91   H277  S    
C22   O40   A    
C230  H62   S    
C287  H196  S    
C265  H143  S    
C67   H168  S    
C218  H34   S    
C160  O60   S    
C219  H39   S    
C289  O96   S    
C97   C133  A    
C162  N8    A    
C341  C347  A    
C351  C354  A    
C209  O70   S    
O40   Zn12  S    
C58   H280  S    
C30   H252  S    
C200  O78   S    
C49   C126  A    
C365  H301  S    
C282  H183  S    
C213  O71   S    
C244  H95   S    
C191  O69   S    
C239  H82   S    
C244  H94   S    
C118  C147  A    
C47   C128  A    
C57   N7    S    
C313  H283  S    
C11   O18   A    
C261  C262  S    
C9    C140  S    
C63   H212  S    
C256  H125  S    
C239  H83   S    
C123  C139  A    
O24   Zn10  S    
C241  C242  S    
C82   H46   S    
C224  C318  A    
C24   C171  A    
C202  O80   S    
C280  O93   S    
O14   Zn1   S    
O13   Zn9   S    
C124  C301  A    
C327  H297  S    
C221  H44   S    
C207  H10   S    
C270  H155  S    
O18   Zn16  S    
C319  H290  S    
C61   C77   A    
C264  C265  S    
C256  C258  S    
C305  H239  S    
C245  H96   S    
C52   H274  S    
C70   H146  S    
C229  H59   S    
C285  H192  S    
C346  C372  A    
C117  C129  A    
O19   Zn4   S    
C243  O81   S    
C227  H53   S    
C42   H264  S    
C206  H8    S    
C344  O8    A    
C208  H14   S    
C27   C111  A    
C159  C257  A    
C204  H320  S    
C277  C278  S    
C56   H279  S    
C373  H308  S    
C311  O5    A    
C60   H282  S    
C308  H245  S    
C369  H304  S    
C297  H218  S    
O45   Zn14  S    
C220  C221  S    
C21   O28   A    
C46   C177  A    
C75   H113  S    
C248  H103  S    
C229  H60   S    
C125  C140  A    
C22   O29   A    
C54   H276  S    
C100  C108  A    
C240  H84   S    
C188  O75   S    
C262  H136  S    
C17   C148  S    
C332  C333  S    
O79   Zn5   S    
C209  H16   S    
C293  O97   S    
C326  C367  A    
C235  C319  A    
C277  H172  S    
C222  C225  S    
C28   C110  A    
C217  C218  S    
C275  H166  S    
C265  H145  S    
C328  C369  A    
C58   C117  A    
C89   H266  S    
C213  H22   S    
C28   C63   A    
C121  C125  A    
C293  C294  S    
C27   C62   A    
C128  C134  A    
C324  C373  A    
C232  H66   S    
O2    Zn7   S    
C39   C99   A    
C200  C337  A    
C209  C210  S    
C116  C130  A    
C102  C107  A    
C163  N5    A    
C50   C125  A    
C227  H54   S    
C237  O78   S    
C196  O83   S    
C18   O36   A    
C92   H223  S    
C32   C67   A    
C127  C138  A    
C160  C268  A    
C349  C352  A    
C3    C319  A    
C65   H190  S    
O5    Zn16  S    
C135  C268  A    
C267  H150  S    
C41   C97   A    
C252  H111  S    
C206  H7    S    
C225  H48   S    
C295  H213  S    
O4    Zn2   S    
C173  O86   S    
C85   C88   A    
C304  C305  S    
C10   O41   A    
C312  C329  A    
C73   H135  S    
C157  C290  A    
C124  C358  A    
C19   O32   A    
C158  O58   S    
C32   H254  S    
C260  C261  S    
C9    O16   A    
C251  H109  S    
C288  H197  S    
C296  H216  S    
O24   Zn14  S    
C193  C334  A    
C269  H153  S    
O6    Zn11  S    
C15   O45   A    
C237  H77   S    
C183  C200  A    
C320  C376  A    
C48   C83   A    
C14   O20   A    
O41   Zn10  S    
C46   C182  A    
C258  C259  S    
C272  H160  S    
C24   C175  A    
C63   C75   A    
C228  H55   S    
C231  H63   S    
C281  H180  S    
C240  C241  S    
C165  N7    A    
C289  H202  S    
C210  H17   S    
C294  H211  S    
C29   H251  S    
C10   C132  S    
C30   C65   A    
C355  O14   A    
C151  O51   S    
C273  H163  S    
C295  H214  S    
C6    C316  A    
C331  C344  S    
C150  O50   S    
C189  O67   S    
C204  C205  S    
C42   C77   A    
C275  H169  S    
C283  C284  S    
C113  C363  A    
C308  H247  S    
C15   C137  S    
C1    C338  S    
C219  H38   S    
C252  H115  S    
C64   H224  S    
C217  H32   S    
C110  C147  A    
C174  C192  A    
C119  C127  A    
C151  N2    A    
C345  C371  A    
C325  C372  A    
C45   C129  A    
C98   C110  A    
C157  C312  A    
C26   H248  S    
C159  N5    A    
C263  H139  S    
C302  H230  S    
C259  H130  S    
C291  H203  S    
C15   O21   A    
O29   Zn8   S    
C278  H176  S    
O44   Zn9   S    
C45   C81   A    
C161  O61   S    
C7    C356  A    
C255  H120  S    
C323  H293  S    
C367  H302  S    
C316  H286  S    
C213  C214  S    
C43   C78   A    
C333  O7    A    
C322  O6    A    
C255  H122  S    
C171  C188  A    
C36   C103  A    
C42   C96   A    
C222  H45   S    
C26   C61   A    
C169  C186  A    
C269  H151  S    
C2    C173  A    
C233  O77   S    
C294  C295  S    
C97   C111  A    
C120  C126  A    
C317  C375  A    
C198  O76   S    
C278  H175  S    
O28   Zn7   S    
C243  C244  S    
C99   C109  A    
C178  C196  A    
C82   C92   A    
C292  H205  S    
C117  C145  A    
C135  C357  A    
C261  H133  S    
C104  C105  A    
C55   C91   A    
C50   C85   A    
C182  O95   S    
C343  C357  A    
C203  H318  S    
O46   Zn4   S    
C296  H217  S    
O23   Zn3   S    
C205  H6    S    
C59   C116  A    
C242  H91   S    
O17   Zn2   S    
C340  C343  A    
C223  O4    A    
C59   C94   A    
O38   Zn10  S    
C34   C70   A    
C152  C190  A    
C341  C359  A    
C318  H289  S    
O13   Zn7   S    
C250  H108  S    
O9    Zn12  S    
C49   H271  S    
C252  H114  S    
O35   Zn16  S    
C53   H275  S    
C9    O44   A    
C321  C371  A    
C62   C76   A    
C61   H235  S    
C285  H189  S    
C46   N6    S    
C164  N6    A    
C226  H51   S    
C51   C86   A    
C325  H295  S    
C300  C302  S    
C116  C149  A    
C13   C174  A    
C339  C345  A    
C216  H31   S    
C83   H13   S    
O24   Zn6   S    
C266  H147  S    
C302  H231  S    
C178  O100  S    
C207  C208  S    
C322  O10   A    
C214  H25   S    
C121  C141  A    
C44   C80   A    
C33   C105  A    
C308  H244  S    
C251  C252  S    
C101  C190  A    
C161  C279  A    
C219  C220  S    
C298  H221  S    
C86   C87   A    
C248  H102  S    
C131  C133  A    
C250  C251  S    
C218  H36   S    
C1    O90   A    
C307  C308  S    
O36   Zn1   S    
C169  O91   S    
C254  H118  S    
C8    O15   A    
C247  H99   S    
C258  H127  S    
C2    N2    S    
C90   C224  A    
C254  C255  S    
C78   H57   S    
C280  H178  S    
C290  C325  A    
C287  C288  S    
C62   H246  S    
C43   H265  S    
C78   C95   A    
C220  H40   S    
C275  H167  S    
C85   H310  S    
C212  C317  A    
C247  O82   S    
C296  O98   S    
C320  H291  S    
C157  C359  A    
C71   H157  S    
C191  C331  A    
C167  O89   S    
C77   H90   S    
C199  C336  A    
C249  H104  S    
C34   H257  S    
C155  O55   S    
C262  H137  S    
C342  C346  A    
C270  O89   S    
C284  H187  S    
O15   Zn8   S    
C238  H78   S    
C259  H128  S    
C84   H24   S    
C80   C94   A    
C309  C327  A    
C286  H193  S    
C248  C249  S    
C49   C84   A    
C329  C368  A    
C287  H195  S    
C232  H67   S    
C238  C239  S    
C211  H20   S    
C339  C357  A    
C6    H316  S    
C236  H73   S    
C4    C352  A    
C56   C118  A    
C374  H309  S    
C4    H314  S    
C162  C290  A    
C253  O84   S    
C220  H41   S    
C187  C332  A    
C3    C351  A    
C152  O52   S    
C234  H72   S    
C172  C189  A    
O22   Zn5   S    
C292  H207  S    
C282  H184  S    
C262  H138  S    
C249  H105  S    
C239  H81   S    
C160  N6    A    
C230  C231  S    
C179  C314  A    
C50   H272  S    
O47   Zn15  S    
C267  C269  S    
C253  C254  S    
C14   C136  S    
C243  H92   S    
C324  H294  S    
C165  C310  A    
C241  H87   S    
C242  H89   S    
C7    C315  A    
C41   C76   A    
C25   O31   A    
C67   C71   A    
C315  H285  S    
C271  H156  S    
O26   Zn16  S    
C96   C114  A    
C351  C364  A    
C221  H43   S    
O1    Zn8   S    
C207  H9    S    
C283  H185  S    
C298  H220  S    
C33   H256  S    
C215  H28   S    
C37   C72   A    
C305  H238  S    
C64   C74   A    
C270  C271  S    
C27   H249  S    
C58   C93   A    
C168  C313  A    
C285  H191  S    
C114  C149  A    
C176  C194  A    
C18   O25   A    
C30   C108  A    
C38   H260  S    
C195  C336  A    
C190  C315  A    
C295  H215  S    
C261  H134  S    
C31   C66   A    
C352  C361  A    
C39   H261  S    
C54   C120  A    
C370  H305  S    
C340  C358  A    
C306  O3    S    
C36   H258  S    
C161  N7    A    
C341  C368  A    
C342  C360  A    
C150  N1    A    
O43   Zn1   S    
C166  C312  A    
O25   Zn4   S    
C208  H11   S    
C115  C131  A    
C23   C145  S    
C193  O71   S    
C300  H227  S    
C283  H186  S    
C8    C139  S    
C278  H174  S    
O31   Zn6   S    
C166  O66   S    
O12   Zn9   S    
C209  H15   S    
C11   C133  S    
C105  C141  A    
C286  C287  S    
C238  H80   S    
C113  C246  A    
C14   O49   A    
C265  H144  S    
C223  C336  S    
C65   C73   A    
C21   O39   A    
C102  C138  A    
C47   C82   A    
C162  O62   S    
C272  H161  S    
C348  C374  A    
C5    H315  S    
C180  C197  A    
C289  C291  S    
C246  C320  A    
C118  C128  A    
C249  H106  S    
C227  C228  S    
C16   O47   A    
C165  O65   S    
C76   H79   S    
C172  C366  A    
C303  H233  S    
C240  H85   S    
C257  C321  A    
C216  C217  S    
C347  C373  A    
C79   C168  A    
C103  C106  A    
C18   C149  S    
C273  H162  S    
O21   Zn6   S    
C96   C132  A    
C203  H319  S    
C222  H47   S    
C260  O86   S    
C150  C168  A    
C35   N5    S    
C55   H278  S    
C32   C106  A    
C47   H269  S    
C236  H75   S    
C267  H149  S    
C155  C224  A    
C164  O64   S    
C350  C376  A    
O8    Zn13  S    
C152  N3    A    
C181  C198  A    
C348  C353  A    
C247  H100  S    
C322  C334  S    
C276  C277  S    
C25   O38   A    
C356  C364  A    
C184  C202  A    
C282  H182  S    
C154  O54   S    
C277  H173  S    
C175  O88   S    
C21   C143  S    
C54   C89   A    
C293  H208  S    
C4    C314  A    
C299  C300  S    
C214  C215  S    
C164  C309  A    
C187  O74   S    
C281  C282  S    
C216  H30   S    
C233  H70   S    
C68   C180  A    
C167  C366  A    
C34   C104  A    
C354  C363  A    
C153  O53   S    
C16   O22   A    
C8    O43   A    
C101  C235  A    
C103  C139  A    
C349  C362  A    
C129  C136  A    
C311  C335  S    
C270  H154  S    
O27   Zn2   S    
O1    Zn4   S    
C23   O30   A    
C350  C356  A    
C154  N1    A    
C112  O2    A    
C195  O82   S    
C225  C226  S    
C274  H164  S    
C210  H18   S    
C19   O26   A    
C299  H225  S    
C250  O83   S    
C95   H112  S    
C74   H101  S    
C181  O94   S    
C180  O3    S    
C237  H76   S    
O35   Zn5   S    
C223  O68   A    
C51   H273  S    
C186  O73   S    
C183  O96   S    
O48   Zn12  S    
C242  H88   S    
C186  C331  A    
C329  H300  S    
O24   Zn2   S    
C90   C361  A    
O30   Zn5   S    
C69   H179  S    
C233  H69   S    
C314  H284  S    
C84   C89   A    
C122  C142  A    
C146  C279  A    
C297  H219  S    
C59   H281  S    
C57   C183  A    
C233  C234  S    
C156  N3    A    
C90   C179  A    
C194  O81   S    
C350  C363  A    
C215  H27   S    
C219  O73   S    
C276  H171  S    
C52   C87   A    
O10   Zn15  S    
C259  H129  S    
C260  H131  S    
C171  O93   S    
C185  C330  A    
C86   H2    S    
C306  H241  S    
C247  C248  S    
C185  O72   S    
C13   C170  A    
C330  C355  S    
C198  C335  A    
C153  N4    A    
C5    C313  A    
O90   Zn8   S    
C321  H292  S    
C349  C375  A    
C98   C134  A    
C255  H121  S    
O7    Zn10  S    
C307  H242  S    
C24   N4    S    
C130  C132  A    
C213  H23   S    
C101  C364  A    
C192  C332  A    
C159  O59   S    
C202  C338  A    
O20   Zn3   S    
C232  H65   S    
C368  H303  S    
C227  O75   S    
C371  H306  S    
C263  O87   S    
C303  O100  S    
C20   O27   A    
C292  H206  S    
C53   C88   A    
C166  N8    A    
C346  C359  A    
C318  C374  A    
C353  C362  A    
C266  C267  S    
C288  H198  S    
C163  C301  A    
C12   O48   A    
C205  H5    S    
C243  H93   S    
C45   H268  S    
C210  C211  S    
C231  C232  S    
C60   C115  A    
C12   C134  S    
C158  C246  A    
C203  C204  S    
C122  C123  A    
C237  C238  S    
C56   C92   A    
C264  H142  S    
O13   Zn13  S    
C268  C323  A    
C79   C362  A    
C156  O56   S    
O39   Zn13  S    
C38   C73   A    
C273  C274  S    
