data_mof_unit_57243.cif
_audit_creation_date              2013-03-05T15:40:16-0500
_audit_creation_method            fapswitch 2.2
_symmetry_space_group_name_H-M    P1
_symmetry_Int_Tables_number       1
_space_group_crystal_system       triclinic
_cell_length_a                    28.135755
_cell_length_b                    18.387909
_cell_length_c                    17.037995
_cell_angle_alpha                 90.212694
_cell_angle_beta                  61.173999
_cell_angle_gamma                 90.317704
_cell_volume                      7722.36171531

loop_
_atom_site_label
_atom_site_type_symbol
_atom_site_description
_atom_site_fract_x
_atom_site_fract_y
_atom_site_fract_z
_atom_type_partial_charge
O1    O     O_R   0.746490 0.236330 0.638080 -0.673166
O2    O     O_R   0.253510 0.763670 0.361920 -0.632812
O3    O     O_R   0.253510 0.236330 0.361920 -0.634001
O4    O     O_R   0.746490 0.763670 0.638080 -0.670611
O5    O     O_R   0.246490 0.736330 0.638080 -0.634591
O6    O     O_R   0.753510 0.263670 0.361920 -0.630864
O7    O     O_R   0.753510 0.736330 0.361920 -0.647655
O8    O     O_R   0.246490 0.263670 0.638080 -0.657467
O9    O     O_R   0.674170 0.186160 0.516270 -0.634914
O10   O     O_R   0.325830 0.813840 0.483730 -0.624391
O11   O     O_R   0.325830 0.186160 0.483730 -0.632812
O12   O     O_R   0.674170 0.813840 0.516270 -0.634142
O13   O     O_R   0.174170 0.686160 0.516270 -0.631562
O14   O     O_R   0.825830 0.313840 0.483730 -0.620390
O15   O     O_R   0.825830 0.686160 0.483730 -0.628706
O16   O     O_R   0.174170 0.313840 0.516270 -0.641914
O17   O     O_R   0.739960 0.127620 0.525000 -0.584040
O18   O     O_R   0.260040 0.872380 0.475000 -0.587463
O19   O     O_R   0.260040 0.127620 0.475000 -0.591608
O20   O     O_R   0.739960 0.872380 0.525000 -0.593157
O21   O     O_R   0.239960 0.627620 0.525000 -0.587283
O22   O     O_R   0.760040 0.372380 0.475000 -0.576460
O23   O     O_R   0.760040 0.627620 0.475000 -0.578435
O24   O     O_R   0.239960 0.372380 0.525000 -0.582882
O25   O     O_R   0.680700 0.294870 0.629350 -0.580425
O26   O     O_R   0.319300 0.705130 0.370650 -0.562195
O27   O     O_R   0.319300 0.294870 0.370650 -0.553990
O28   O     O_R   0.680700 0.705130 0.629350 -0.568651
O29   O     O_R   0.180700 0.794870 0.629350 -0.566358
O30   O     O_R   0.819300 0.205130 0.370650 -0.548017
O31   O     O_R   0.819300 0.794870 0.370650 -0.554594
O32   O     O_R   0.180700 0.205130 0.629350 -0.568604
C1    C     C_R   0.701152 0.267190 0.676140 0.862930
C2    C     C_R   0.298893 0.732927 0.323852 0.914391
C3    C     C_R   0.298912 0.267163 0.323732 0.926009
C4    C     C_R   0.701251 0.732625 0.676165 0.899454
C5    C     C_R   0.201135 0.767123 0.676134 0.912327
C6    C     C_R   0.798871 0.232837 0.323840 0.951138
C7    C     C_R   0.798692 0.767658 0.323814 0.937588
C8    C     C_R   0.201120 0.232872 0.676247 0.888934
C9    C     C_R   0.690294 0.130268 0.538779 0.884545
C10   C     C_R   0.309673 0.869760 0.461319 0.875509
C11   C     C_R   0.304658 0.127422 0.478002 0.886710
C12   C     C_R   0.695317 0.872580 0.522113 0.896036
C13   C     C_R   0.190420 0.629980 0.539197 0.877329
C14   C     C_R   0.794752 0.368871 0.505188 0.890259
C15   C     C_R   0.794927 0.630959 0.504864 0.889933
C16   C     C_R   0.190437 0.370195 0.538998 0.881368
Zn1   Zn    Zn3+2 0.792340 0.208750 0.507670 1.062434
Zn2   Zn    Zn3+2 0.207660 0.791250 0.492330 1.089751
Zn3   Zn    Zn3+2 0.207660 0.208750 0.492330 1.078054
Zn4   Zn    Zn3+2 0.792340 0.791250 0.507670 1.057991
Zn5   Zn    Zn3+2 0.292340 0.708750 0.507670 1.097978
Zn6   Zn    Zn3+2 0.707660 0.291250 0.492330 1.067219
Zn7   Zn    Zn3+2 0.707660 0.708750 0.492330 1.064416
Zn8   Zn    Zn3+2 0.292340 0.291250 0.507670 1.082340
H1    H     H_    0.009453 0.251441 0.603931 0.166183
H2    H     H_    0.927337 0.748778 0.593927 0.143942
H3    H     H_    0.924646 0.251717 0.596561 0.150768
H4    H     H_    0.011311 0.748696 0.603880 0.162753
H5    H     H_    0.591533 0.779607 0.369458 0.157759
H6    H     H_    0.406451 0.218401 0.636378 0.150357
H7    H     H_    0.508166 0.773946 0.357624 0.170979
H8    H     H_    0.490203 0.224517 0.647138 0.173049
C17   C     C_R   0.521146 0.121312 0.580910 0.092095
C18   C     C_R   0.477891 0.877988 0.421891 0.088768
C19   C     C_R   0.425146 0.114792 0.567098 0.107644
C20   C     C_R   0.573689 0.884347 0.436037 0.106524
C21   C     C_R   0.022084 0.631920 0.589501 0.094102
C22   C     C_R   0.923880 0.368400 0.579933 0.102129
C23   C     C_R   0.925386 0.632004 0.578111 0.126758
C24   C     C_R   0.021349 0.368124 0.588967 0.091539
C25   C     C_R   0.483028 0.177676 0.615437 -0.157436
C26   C     C_R   0.515522 0.821030 0.388753 -0.139926
C27   C     C_R   0.435141 0.174057 0.609496 -0.179878
C28   C     C_R   0.563190 0.824407 0.395260 -0.095612
C29   C     C_R   0.994984 0.697388 0.595890 -0.138127
C30   C     C_R   0.945021 0.302957 0.592031 -0.178482
C31   C     C_R   0.947063 0.697439 0.590128 -0.119446
C32   C     C_R   0.993446 0.302796 0.596240 -0.156757
C33   C     C_R   0.462813 0.057804 0.532861 0.043565
C34   C     C_R   0.536215 0.941553 0.469832 0.036198
C35   C     C_R   0.510402 0.060528 0.540993 0.036241
C36   C     C_R   0.488674 0.938864 0.461619 0.041684
C37   C     C_R   0.951143 0.566065 0.575064 0.047555
C38   C     C_R   0.999215 0.434110 0.580748 0.038884
C39   C     C_R   0.999672 0.565999 0.580725 0.043432
C40   C     C_R   0.950479 0.434216 0.575721 0.042740
C41   C     C_R   0.927528 0.500171 0.569149 -0.029248
C42   C     C_R   0.024955 0.500004 0.580042 -0.030510
C43   C     C_R   0.452311 0.997428 0.492180 -0.023382
C44   C     C_R   0.546893 0.002111 0.510039 -0.028034
C45   C     C_R   0.857147 0.433607 0.552480 0.061882
C46   C     C_R   0.101031 0.566588 0.578817 0.058989
C47   C     C_R   0.101016 0.433294 0.577794 0.056098
C48   C     C_R   0.857881 0.566767 0.551249 0.062177
C49   C     C_R   0.393429 0.934194 0.445088 0.065748
C50   C     C_R   0.606214 0.065704 0.555990 0.058451
C51   C     C_R   0.628053 0.942867 0.496071 0.039596
C52   C     C_R   0.371488 0.056970 0.505134 0.048507
C53   C     C_R   0.812929 0.434550 0.533230 -0.190945
C54   C     C_R   0.154210 0.565671 0.569863 -0.182242
C55   C     C_R   0.154267 0.434432 0.569134 -0.178923
C56   C     C_R   0.813361 0.565498 0.532392 -0.182112
C57   C     C_R   0.344812 0.934133 0.438958 -0.180137
C58   C     C_R   0.655109 0.065887 0.561363 -0.178598
C59   C     C_R   0.667136 0.939427 0.526897 -0.169946
C60   C     C_R   0.332762 0.060570 0.473516 -0.171373
C61   C     C_R   0.786609 0.499944 0.538332 -0.112963
C62   C     C_R   0.175598 0.500132 0.580166 -0.101680
C63   C     C_R   0.322956 0.999636 0.433737 -0.107347
C64   C     C_R   0.677085 0.000401 0.566419 -0.116419
C65   C     C_R   0.880818 0.500201 0.557511 0.086051
C66   C     C_R   0.075635 0.499941 0.579289 0.077838
C67   C     C_R   0.406020 0.996337 0.480319 0.079862
C68   C     C_R   0.593431 0.003421 0.521223 0.074841
C69   C     C_R   0.070805 0.368265 0.590171 -0.174467
C70   C     C_R   0.878195 0.631723 0.569875 -0.150560
C71   C     C_R   0.876525 0.368824 0.572318 -0.202968
C72   C     C_R   0.071096 0.631567 0.591962 -0.161454
C73   C     C_R   0.620468 0.887095 0.445269 -0.160598
C74   C     C_R   0.378749 0.112515 0.556582 -0.198605
C75   C     C_R   0.429983 0.875326 0.415390 -0.162475
C76   C     C_R   0.569453 0.124375 0.586318 -0.175126
H9    H     H_    0.083638 0.317272 0.604785 0.201590
H10   H     H_    0.856861 0.682608 0.582297 0.169983
H11   H     H_    0.854412 0.318203 0.585703 0.169433
H12   H     H_    0.083973 0.682384 0.607707 0.199181
H13   H     H_    0.650455 0.845331 0.411907 0.177458
H14   H     H_    0.348824 0.154465 0.589338 0.167662
H15   H     H_    0.422785 0.828971 0.383026 0.193349
H16   H     H_    0.576817 0.170810 0.618373 0.197138
H17   H     H_    0.726317 0.377137 0.984432 0.202665
H18   H     H_    0.348430 0.776501 0.934529 0.210095
H19   H     H_    0.275734 0.375671 0.015062 0.202299
H20   H     H_    0.656766 0.792050 0.052101 0.214263
H21   H     H_    0.151946 0.724239 0.065138 0.211364
H22   H     H_    0.774569 0.124030 0.014454 0.203195
H23   H     H_    0.844722 0.706932 0.945594 0.212710
H24   H     H_    0.225221 0.123040 0.983872 0.201200
C77   C     C_R   0.720222 0.264847 0.954033 -0.069495
C78   C     C_R   0.278127 0.731527 0.047697 -0.071614
C79   C     C_R   0.280459 0.263197 0.045375 -0.071768
C80   C     C_R   0.722847 0.730836 0.950988 -0.079663
C81   C     C_R   0.222241 0.769210 0.951958 -0.071940
C82   C     C_R   0.780604 0.236312 0.045004 -0.070176
C83   C     C_R   0.778490 0.767816 0.047219 -0.079704
C84   C     C_R   0.220438 0.235528 0.953682 -0.072228
C85   C     C_R   0.734474 0.192596 0.962331 0.329883
C86   C     C_R   0.221889 0.716828 0.084882 0.332391
C87   C     C_R   0.265687 0.191081 0.036704 0.337591
C88   C     C_R   0.776711 0.706716 0.920042 0.338511
C89   C     C_R   0.278480 0.783946 0.914768 0.333679
C90   C     C_R   0.766446 0.308582 0.036550 0.332902
C91   C     C_R   0.724875 0.792732 0.077469 0.335720
C92   C     C_R   0.235266 0.307626 0.962282 0.335095
C93   C     C_R   0.764764 0.179554 0.006830 -0.280190
C94   C     C_R   0.194765 0.736655 0.037041 -0.254820
C95   C     C_R   0.235562 0.178446 0.991764 -0.283979
C96   C     C_R   0.803789 0.726137 0.968339 -0.261840
C97   C     C_R   0.305609 0.764100 0.962615 -0.257188
C98   C     C_R   0.736121 0.321621 0.992095 -0.280592
C99   C     C_R   0.697649 0.772751 0.029599 -0.261429
C100  C     C_R   0.265387 0.320258 0.007203 -0.282073
C101  C     C_R   0.643813 0.327290 0.944954 -0.192207
C102  C     C_R   0.355569 0.671708 0.055635 -0.195727
C103  C     C_R   0.357386 0.324794 0.053815 -0.203500
C104  C     C_R   0.644581 0.672204 0.944493 -0.191305
C105  C     C_R   0.144684 0.828751 0.944126 -0.194108
C106  C     C_R   0.856763 0.173583 0.054460 -0.197001
C107  C     C_R   0.856767 0.825913 0.053994 -0.191045
C108  C     C_R   0.143440 0.173943 0.945286 -0.196285
H25   H     H_    0.631427 0.349411 0.011037 0.184286
H26   H     H_    0.367187 0.648418 0.990353 0.185779
H27   H     H_    0.370096 0.346213 0.987408 0.180302
H28   H     H_    0.632604 0.649845 0.010235 0.182269
H29   H     H_    0.133093 0.852121 0.009360 0.186735
H30   H     H_    0.869250 0.151608 0.988277 0.180562
H31   H     H_    0.869102 0.847739 0.987881 0.182260
H32   H     H_    0.130939 0.152125 0.011442 0.184228
C109  C     C_R   0.614523 0.344005 0.899429 -0.188088
C110  C     C_R   0.385387 0.655930 0.100558 -0.185043
C111  C     C_R   0.386440 0.342404 0.099458 -0.175369
C112  C     C_R   0.614615 0.656224 0.899805 -0.185311
C113  C     C_R   0.114731 0.844243 0.899357 -0.185175
C114  C     C_R   0.885787 0.156416 0.100276 -0.183842
C115  C     C_R   0.886269 0.842605 0.099219 -0.176055
C116  C     C_R   0.114065 0.156937 0.899961 -0.189903
C117  C     C_R   0.627959 0.312305 0.817463 0.283850
C118  C     C_R   0.372128 0.688040 0.182272 0.261886
C119  C     C_R   0.372613 0.311714 0.181944 0.263671
C120  C     C_R   0.628180 0.687591 0.817787 0.263490
C121  C     C_R   0.127946 0.812006 0.817732 0.261306
C122  C     C_R   0.872235 0.187880 0.182404 0.259062
C123  C     C_R   0.872297 0.811993 0.181766 0.250833
C124  C     C_R   0.127589 0.188377 0.817932 0.273272
C125  C     C_R   0.677578 0.277839 0.772046 -0.140214
C126  C     C_R   0.322437 0.722310 0.227911 -0.171975
C127  C     C_R   0.322662 0.277521 0.227749 -0.181581
C128  C     C_R   0.678286 0.721209 0.771643 -0.152727
C129  C     C_R   0.177689 0.777883 0.772019 -0.170883
C130  C     C_R   0.822662 0.222510 0.227745 -0.177318
C131  C     C_R   0.821937 0.778899 0.228124 -0.184642
C132  C     C_R   0.177514 0.222556 0.772171 -0.156761
C133  C     C_R   0.707641 0.260646 0.816615 -0.159978
C134  C     C_R   0.292066 0.738953 0.183740 -0.135544
C135  C     C_R   0.292654 0.259627 0.183052 -0.142781
C136  C     C_R   0.709366 0.737053 0.815023 -0.148292
C137  C     C_R   0.208203 0.761536 0.816031 -0.133970
C138  C     C_R   0.792881 0.240222 0.182816 -0.144377
C139  C     C_R   0.791174 0.762597 0.184241 -0.147367
C140  C     C_R   0.207828 0.239815 0.816492 -0.161647
H33   H     H_    0.745787 0.231834 0.782039 0.173254
H34   H     H_    0.254365 0.768764 0.218039 0.185132
H35   H     H_    0.254242 0.231032 0.217734 0.178279
H36   H     H_    0.747818 0.765545 0.780172 0.174352
H37   H     H_    0.245948 0.731826 0.781683 0.184485
H38   H     H_    0.754813 0.269216 0.217251 0.179155
H39   H     H_    0.752529 0.734574 0.219157 0.173370
H40   H     H_    0.246265 0.268350 0.781728 0.172112
C141  C     C_R   0.689557 0.282868 0.905235 0.147606
C142  C     C_R   0.309267 0.714985 0.096038 0.143219
C143  C     C_R   0.311195 0.280927 0.094084 0.152703
C144  C     C_R   0.691628 0.714249 0.903054 0.153366
C145  C     C_R   0.191064 0.785633 0.903655 0.142892
C146  C     C_R   0.811121 0.218192 0.094040 0.150855
C147  C     C_R   0.809541 0.784274 0.095525 0.155279
C148  C     C_R   0.189576 0.217933 0.905142 0.150812
O33   O     O_R   0.062020 0.072840 0.007170 -0.628177
O34   O     O_R   0.937980 0.927160 0.992830 -0.632456
O35   O     O_R   0.937980 0.072840 0.992830 -0.629552
O36   O     O_R   0.062020 0.927160 0.007170 -0.626081
O37   O     O_R   0.562020 0.572840 0.007170 -0.632268
O38   O     O_R   0.437980 0.427160 0.992830 -0.633040
O39   O     O_R   0.437980 0.572840 0.992830 -0.629500
O40   O     O_R   0.562020 0.427160 0.007170 -0.627753
O41   O     O_R   0.947860 0.073950 0.109290 -0.562167
O42   O     O_R   0.052140 0.926050 0.890710 -0.563448
O43   O     O_R   0.052140 0.073950 0.890710 -0.562698
O44   O     O_R   0.947860 0.926050 0.109290 -0.557416
O45   O     O_R   0.447860 0.573950 0.109290 -0.562612
O46   O     O_R   0.552140 0.426050 0.890710 -0.557621
O47   O     O_R   0.552140 0.573950 0.890710 -0.555971
O48   O     O_R   0.447860 0.426050 0.109290 -0.558643
C149  C     C_R   0.072725 0.101479 0.935160 0.919446
C150  C     C_R   0.927543 0.898215 0.064463 0.927515
C151  C     C_R   0.927072 0.101150 0.065158 0.920852
C152  C     C_R   0.073044 0.898961 0.934744 0.923894
C153  C     C_R   0.572853 0.601345 0.935124 0.928036
C154  C     C_R   0.427470 0.398313 0.064614 0.922832
C155  C     C_R   0.426981 0.601069 0.065235 0.919735
C156  C     C_R   0.573035 0.398971 0.934737 0.931949
Zn9   Zn    Zn3+2 0.505960 0.500000 0.080520 1.111904
Zn10  Zn    Zn3+2 0.494040 0.500000 0.919480 1.112584
Zn11  Zn    Zn3+2 0.005960 1.000000 0.080520 1.117412
Zn12  Zn    Zn3+2 0.994040 1.000000 0.919480 1.101257
C157  C     C_2   0.727613 0.499815 0.566412 0.968487
O49   O     O_2   0.694605 0.499738 0.646245 -0.600540
O50   O     O_R   0.709962 0.499723 0.502423 -0.732415
H41   H     H_    0.668950 0.499617 0.530572 0.345502
C158  C     C_2   0.213834 0.500237 0.617311 0.962122
O51   O     O_2   0.262921 0.500481 0.567558 -0.570408
O52   O     O_R   0.192903 0.499841 0.710164 -0.762660
H42   H     H_    0.222397 0.499732 0.728158 0.365812
C159  C     C_2   0.294829 0.003417 0.378988 0.961158
O53   O     O_2   0.245266 0.002237 0.414862 -0.571891
O54   O     O_R   0.325764 0.006541 0.285749 -0.763301
H43   H     H_    0.302513 0.008577 0.255234 0.371325
C160  C     C_2   0.706502 0.996959 0.619159 0.979673
O55   O     O_2   0.680609 0.995500 0.700933 -0.576482
O56   O     O_R   0.763243 0.997467 0.575830 -0.745839
H44   H     H_    0.778117 0.995607 0.619414 0.341652
N1    N     N_R   0.716840 0.131638 0.929542 0.210632
O57   O     O_R   0.668515 0.130539 0.937271 -0.323900
O58   O     O_R   0.746194 0.073058 0.902609 -0.369998
N2    N     N_R   0.192163 0.679124 0.168751 0.206796
O59   O     O_R   0.214208 0.625350 0.188840 -0.370508
O60   O     O_R   0.140759 0.691969 0.219883 -0.361067
N3    N     N_R   0.282548 0.129932 0.069649 0.205647
O61   O     O_R   0.330611 0.128666 0.062932 -0.342037
O62   O     O_R   0.252741 0.071393 0.095815 -0.376621
N4    N     N_R   0.803942 0.660877 0.842143 0.202482
O63   O     O_R   0.776977 0.613171 0.822457 -0.388194
O64   O     O_R   0.856684 0.660229 0.796960 -0.398737
N5    N     N_R   0.308194 0.821690 0.830912 0.205975
O65   O     O_R   0.359646 0.809081 0.779917 -0.365052
O66   O     O_R   0.286063 0.875291 0.810706 -0.376781
N6    N     N_R   0.784223 0.369542 0.069107 0.209341
O67   O     O_R   0.755145 0.428390 0.095397 -0.366790
O68   O     O_R   0.832477 0.370356 0.061675 -0.337512
N7    N     N_R   0.698244 0.840504 0.153633 0.202656
O69   O     O_R   0.645573 0.845027 0.196044 -0.400832
O70   O     O_R   0.726030 0.887178 0.172914 -0.389026
N8    N     N_R   0.218430 0.368789 0.929331 0.207649
O71   O     O_R   0.248465 0.427100 0.902523 -0.380746
O72   O     O_R   0.170202 0.370349 0.936728 -0.330507
N9    N     N_R   0.591084 0.313784 0.781356 0.213177
O73   O     O_R   0.591450 0.368167 0.732299 -0.340281
O74   O     O_R   0.562817 0.255941 0.786927 -0.388647
N10   N     N_R   0.409322 0.687436 0.217762 0.209959
O75   O     O_R   0.409533 0.633403 0.266796 -0.342210
O76   O     O_R   0.437114 0.745825 0.212017 -0.399114
N11   N     N_R   0.409523 0.314060 0.217945 0.216795
O77   O     O_R   0.408052 0.367443 0.269516 -0.338271
O78   O     O_R   0.448072 0.266205 0.191837 -0.350750
N12   N     N_R   0.590911 0.686637 0.782457 0.215628
O79   O     O_R   0.590739 0.632889 0.732587 -0.328305
O80   O     O_R   0.561234 0.743498 0.792399 -0.360513
N13   N     N_R   0.090651 0.812286 0.782436 0.210069
O81   O     O_R   0.090232 0.866205 0.733429 -0.347938
O82   O     O_R   0.063095 0.753667 0.788120 -0.396498
N14   N     N_R   0.909005 0.186026 0.218679 0.217056
O83   O     O_R   0.908333 0.131722 0.268074 -0.340873
O84   O     O_R   0.938888 0.242734 0.210442 -0.344330
N15   N     N_R   0.909531 0.813291 0.217162 0.218568
O85   O     O_R   0.908361 0.866059 0.269260 -0.336144
O86   O     O_R   0.949210 0.766937 0.187361 -0.359560
N16   N     N_R   0.090524 0.186992 0.782185 0.212419
O87   O     O_R   0.090399 0.132696 0.732984 -0.352680
O88   O     O_R   0.062668 0.244917 0.788077 -0.382330

loop_
_geom_bond_atom_site_label_1
_geom_bond_atom_site_label_2
_geom_bond_distance
_ccdc_geom_bond_type
O4    C4    1.251117 A    
O5    C5    1.255725 A    
C126  C134  1.419488 A    
C138  C146  1.401627 A    
C59   C64   1.400557 A    
N7    O69   1.301343 A    
O7    Zn7   2.023708 S    
O31   Zn4   2.079154 S    
C107  H31   1.084075 S    
O8    Zn8   2.023708 S    
C101  C141  1.396182 A    
N11   O78   1.300380 A    
C82   C93   1.407207 A    
C118  C126  1.383555 A    
N4    O63   1.301308 A    
H21   C94   1.083674 S    
C106  H30   1.083715 S    
C74   H14   1.079934 S    
C86   N2    1.438943 S    
C115  C150  1.439808 S    
H24   C95   1.083569 S    
C38   C40   1.414534 A    
C123  C131  1.384430 A    
O56   H44   1.013801 S    
C121  C129  1.383477 A    
O30   C6    1.293951 A    
C129  C137  1.419550 A    
C33   C35   1.411601 A    
C123  N15   1.438954 S    
C36   C43   1.404226 A    
O40   Zn9   1.988413 S    
C49   C67   1.409621 A    
C83   C91   1.416808 A    
O34   C150  1.231487 A    
C51   C73   1.419697 A    
C49   C57   1.421158 A    
O2    C2    1.255916 A    
C79   C87   1.415843 A    
C128  C136  1.419378 A    
C25   C27   1.400170 A    
O38   C154  1.232478 A    
C52   C67   1.406483 A    
O6    Zn6   2.023159 S    
O33   Zn11  1.982872 S    
C29   C31   1.398267 A    
C41   C65   1.420509 A    
C102  H26   1.083892 S    
C110  C118  1.386222 A    
C38   C42   1.405247 A    
C45   C53   1.431593 A    
C51   C68   1.406513 A    
C140  H40   1.083500 S    
O27   C3    1.289786 A    
C81   C145  1.496290 S    
C89   C97   1.409161 A    
C64   C160  1.488163 S    
C102  C110  1.413296 A    
N11   O77   1.302420 A    
C82   C90   1.417034 A    
C132  C140  1.419417 A    
N12   O79   1.302462 A    
O35   Zn12  1.988411 S    
C44   C68   1.411220 A    
H2    C31   1.083572 S    
O30   Zn1   2.078868 S    
C34   C36   1.410985 A    
C106  C146  1.396155 A    
C89   N5    1.439114 S    
H6    C27   1.083619 S    
C90   C98   1.409248 A    
N10   O75   1.302353 A    
C117  C125  1.383428 A    
C48   C56   1.435442 A    
C140  C148  1.400441 A    
C15   C56   1.477690 S    
O35   C151  1.231304 A    
O39   Zn10  1.988411 S    
C20   C73   1.399441 A    
O23   Zn7   2.021414 S    
H7    C26   1.083574 S    
O24   Zn8   2.021414 S    
O9    C9    1.258981 A    
C50   C58   1.422078 A    
C60   C63   1.400757 A    
C137  H37   1.083293 S    
C112  C153  1.438952 S    
N5    O66   1.301397 A    
O13   C13   1.268564 A    
C11   C60   1.447079 S    
C120  C128  1.383046 A    
C13   C54   1.478910 S    
C40   C41   1.407050 A    
C46   C54   1.429132 A    
O12   C12   1.256880 A    
C6    C130  1.451569 S    
O7    C7    1.252258 A    
O9    Zn6   2.098427 S    
O8    C8    1.251938 A    
O11   Zn8   2.105250 S    
C77   C141  1.497456 S    
C135  C143  1.401042 A    
C21   C29   1.404123 A    
O45   C155  1.260332 A    
O16   Zn3   2.105250 S    
C78   C97   1.406575 A    
C23   C31   1.404303 A    
C19   C27   1.405395 A    
C3    C127  1.450618 S    
O22   Zn6   2.010943 S    
C47   C69   1.419346 A    
C42   C66   1.419799 A    
C50   C76   1.411912 A    
C26   C28   1.399040 A    
C55   C62   1.397873 A    
N7    O70   1.301438 A    
O18   C10   1.301354 A    
C158  O51   1.223532 D    
C30   C32   1.398494 A    
C18   C26   1.402914 A    
N14   O83   1.302463 A    
O41   C151  1.260065 A    
C157  O49   1.222496 D    
C17   C76   1.406745 A    
N16   O88   1.300538 A    
O2    Zn2   2.023159 S    
C46   C72   1.419316 A    
C8    C132  1.449962 S    
N14   O84   1.300564 A    
H8    C25   1.083570 S    
O6    C6    1.256210 A    
C90   N6    1.439130 S    
C1    C125  1.449939 S    
O38   Zn10  1.982872 S    
O33   C149  1.232889 A    
N3    O62   1.301438 A    
C77   C98   1.407136 A    
N9    O74   1.300515 A    
H1    C32   1.083619 S    
C131  C139  1.420388 A    
O36   Zn11  1.988413 S    
O40   C156  1.231247 A    
C83   C96   1.405749 A    
H3    C30   1.083608 S    
C105  H29   1.083895 S    
O20   C12   1.280526 A    
C88   N4    1.441284 S    
O21   C13   1.295628 A    
N13   O82   1.300553 A    
H5    C28   1.083668 S    
C14   C53   1.474062 S    
C52   C60   1.431371 A    
O23   C15   1.306470 A    
O24   C16   1.295763 A    
C63   C159  1.488002 S    
O17   Zn1   2.010943 S    
C83   C147  1.490239 S    
C91   C99   1.408587 A    
C16   C55   1.483040 S    
O36   C152  1.231152 A    
N6    O68   1.301326 A    
C2    C126  1.450479 S    
O3    C3    1.252929 A    
C116  C149  1.439163 S    
C159  O54   1.396887 S    
C19   C33   1.404692 A    
C124  C132  1.383369 A    
C103  H27   1.083855 S    
C12   C59   1.447051 S    
C104  H28   1.084037 S    
C114  C122  1.385675 A    
O54   H43   1.013923 S    
C136  C144  1.398222 A    
C139  H39   1.083505 S    
N4    O64   1.301288 A    
H18   C97   1.083659 S    
O46   C156  1.259969 A    
C111  C154  1.439616 S    
C24   C32   1.404110 A    
C134  H34   1.083287 S    
C134  C142  1.400508 A    
N1    O58   1.301430 A    
O12   Zn7   2.105250 S    
O13   Zn2   2.098427 S    
O45   Zn9   2.002127 S    
N2    O59   1.301381 A    
O42   C152  1.260343 A    
C18   C75   1.405269 A    
C45   C71   1.420697 A    
C69   H9    1.078769 S    
O25   C1    1.293958 A    
C71   H11   1.078819 S    
C19   C74   1.401013 A    
O47   C153  1.259037 A    
C7    C131  1.449611 S    
O10   C10   1.259070 A    
C120  N12   1.438971 S    
C125  C133  1.419926 A    
H17   C98   1.083528 S    
C102  C142  1.395329 A    
O37   C153  1.231525 A    
O52   H42   1.013889 S    
O14   C14   1.273182 A    
O34   Zn12  1.982872 S    
N8    O71   1.301450 A    
C47   C66   1.415761 A    
C53   C61   1.396031 A    
C122  C130  1.383773 A    
C34   C44   1.410184 A    
H19   C100  1.083598 S    
O10   Zn5   2.098427 S    
C62   C158  1.488078 S    
C104  C144  1.392793 A    
C109  C117  1.385744 A    
O19   C11   1.280822 A    
C84   C148  1.493321 S    
N12   O80   1.300399 A    
N3    O61   1.301334 A    
C112  C120  1.385761 A    
O39   C155  1.231235 A    
C21   C39   1.403731 A    
C91   N7    1.441613 S    
C108  H32   1.083819 S    
C57   C63   1.377890 A    
C133  H33   1.083473 S    
N15   O85   1.302400 A    
C160  O55   1.222259 D    
O44   C150  1.259735 A    
C137  C145  1.400343 A    
N10   O76   1.300540 A    
C9    C58   1.467173 S    
O1    C1    1.255924 A    
O25   Zn6   2.078868 S    
C37   C41   1.405150 A    
O27   Zn8   2.079154 S    
C82   C146  1.497737 S    
C84   C95   1.407116 A    
C85   N1    1.439147 S    
O32   Zn3   2.079154 S    
N5    O65   1.301423 A    
C106  C114  1.412523 A    
C135  H35   1.083434 S    
C121  N13   1.439217 S    
O15   Zn4   2.105250 S    
C103  C143  1.393933 A    
C113  C152  1.441600 S    
O22   C14   1.306861 A    
C107  C147  1.392326 A    
H23   C96   1.083702 S    
O48   Zn9   1.992263 S    
C80   C99   1.404743 A    
C105  C145  1.395245 A    
C48   C65   1.414967 A    
C54   C62   1.398836 A    
C20   C28   1.404753 A    
C79   C100  1.406997 A    
O18   Zn2   2.010943 S    
O5    Zn5   2.023159 S    
O3    Zn3   2.023708 S    
C86   C94   1.408870 A    
C75   H15   1.083475 S    
O41   Zn11  2.002127 S    
C4    C128  1.447528 S    
C73   H13   1.079901 S    
C109  C156  1.441319 S    
C24   C38   1.404773 A    
C72   H12   1.079118 S    
C51   C59   1.430739 A    
C21   C72   1.399721 A    
C92   N8    1.439268 S    
O43   C149  1.257825 A    
C78   C86   1.417016 A    
C20   C34   1.404320 A    
C81   C94   1.406431 A    
C108  C148  1.394064 A    
C43   C67   1.411049 A    
C10   C57   1.466588 S    
C33   C43   1.410098 A    
O28   C4    1.290217 A    
C49   C75   1.411364 A    
C39   C42   1.407202 A    
O29   C5    1.294022 A    
O43   Zn12  1.992262 S    
C5    C129  1.450192 S    
C84   C92   1.415805 A    
C85   C93   1.409008 A    
C80   C88   1.416558 A    
H20   C99   1.083653 S    
N8    O72   1.301319 A    
C88   C96   1.408703 A    
C22   C30   1.404399 A    
N9    O73   1.302487 A    
O15   C15   1.267654 A    
C22   C40   1.403088 A    
O16   C16   1.263286 A    
C46   C66   1.413259 A    
C77   C85   1.416968 A    
C58   C64   1.378452 A    
N13   O81   1.302336 A    
C35   C44   1.404275 A    
C76   H16   1.083487 S    
O47   Zn10  1.992262 S    
O48   C154  1.258412 A    
O4    Zn4   2.023708 S    
C48   C70   1.420745 A    
C119  C127  1.384093 A    
C79   C143  1.493250 S    
C56   C61   1.395407 A    
C17   C35   1.411369 A    
O14   Zn1   2.098427 S    
C117  N9    1.439286 S    
C101  H25   1.083689 S    
C87   C95   1.407479 A    
C17   C25   1.403507 A    
C122  N14   1.438968 S    
C87   N3    1.439370 S    
C23   C37   1.403922 A    
O26   C2    1.293996 A    
C103  C111  1.409265 A    
C104  C112  1.411231 A    
C24   C69   1.401456 A    
O11   C11   1.256612 A    
C159  O53   1.223340 D    
O37   Zn9   1.982872 S    
C81   C89   1.417160 A    
C136  H36   1.083561 S    
C139  C147  1.399873 A    
C130  C138  1.420385 A    
C114  C151  1.441631 S    
O28   Zn7   2.079154 S    
O29   Zn2   2.078868 S    
C37   C39   1.414428 A    
H4    C29   1.083614 S    
N15   O86   1.300539 A    
C47   C55   1.433019 A    
C158  O52   1.396894 S    
C45   C65   1.412641 A    
O42   Zn12  2.002129 S    
C157  O50   1.399040 S    
C110  C155  1.441801 S    
N16   O87   1.302362 A    
C50   C68   1.409856 A    
C124  N16   1.439169 S    
C22   C71   1.399620 A    
C127  C135  1.419909 A    
N1    O57   1.301331 A    
C116  C124  1.386749 A    
N2    O60   1.301433 A    
O46   Zn10  2.002129 S    
O50   H41   1.013829 S    
O26   Zn5   2.078868 S    
O44   Zn11  1.992263 S    
C23   C70   1.400800 A    
C115  C123  1.385542 A    
C113  C121  1.386148 A    
C111  C119  1.386077 A    
C119  N11   1.438790 S    
C118  N10   1.439188 S    
C138  H38   1.083386 S    
C107  C115  1.410356 A    
C101  C109  1.412884 A    
N6    O67   1.301440 A    
C160  O56   1.398976 S    
C105  C113  1.413279 A    
O20   Zn4   2.021414 S    
O21   Zn5   2.010943 S    
H22   C93   1.083530 S    
C108  C116  1.409975 A    
C133  C141  1.400931 A    
O31   C7    1.289710 A    
C52   C74   1.420216 A    
O32   C8    1.290402 A    
C61   C157  1.489419 S    
O17   C9    1.301720 A    
C80   C144  1.489455 S    
C18   C36   1.411332 A    
O19   Zn3   2.021414 S    
C92   C100  1.407100 A    
C70   H10   1.078320 S    
O1    Zn1   2.023159 S    
C78   C142  1.496386 S    
