data_mof_unit_39692.cif
_audit_creation_date              2012-10-26T18:27:29-0400
_audit_creation_method            fapswitch 2.2
_symmetry_space_group_name_H-M    P1
_symmetry_Int_Tables_number       1
_space_group_crystal_system       triclinic
_cell_length_a                    10.832675
_cell_length_b                    10.890921
_cell_length_c                    9.822605
_cell_angle_alpha                 110.958339
_cell_angle_beta                  97.051071
_cell_angle_gamma                 91.149126
_cell_volume                      1071.43552786

loop_
_atom_site_label
_atom_site_type_symbol
_atom_type_description
_atom_site_fract_x
_atom_site_fract_y
_atom_site_fract_z
_atom_type_partial_charge
C1    C     C_R   0.485918 0.252984 0.441165 0.546300
C2    C     C_2   0.421470 0.935362 0.506994 0.018079
C3    C     C_2   0.510980 0.511472 0.081131 0.079800
C4    C     C_R   0.262260 0.503958 0.504671 0.546812
C5    C     C_2   0.491119 0.487974 0.919659 -0.023310
C6    C     C_R   0.505348 0.746933 0.559174 0.512919
C7    C     C_R   0.736498 0.490418 0.494948 0.584555
C8    C     C_R   0.134958 0.479278 0.757654 -0.141808
C9    C     C_R   0.078045 0.427026 0.847581 0.008581
C10   C     C_R   0.961296 0.358528 0.795480 -0.104566
C11   C     C_R   0.895313 0.356337 0.663258 0.011801
C12   C     C_R   0.071641 0.472778 0.619938 -0.003968
C13   C     C_R   0.943693 0.432089 0.587819 0.049401
C14   C     C_2   0.503946 0.019008 0.267528 0.275676
C15   C     C_1   0.605965 0.610657 0.175071 0.321839
C16   C     C_2   0.142802 0.442315 0.994388 0.205924
C17   C     C_2   0.786733 0.259905 0.597573 0.252178
C18   C     C_1   0.317287 0.852489 0.406780 0.266833
C19   C     C_2   0.598635 0.975534 0.712484 0.219341
C20   C     C_R   0.127944 0.506845 0.513175 -0.002339
C21   C     C_R   0.052130 0.528888 0.399018 -0.104399
C22   C     C_R   0.923843 0.517474 0.388995 -0.132338
C23   C     C_R   0.868707 0.472714 0.485279 0.031377
C24   C     C_2   0.471415 0.110770 0.410468 0.007511
C25   C     C_2   0.431996 0.072557 0.515755 -0.099163
C26   C     C_2   0.503574 0.889430 0.591000 0.002436
Cu1   Cu    Cu3+1 0.521920 0.521810 0.644910 0.961961
Cu2   Cu    Cu3+1 0.478080 0.478190 0.355090 1.032566
H1    H     H_    0.092316 0.559867 0.319949 0.192486
H2    H     H_    0.221596 0.514069 0.043966 0.122031
H3    H     H_    0.734198 0.228074 0.667494 0.158083
H4    H     H_    0.676715 0.931586 0.753619 0.130602
H5    H     H_    0.420179 0.413459 0.848111 0.135457
H6    H     H_    0.622591 0.625142 0.929613 0.229648
H7    H     H_    0.383111 0.370814 0.065539 0.217767
H8    H     H_    0.224852 0.531289 0.802392 0.143408
H9    H     H_    0.921757 0.306385 0.857317 0.158935
H10   H     H_    0.867947 0.545738 0.307289 0.158975
H11   H     H_    0.408544 0.146110 0.616063 0.155618
H12   H     H_    0.533114 0.058818 0.188926 0.148577
N1    N     N_2   0.445130 0.445430 0.137370 -0.364698
N2    N     N_2   0.554930 0.554500 0.862630 -0.352788
N3    N     N_1   0.682324 0.690679 0.248763 -0.272303
N4    N     N_1   0.234245 0.786614 0.326707 -0.296290
O1    O     O_R   0.511700 0.332330 0.577400 -0.495614
O2    O     O_2   0.108927 0.375572 0.061602 -0.505814
O3    O     O_2   0.759581 0.209475 0.464124 -0.510724
O4    O     O_2   0.589357 0.093760 0.771399 -0.541369
O5    O     O_R   0.474680 0.295500 0.332650 -0.491128
O6    O     O_R   0.338160 0.518420 0.622400 -0.520709
O7    O     O_R   0.301140 0.481590 0.377650 -0.467475
O8    O     O_R   0.525320 0.704500 0.667350 -0.499525
O9    O     O_R   0.488300 0.667670 0.422600 -0.468233
O10   O     O_R   0.698860 0.518410 0.622350 -0.500792
O11   O     O_R   0.661840 0.481580 0.377600 -0.489136
O12   O     O_2   0.500538 0.899913 0.235754 -0.498987

loop_
_geom_bond_atom_site_label_1
_geom_bond_atom_site_label_2
_ccdc_geom_bond_type
C14   O12   D    
Cu2   O9    S    
C24   C25   D    
C18   N4    T    
C2    C18   S    
C9    C10   A    
H6    N2    S    
Cu1   O6    S    
C7    O11   A    
C8    C12   A    
C12   C20   A    
Cu1   O10   S    
C15   N3    T    
C2    C26   D    
C21   C22   A    
C25   H11   S    
C11   C13   A    
Cu1   N2    S    
C1    O1    A    
C6    C26   S    
C14   C24   S    
C10   H9    S    
C17   H3    S    
C19   H4    S    
C1    O5    A    
C5    N2    D    
C9    C16   S    
C2    C25   S    
C5    H5    S    
C8    H8    S    
Cu1   O8    S    
H7    N1    S    
Cu2   O7    S    
C7    C23   S    
Cu1   O1    S    
C6    O9    A    
C14   H12   S    
C4    C20   S    
C16   H2    S    
Cu2   N1    S    
C3    C15   S    
C12   C13   A    
C13   C23   A    
C1    C24   S    
C10   C11   A    
C16   O2    D    
Cu1   Cu2   S    
C19   C26   S    
C19   O4    D    
C3    N1    D    
C4    O7    A    
C7    O10   A    
C6    O8    A    
C20   C21   A    
C22   C23   A    
C21   H1    S    
Cu2   O11   S    
C11   C17   S    
C17   O3    D    
C4    O6    A    
C8    C9    A    
C3    C5    S    
Cu2   O5    S    
C22   H10   S    
