data_mof_unit_63345.cif
_audit_creation_date              2012-10-26T19:13:28-0400
_audit_creation_method            fapswitch 2.2
_symmetry_space_group_name_H-M    P1
_symmetry_Int_Tables_number       1
_space_group_crystal_system       triclinic
_cell_length_a                    13.517318
_cell_length_b                    13.940049
_cell_length_c                    15.122741
_cell_angle_alpha                 91.237178
_cell_angle_beta                  90.421674
_cell_angle_gamma                 72.746487
_cell_volume                      2720.74630084

loop_
_atom_site_label
_atom_site_type_symbol
_atom_type_description
_atom_site_fract_x
_atom_site_fract_y
_atom_site_fract_z
_atom_type_partial_charge
C1    C     C_R   0.498337 0.500748 0.669955 0.593350
C2    C     C_R   0.814426 0.415227 0.516235 0.041665
C3    C     C_R   0.591906 0.436861 0.902291 -0.062927
C4    C     C_R   0.699711 0.446696 0.507715 0.597261
C5    C     C_R   0.589692 0.438410 0.810197 0.074572
C6    C     C_R   0.501311 0.498966 0.766461 0.044044
C7    C     C_R   0.413390 0.550284 0.816471 0.073400
C8    C     C_R   0.420422 0.555589 0.908034 -0.048408
C9    C     C_R   0.509309 0.498581 0.951730 0.025598
C10   C     C_R   0.595631 0.511743 0.097473 0.095569
C11   C     C_R   0.597988 0.503244 0.190037 0.080526
C12   C     C_R   0.974585 0.462222 0.505008 0.038997
C13   C     C_R   0.510250 0.493860 0.234277 -0.005619
C14   C     C_R   0.426614 0.480731 0.186598 -0.124505
C15   C     C_R   0.428460 0.477060 0.094637 0.079520
C16   C     C_R   0.504121 0.497855 0.330365 0.567160
C17   C     C_R   0.511322 0.496234 0.049186 0.044631
C18   C     C_R   0.571284 0.873592 0.449057 0.099403
C19   C     C_R   0.563796 0.774471 0.443873 0.214778
C20   C     C_R   0.439410 0.812278 0.558827 0.232226
C21   C     C_R   0.445599 0.912803 0.565268 0.078402
C22   C     C_R   0.512681 0.943726 0.510206 0.040923
C23   C     C_R   0.869377 0.487507 0.530324 -0.038191
C24   C     C_R   0.569763 0.094108 0.564808 0.065728
C25   C     C_R   0.562855 0.197231 0.560028 0.053342
C26   C     C_R   0.443279 0.218494 0.441544 0.249021
C27   C     C_R   0.446374 0.115933 0.445480 0.086983
C28   C     C_R   0.300145 0.553262 0.502605 0.574318
C29   C     C_R   0.510197 0.052717 0.507306 0.125780
C30   C     C_R   0.020749 0.712323 0.500637 0.119010
C31   C     C_R   0.186384 0.582619 0.506473 -0.014863
C32   C     C_R   0.870623 0.314080 0.496182 0.102498
C33   C     C_R   0.974047 0.290324 0.469452 0.111117
C34   C     C_R   0.026983 0.536463 0.513675 0.015703
C35   C     C_R   0.022478 0.366204 0.466213 0.123188
C36   C     C_R   0.969154 0.639321 0.518638 0.053091
C37   C     C_R   0.866698 0.663309 0.550681 0.107663
C38   C     C_R   0.823782 0.584911 0.567936 0.107399
C39   C     C_R   0.134697 0.511352 0.526017 0.133726
C40   C     C_R   0.128118 0.681580 0.489432 -0.087713
Cu1   Cu    Cu3+1 0.500000 0.403570 0.500010 1.062705
Cu2   Cu    Cu3+1 0.500000 0.596430 0.499990 1.027624
H1    H     H_    0.166451 0.736934 0.472831 0.182957
H2    H     H_    0.736201 0.781618 0.555872 0.264181
H3    H     H_    0.812506 0.769196 0.647097 0.275825
H4    H     H_    0.615734 0.062960 0.690831 0.260674
H5    H     H_    0.712554 0.034300 0.615711 0.248790
H6    H     H_    0.407318 0.081412 0.321522 0.275138
H7    H     H_    0.307275 0.114768 0.394975 0.271931
H8    H     H_    0.904213 0.823879 0.447296 0.288529
H9    H     H_    0.942734 0.850247 0.551053 0.280770
H10   H     H_    0.822628 0.204293 0.435304 0.271342
H11   H     H_    0.861509 0.181242 0.542205 0.265278
H12   H     H_    0.353628 0.599173 0.945508 0.168267
H13   H     H_    0.101199 0.332385 0.351255 0.272182
H14   H     H_    0.170992 0.285758 0.442317 0.278233
H15   H     H_    0.359714 0.472381 0.220829 0.154441
H16   H     H_    0.609174 0.227967 0.604457 0.166401
H17   H     H_    0.658196 0.387273 0.935436 0.170201
H18   H     H_    0.276343 0.505467 0.065807 0.248676
H19   H     H_    0.343938 0.382263 0.067790 0.267843
H20   H     H_    0.573753 0.699806 0.324817 0.281429
H21   H     H_    0.675747 0.649046 0.398436 0.285531
I1    I     I_    0.719446 0.340740 0.742870 -0.299907
I2    I     I_    0.054815 0.140481 0.426328 -0.325302
I3    I     I_    0.719635 0.608407 0.677403 -0.259625
I4    I     I_    0.261258 0.594354 0.764168 -0.239049
I5    I     I_    0.713970 0.558590 0.033238 -0.210259
I6    I     I_    0.738482 0.488698 0.261491 -0.295654
I7    I     I_    0.673106 0.916723 0.361125 -0.293275
I8    I     I_    0.324811 0.782391 0.638352 -0.177230
I9    I     I_    0.351455 0.023488 0.655555 -0.208198
I10   I     I_    0.351510 0.303891 0.339208 -0.347169
I11   I     I_    0.205297 0.385947 0.610213 -0.209656
N1    N     N_R   0.500000 0.741310 0.499980 -0.243280
N2    N     N_3   0.116252 0.348696 0.416901 -0.582912
N3    N     N_R   0.500060 0.258650 0.499980 -0.238944
N4    N     N_3   0.346320 0.452784 0.047519 -0.603766
N5    N     N_3   0.622236 0.712809 0.374519 -0.557738
N6    N     N_3   0.812623 0.764250 0.578066 -0.627357
N7    N     N_3   0.637303 0.031812 0.627807 -0.608154
N8    N     N_3   0.385303 0.074435 0.386597 -0.599731
N9    N     N_3   0.967480 0.816759 0.489461 -0.575551
N10   N     N_3   0.820898 0.236378 0.498613 -0.577627
O1    O     O_R   0.499990 0.418570 0.628550 -0.495398
O2    O     O_R   0.499990 0.581440 0.628540 -0.456827
O3    O     O_R   0.650980 0.378820 0.499990 -0.461933
O4    O     O_R   0.650980 0.541690 0.499970 -0.515754
O5    O     O_R   0.500010 0.418560 0.371460 -0.465969
O6    O     O_R   0.500010 0.581430 0.371450 -0.514142
O7    O     O_R   0.349020 0.458310 0.500030 -0.454044
O8    O     O_R   0.349020 0.621180 0.500010 -0.492866

loop_
_geom_bond_atom_site_label_1
_geom_bond_atom_site_label_2
_ccdc_geom_bond_type
C18   I7    S    
Cu1   O5    S    
C16   O6    A    
H14   N2    S    
C22   C29   S    
C27   C29   A    
Cu1   Cu2   S    
C33   I2    S    
C7    C8    A    
C4    O3    A    
H21   N5    S    
C12   C23   A    
H18   N4    S    
C26   C27   A    
H11   N10   S    
C25   N3    A    
C36   C37   A    
Cu1   N3    S    
C5    C6    A    
C15   N4    S    
C10   C17   A    
C26   I10   S    
C31   C40   A    
C2    C32   A    
C18   C19   A    
C39   I11   S    
C30   N9    S    
H10   N10   S    
C24   C29   A    
C40   H1    S    
C38   I3    S    
C31   C39   A    
C8    C9    A    
C20   I8    S    
Cu2   O2    S    
H3    N6    S    
Cu2   O8    S    
C16   O5    A    
C21   C22   A    
C32   N10   S    
H8    N9    S    
C27   N8    S    
C1    O1    A    
Cu1   O3    S    
C37   N6    S    
C35   N2    S    
C26   N3    A    
C21   I9    S    
C34   C39   A    
H20   N5    S    
H2    N6    S    
C24   C25   A    
C8    H12   S    
C1    C6    S    
C20   N1    A    
Cu2   O6    S    
H7    N8    S    
C2    C4    S    
C24   N7    S    
C37   C38   A    
C3    C9    A    
H4    N7    S    
H19   N4    S    
Cu2   N1    S    
C30   C40   A    
C28   O8    A    
C12   C35   A    
C19   N5    S    
H13   N2    S    
C9    C17   S    
Cu1   O7    S    
Cu2   O4    S    
C25   H16   S    
C12   C34   A    
H9    N9    S    
C1    O2    A    
C15   C17   A    
C14   H15   S    
C18   C22   A    
C28   C31   S    
C3    C5    A    
C11   I6    S    
C6    C7    A    
C4    O4    A    
C10   I5    S    
C23   C38   A    
Cu1   O1    S    
C30   C36   A    
C32   C33   A    
C19   N1    A    
C11   C13   A    
C33   C35   A    
H6    N8    S    
C28   O7    A    
C34   C36   A    
H5    N7    S    
C10   C11   A    
C7    I4    S    
C20   C21   A    
C5    I1    S    
C13   C16   S    
C2    C23   A    
C14   C15   A    
C13   C14   A    
C3    H17   S    
