data_mof_unit_59731.cif
_audit_creation_date              2012-12-10T16:50:15-0500
_audit_creation_method            fapswitch 2.2
_symmetry_space_group_name_H-M    P1
_symmetry_Int_Tables_number       1
_space_group_crystal_system       triclinic
_cell_length_a                    23.559497
_cell_length_b                    8.740244
_cell_length_c                    7.483189
_cell_angle_alpha                 103.049768
_cell_angle_beta                  94.85617
_cell_angle_gamma                 93.576463
_cell_volume                      1490.4421809

loop_
_atom_site_label
_atom_site_type_symbol
_atom_type_description
_atom_site_fract_x
_atom_site_fract_y
_atom_site_fract_z
_atom_type_partial_charge
C1    C     C_R   0.497532 0.200299 0.453907 0.845176
C2    C     C_R   0.502528 0.799714 0.546073 0.827889
C3    C     C_R   0.238430 0.584481 0.383475 0.604386
C4    C     C_R   0.756246 0.449954 0.331024 0.610904
C5    C     C_R   0.298106 0.585188 0.383684 -0.024210
C6    C     C_R   0.696630 0.444304 0.329495 -0.053605
C7    C     C_R   0.329007 0.507598 0.502548 -0.348892
C8    C     C_R   0.671813 0.499835 0.495583 -0.339479
C9    C     C_R   0.299855 0.432538 0.619596 0.466511
C10   C     C_R   0.707896 0.555916 0.661064 0.460151
C11   C     C_R   0.240872 0.434618 0.619876 0.559621
C12   C     C_R   0.766965 0.555069 0.661742 0.577828
C13   C     C_R   0.210065 0.509702 0.501544 -0.002932
C14   C     C_R   0.791470 0.503810 0.496890 -0.029854
C15   C     C_2   0.489998 0.032898 0.431371 -0.032777
C16   C     C_2   0.510152 0.967111 0.568492 -0.032343
C17   C     C_R   0.391225 0.501590 0.501201 0.930195
C18   C     C_R   0.609043 0.499799 0.498484 0.925490
C19   C     C_R   0.885192 0.645509 0.554405 0.661581
C20   C     C_R   0.116163 0.372987 0.422916 0.663202
C21   C     C_R   0.876519 0.366571 0.442832 0.692164
C22   C     C_R   0.126262 0.645176 0.577282 0.661622
C23   C     C_R   0.935930 0.365174 0.431558 -0.077784
C24   C     C_R   0.066398 0.649703 0.577465 -0.119159
C25   C     C_R   0.970923 0.507813 0.499584 -0.075376
C26   C     C_R   0.031151 0.508314 0.499686 -0.052368
C27   C     C_R   0.945554 0.649668 0.567819 -0.125884
C28   C     C_R   0.056052 0.367369 0.421953 -0.086844
C29   C     C_R   0.960802 0.225896 0.353080 0.178141
C30   C     C_R   0.040633 0.789477 0.653948 0.164709
C31   C     C_R   0.020036 0.226821 0.345560 0.105093
C32   C     C_R   0.981215 0.789585 0.648018 0.167949
Cu1   Cu    Cu3+1 0.506340 0.517380 0.684380 1.032487
Cu2   Cu    Cu3+1 0.493660 0.482620 0.315620 1.014227
N1    N     N_R   0.852586 0.505371 0.498081 -0.412913
N2    N     N_R   0.149148 0.509307 0.500457 -0.398181
N3    N     N_2   0.484110 0.456420 0.038520 -0.006282
N4    N     N_2   0.515890 0.543580 0.961480 0.001755
O1    O     O_R   0.504120 0.286130 0.619770 -0.539011
O2    O     O_R   0.495880 0.713870 0.380230 -0.539514
O3    O     O_R   0.493410 0.256770 0.308360 -0.621476
O4    O     O_R   0.506590 0.743230 0.691640 -0.619140
O5    O     O_R   0.423230 0.514630 0.655730 -0.537324
O6    O     O_R   0.576770 0.485370 0.344270 -0.549616
O7    O     O_R   0.412530 0.485280 0.344320 -0.572209
O8    O     O_R   0.587470 0.514720 0.655680 -0.548042
O9    O     O_2   0.858650 0.779506 0.594265 -0.500624
O10   O     O_2   0.142244 0.244489 0.347350 -0.511800
O11   O     O_2   0.842526 0.230657 0.400723 -0.447296
O12   O     O_2   0.162053 0.774215 0.653212 -0.508559
N5    N     N_3   0.925541 0.082950 0.271665 -0.465381
H1    H     H_    0.930404 0.052957 0.131082 0.250583
H2    H     H_    0.939636 0.992577 0.330346 0.240582
N6    N     N_3   0.073281 0.935533 0.741292 -0.523487
H3    H     H_    0.097207 0.974170 0.646162 0.278968
H4    H     H_    0.099534 0.920361 0.854684 0.281177
N7    N     N_3   0.041577 0.081621 0.257255 -0.580848
H5    H     H_    0.062334 0.097918 0.144132 0.285186
H6    H     H_    0.068892 0.042785 0.352002 0.273944
N8    N     N_3   0.958950 0.933825 0.735650 -0.533528
H7    H     H_    0.933200 0.911775 0.835402 0.264663
H8    H     H_    0.935657 0.979151 0.637423 0.270243
F1    F     F_    0.207587 0.656433 0.269459 -0.610991
F2    F     F_    0.779985 0.402063 0.170542 -0.582673
N9    N     N_3   0.327778 0.665996 0.266932 -0.483616
H9    H     H_    0.351171 0.765123 0.352237 0.221390
H10   H     H_    0.299191 0.707218 0.177777 0.294281
N10   N     N_3   0.661662 0.378519 0.159854 -0.502318
H11   H     H_    0.672562 0.441710 0.062972 0.306024
H12   H     H_    0.671340 0.262132 0.111985 0.259297
F3    F     F_    0.328081 0.351393 0.728283 -0.623586
F4    F     F_    0.686349 0.614210 0.822914 -0.627375
F5    F     F_    0.213337 0.361987 0.734156 -0.569435
F6    F     F_    0.800621 0.604697 0.823760 -0.557432
N11   N     N_3   0.456946 0.941779 0.266696 -0.564034
H13   H     H_    0.477397 0.957242 0.152602 0.224729
H14   H     H_    0.416881 0.986269 0.257676 0.221151
N12   N     N_3   0.543453 0.058189 0.732716 -0.559861
H15   H     H_    0.523379 0.042203 0.847302 0.222643
H16   H     H_    0.583624 0.014136 0.740525 0.228760
N13   N     N_3   0.443732 0.349574 0.922655 -0.349158
H17   H     H_    0.404705 0.369842 0.976237 0.284146
H18   H     H_    0.453088 0.237754 0.937924 0.204894
N14   N     N_3   0.556087 0.650687 0.078352 -0.389817
H19   H     H_    0.595978 0.625011 0.034077 0.263533
H20   H     H_    0.548711 0.761705 0.055843 0.209763

loop_
_geom_bond_atom_site_label_1
_geom_bond_atom_site_label_2
_ccdc_geom_bond_type
C15   N11   S    
C12   F6    S    
Cu2   N3    S    
C21   O11   S    
N13   H17   S    
C30   N6    S    
Cu1   O1    S    
Cu2   O2    S    
Cu1   O4    S    
C23   C29   A    
C24   C26   A    
N12   H16   S    
N7    H6    S    
C15   C16   D    
N8    H8    S    
N10   H11   S    
N9    H10   S    
C1    C15   S    
C2    C16   S    
C3    C13   A    
C22   O12   S    
C6    N10   S    
Cu1   O8    S    
N3    N13   S    
Cu2   O3    S    
C18   O8    A    
N13   H18   S    
N6    H4    S    
N5    H1    S    
Cu1   O5    S    
Cu2   O6    S    
N14   H19   S    
C13   N2    S    
C5    N9    S    
C11   F5    S    
C14   N1    S    
C5    C7    A    
N12   H15   S    
C6    C8    A    
C20   C28   A    
C7    C17   S    
C25   C26   A    
C8    C18   S    
C17   O7    A    
N8    H7    S    
N5    H2    S    
N11   H13   S    
C17   O5    A    
N3    N4    D    
C18   O6    A    
N11   H14   S    
Cu1   Cu2   S    
Cu2   O7    S    
C9    C11   A    
C20   O10   S    
C10   C12   A    
C4    C6    A    
C12   C14   A    
C21   C23   A    
C22   C24   A    
C32   N8    S    
C19   C27   A    
C29   N5    S    
C1    O3    A    
C7    C9    A    
N6    H3    S    
N4    N14   S    
C27   C32   A    
C28   C31   A    
C9    F3    S    
N14   H20   S    
C3    C5    A    
C21   N1    A    
C3    F1    S    
C25   C27   A    
C22   N2    A    
C4    F2    S    
C26   C28   A    
Cu1   N4    S    
C31   N7    S    
C29   C31   A    
C19   N1    A    
C30   C32   A    
C11   C13   A    
N7    H5    S    
C2    O4    A    
C16   N12   S    
C23   C25   A    
C4    C14   A    
C24   C30   A    
C1    O1    A    
C20   N2    A    
C2    O2    A    
C8    C10   A    
N9    H9    S    
C19   O9    S    
N10   H12   S    
C10   F4    S    
