data_mof_unit_6642.cif
_audit_creation_date              2012-10-26T20:36:01-0400
_audit_creation_method            fapswitch 2.2
_symmetry_space_group_name_H-M    P1
_symmetry_Int_Tables_number       1
_space_group_crystal_system       triclinic
_cell_length_a                    10.873437
_cell_length_b                    15.884215
_cell_length_c                    16.957658
_cell_angle_alpha                 94.523334
_cell_angle_beta                  94.13121
_cell_angle_gamma                 93.720706
_cell_volume                      2904.80506872

loop_
_atom_site_label
_atom_site_type_symbol
_atom_type_description
_atom_site_fract_x
_atom_site_fract_y
_atom_site_fract_z
_atom_type_partial_charge
C1    C     C_R   0.502390 0.490956 0.348342 0.625238
C2    C     C_R   0.559851 0.490999 0.901418 0.156392
C3    C     C_R   0.395176 0.447995 0.131801 0.200922
C4    C     C_R   0.645474 0.541368 0.863651 0.233368
C5    C     C_R   0.420720 0.433042 0.211971 0.201466
C6    C     C_R   0.626429 0.550376 0.781951 0.158847
C7    C     C_R   0.455802 0.753206 0.450230 0.328601
C8    C     C_R   0.571841 0.245059 0.531921 0.330527
C9    C     C_R   0.461191 0.841882 0.452617 -0.085170
C10   C     C_R   0.568336 0.156478 0.524845 -0.072441
C11   C     C_R   0.526761 0.892006 0.515347 0.187111
C12   C     C_R   0.504653 0.508938 0.651502 0.566703
C13   C     C_R   0.472751 0.108120 0.478932 0.198121
C14   C     C_R   0.590239 0.850640 0.574240 0.228837
C15   C     C_R   0.382896 0.151579 0.438036 0.221882
C16   C     C_R   0.262567 0.499015 0.499004 0.539689
C17   C     C_R   0.738314 0.501846 0.500210 0.519366
C18   C     C_R   0.579016 0.760016 0.572353 0.376255
C19   C     C_R   0.393432 0.242479 0.441968 0.353891
C20   C     C_R   0.100221 0.416680 0.363062 0.297356
C21   C     C_R   0.917011 0.635451 0.592579 0.272156
C22   C     C_R   0.025126 0.359788 0.310036 0.333458
C23   C     C_R   0.501317 0.490708 0.261084 0.029187
C24   C     C_R   0.986410 0.668180 0.662513 0.337863
C25   C     C_R   0.895745 0.355795 0.314391 0.203168
C26   C     C_R   0.100132 0.634365 0.683453 0.215241
C27   C     C_R   0.846519 0.406567 0.373524 -0.116425
C28   C     C_R   0.147135 0.576577 0.628953 -0.110816
C29   C     C_R   0.922759 0.455196 0.433919 -0.063374
C30   C     C_R   0.076725 0.544492 0.558340 -0.070534
C31   C     C_R   0.052186 0.456779 0.431159 -0.057971
C32   C     C_R   0.952819 0.562401 0.548019 -0.068110
C33   C     C_R   0.872490 0.507572 0.493269 0.017910
C34   C     C_R   0.521404 0.508129 0.738109 -0.002143
C35   C     C_R   0.128529 0.497737 0.496650 0.018884
C36   C     C_R   0.569720 0.555919 0.228228 0.182132
C37   C     C_R   0.443422 0.451236 0.774363 0.213960
C38   C     C_R   0.552809 0.565926 0.145928 0.215095
C39   C     C_R   0.469124 0.437320 0.854768 0.226107
C40   C     C_R   0.471641 0.507050 0.097022 0.164797
Cu1   Cu    Cu3+1 0.493970 0.415220 0.496180 1.115920
Cu2   Cu    Cu3+1 0.506030 0.584780 0.503820 1.078517
H1    H     H_    0.639915 0.125940 0.557282 0.200896
H2    H     H_    0.283711 0.250585 0.348022 0.358920
H3    H     H_    0.231360 0.499241 0.349496 0.298920
H4    H     H_    0.841810 0.683763 0.501939 0.338085
H5    H     H_    0.024303 0.268305 0.225689 0.386020
H6    H     H_    0.011847 0.767314 0.738974 0.379717
H7    H     H_    0.282057 0.388888 0.762866 0.387139
H8    H     H_    0.716614 0.634030 0.248495 0.383277
H9    H     H_    0.466999 0.262516 0.983819 0.394108
H10   H     H_    0.791656 0.723688 0.103887 0.398663
H11   H     H_    0.128635 0.444428 0.986213 0.403681
H12   H     H_    0.413416 0.871068 0.404766 0.203125
H13   H     H_    0.772603 0.713423 0.883789 0.385117
H14   H     H_    0.334783 0.320947 0.201678 0.388658
H15   H     H_    0.714201 0.578433 0.690061 0.354463
H16   H     H_    0.642533 0.341525 0.599839 0.372419
H17   H     H_    0.349459 0.658551 0.403269 0.358794
H18   H     H_    0.747594 0.408745 0.370275 0.190334
H19   H     H_    0.239057 0.556578 0.642177 0.188223
H20   H     H_    0.159732 0.704408 0.894229 0.399822
H21   H     H_    0.761990 0.287236 0.114694 0.393324
H22   H     H_    0.731636 0.867053 0.651908 0.367275
H23   H     H_    0.212186 0.137946 0.394339 0.341255
H24   H     H_    0.630419 0.755950 0.683708 0.353021
N1    N     N_2   0.465335 0.505562 0.013067 -0.078056
N2    N     N_2   0.567092 0.494185 0.985584 -0.097107
N3    N     N_R   0.515100 0.712130 0.509560 -0.228250
N4    N     N_R   0.484900 0.287870 0.490440 -0.229700
N5    N     N_2   0.535698 0.983275 0.520174 -0.161370
N6    N     N_2   0.462721 0.016708 0.473226 -0.158540
O1    O     O_R   0.494360 0.420530 0.382500 -0.405209
O2    O     O_2   0.264265 0.750001 0.760045 -0.254608
O3    O     O_3   0.101600 0.685774 0.847518 -0.438866
O4    O     O_2   0.809075 0.202776 0.248745 -0.243549
O5    O     O_2   0.660517 0.312133 0.255081 -0.272774
O6    O     O_3   0.824792 0.320927 0.151529 -0.458835
O7    O     O_3   0.663601 0.900281 0.632180 -0.635073
O8    O     O_3   0.285188 0.103806 0.396407 -0.639789
O9    O     O_3   0.630772 0.719210 0.633751 -0.578514
O10   O     O_3   0.314284 0.286670 0.396624 -0.581549
O11   O     O_3   0.217796 0.436660 0.342834 -0.559129
O12   O     O_R   0.505640 0.579470 0.617500 -0.444996
O13   O     O_3   0.835916 0.688567 0.560256 -0.594491
O14   O     O_3   0.082492 0.313485 0.252725 -0.576334
O15   O     O_3   0.943359 0.736874 0.704562 -0.588671
O16   O     O_3   0.346023 0.407565 0.728246 -0.635226
O17   O     O_3   0.651219 0.609105 0.278820 -0.637107
O18   O     O_2   0.278611 0.337346 0.895557 -0.197780
O19   O     O_2   0.441535 0.269541 0.828327 -0.228703
O20   O     O_3   0.488319 0.322803 0.976411 -0.472816
O21   O     O_2   0.554516 0.672415 0.027318 -0.187984
O22   O     O_2   0.576847 0.734778 0.164295 -0.223780
O23   O     O_R   0.504550 0.563720 0.388950 -0.470464
O24   O     O_3   0.764463 0.663865 0.109459 -0.450936
O25   O     O_2   0.255860 0.316010 0.055729 -0.208988
O26   O     O_2   0.152262 0.418190 0.138426 -0.192341
O27   O     O_3   0.215958 0.462826 0.003214 -0.431492
O28   O     O_2   0.812043 0.543499 0.990648 -0.161573
O29   O     O_2   0.891282 0.570788 0.863827 -0.178984
O30   O     O_3   0.778132 0.689484 0.936023 -0.421493
O31   O     O_3   0.364760 0.364903 0.244528 -0.555279
O32   O     O_3   0.714525 0.598280 0.746807 -0.610502
O33   O     O_3   0.667397 0.285801 0.580806 -0.650865
O34   O     O_R   0.495450 0.436280 0.611050 -0.501545
O35   O     O_3   0.389040 0.710409 0.385811 -0.636086
O36   O     O_R   0.314560 0.428400 0.496770 -0.409033
O37   O     O_R   0.685440 0.571600 0.503230 -0.460074
O38   O     O_R   0.324750 0.571590 0.503220 -0.563586
O39   O     O_R   0.675250 0.428410 0.496780 -0.527303
O40   O     O_2   0.279839 0.603384 0.792612 -0.270361
S1    S     S_3+6 0.191767 0.668844 0.772154 0.053034
S2    S     S_3+6 0.792478 0.295285 0.242520 0.034113
S3    S     S_3+6 0.415592 0.339432 0.888621 0.103127
S4    S     S_3+6 0.609716 0.661963 0.109488 0.106964
S5    S     S_3+6 0.251509 0.408280 0.081882 0.120074
S6    S     S_3+6 0.786134 0.584861 0.915104 0.165165

loop_
_geom_bond_atom_site_label_1
_geom_bond_atom_site_label_2
_ccdc_geom_bond_type
C36   O17   S    
C38   C40   A    
C5    O31   S    
Cu1   O36   S    
C27   C29   A    
C34   C37   A    
Cu1   Cu2   S    
C14   C18   A    
C37   O16   S    
C8    O33   S    
C16   O38   A    
H3    O11   S    
C26   C28   A    
H11   O27   S    
C15   C19   A    
H13   O30   S    
C30   C35   A    
O29   S6    D    
Cu2   O37   S    
C24   C26   A    
H2    O10   S    
C27   H18   S    
C16   C35   S    
C11   C14   A    
C11   N5    S    
C29   C33   A    
C18   O9    S    
C12   O12   A    
C3    S5    S    
C2    C39   A    
C22   C25   A    
O4    S2    D    
O3    S1    S    
C6    O32   S    
C19   O10   S    
O30   S6    S    
H4    O13   S    
C28   H19   S    
C12   O34   A    
C18   N3    A    
H23   O8    S    
H7    O16   S    
C4    S6    S    
O6    S2    S    
C17   C33   S    
C17   O39   A    
O40   S1    D    
O20   S3    S    
C21   C32   A    
C21   O13   S    
Cu1   O34   S    
N1    N2    D    
H5    O14   S    
Cu2   O12   S    
C4    C6    A    
O22   S4    D    
C14   O7    S    
O2    S1    D    
C40   N1    S    
Cu2   N3    S    
H17   O35   S    
Cu2   O23   S    
O21   S4    D    
C2    C4    A    
H9    O20   S    
O27   S5    S    
C38   S4    S    
H8    O17   S    
C15   O8    S    
C5    C23   A    
C1    O23   A    
H6    O15   S    
O18   S3    D    
C9    C11   A    
C8    C10   A    
C20   C22   A    
C3    C40   A    
C1    C23   S    
C39   S3    S    
C13   C15   A    
H22   O7    S    
C7    O35   S    
H20   O3    S    
C20   O11   S    
O28   S6    D    
C12   C34   S    
O5    S2    D    
O26   S5    D    
C7    C9    A    
H15   O32   S    
C10   H1    S    
C8    N4    A    
H14   O31   S    
C3    C5    A    
C10   C13   A    
C17   O37   A    
C7    N3    A    
C13   N6    S    
C25   C27   A    
C2    N2    S    
H16   O33   S    
C1    O1    A    
C32   C33   A    
C36   C38   A    
Cu2   O38   S    
C26   S1    S    
N5    N6    D    
C37   C39   A    
C25   S2    S    
H24   O9    S    
C30   C32   A    
C28   C30   A    
O19   S3    D    
H10   O24   S    
C31   C35   A    
C22   O14   S    
O25   S5    D    
C24   O15   S    
C16   O36   A    
Cu1   O1    S    
C6    C34   A    
C29   C31   A    
C23   C36   A    
Cu1   O39   S    
C21   C24   A    
O24   S4    S    
C19   N4    A    
C9    H12   S    
H21   O6    S    
Cu1   N4    S    
C20   C31   A    
