data_mof_unit_24428.cif
_audit_creation_date              2013-03-05T15:58:19-0500
_audit_creation_method            fapswitch 2.2
_symmetry_space_group_name_H-M    P1
_symmetry_Int_Tables_number       1
_space_group_crystal_system       triclinic
_cell_length_a                    14.831026
_cell_length_b                    14.8501
_cell_length_c                    15.106364
_cell_angle_alpha                 110.216509
_cell_angle_beta                  108.767004
_cell_angle_gamma                 108.823632
_cell_volume                      2579.76430887

loop_
_atom_site_label
_atom_site_type_symbol
_atom_site_description
_atom_site_fract_x
_atom_site_fract_y
_atom_site_fract_z
_atom_type_partial_charge
C1    C     C_R   0.980874 0.259913 0.071016 -0.117497
C2    C     C_R   0.077694 0.796763 0.988822 -0.133043
H1    H     H_    0.948780 0.253611 0.124126 0.093144
H2    H     H_    0.132483 0.823583 0.959201 0.093667
N1    N     N_R   0.947560 0.293820 0.002910 -0.048028
N2    N     N_R   0.052440 0.706180 0.997090 -0.038655
C3    C     C_R   0.314465 0.753322 0.223134 -0.107165
C4    C     C_R   0.697735 0.199912 0.788085 -0.088631
H3    H     H_    0.381071 0.775114 0.205765 0.134644
H4    H     H_    0.640763 0.170049 0.814620 0.130223
N3    N     N_R   0.208960 0.706170 0.152110 -0.058640
N4    N     N_R   0.791040 0.293830 0.847890 -0.051935
C5    C     C_R   0.212341 0.408885 0.905816 -0.149351
C6    C     C_R   0.774753 0.592051 0.025647 -0.141990
H5    H     H_    0.184851 0.324670 0.849056 0.099443
H6    H     H_    0.792292 0.676659 0.060838 0.123984
N5    N     N_R   0.154330 0.443160 0.946140 -0.039292
N6    N     N_R   0.845670 0.556840 0.053860 -0.047328
C7    C     C_R   0.988663 0.589213 0.295107 0.015342
C8    C     C_R   0.997269 0.409408 0.697680 0.029537
N7    N     N_R   0.002190 0.556820 0.208880 -0.054564
N8    N     N_R   0.997810 0.443180 0.791120 -0.051126
C9    C     C_R   0.302625 0.591890 0.998559 -0.095396
C10   C     C_R   0.684989 0.407906 0.934162 -0.001367
H7    H     H_    0.356948 0.676501 0.026215 0.094465
H8    H     H_    0.620859 0.323317 0.885676 0.158872
N9    N     N_R   0.210550 0.556810 0.002910 -0.037265
N10   N     N_R   0.789450 0.443190 0.997090 -0.046621
C11   C     C_R   0.904372 0.408108 0.207042 -0.136257
C12   C     C_R   0.079662 0.592864 0.785652 -0.143742
H9    H     H_    0.851018 0.323296 0.177504 0.117384
H10   H     H_    0.123424 0.678312 0.808918 0.116127
N11   N     N_R   0.945970 0.443180 0.152110 -0.048113
N12   N     N_R   0.054030 0.556820 0.847890 -0.045061
C13   C     C_R   0.217965 0.740298 0.310265 -0.140196
C14   C     C_R   0.788443 0.202995 0.695179 -0.083452
H11   H     H_    0.195383 0.746933 0.372329 0.101029
H12   H     H_    0.813801 0.176892 0.636161 0.095226
N13   N     N_R   0.151530 0.706170 0.208880 -0.055732
N14   N     N_R   0.848470 0.293830 0.791120 -0.051212
C15   C     C_R   0.073926 0.257181 0.980680 -0.115684
C16   C     C_R   0.989613 0.798902 0.084015 -0.135750
H13   H     H_    0.128931 0.246375 0.950851 0.111627
H14   H     H_    0.968771 0.829757 0.146093 0.111107
N15   N     N_R   0.004980 0.293810 0.946140 -0.049009
N16   N     N_R   0.995020 0.706190 0.053860 -0.041077
C17   C     C_R   0.061966 0.237413 0.061531 0.057212
C18   C     C_R   0.038299 0.856806 0.042310 0.056938
C19   C     C_R   0.321107 0.776799 0.323130 0.207048
C20   C     C_R   0.694479 0.144049 0.692322 0.130428
C21   C     C_R   0.304390 0.500656 0.937191 0.047177
C22   C     C_R   0.674264 0.499625 0.949230 0.019471
C23   C     C_R   0.931950 0.497905 0.298885 0.069725
C24   C     C_R   0.044902 0.501075 0.690928 0.028283
H15   H     H_    0.568048 0.421058 0.167858 0.170510
H16   H     H_    0.602136 0.843623 0.049238 0.142657
C25   C     C_R   0.155458 0.038684 0.069536 -0.262113
C26   C     C_R   0.043188 0.127962 0.149235 -0.226333
C27   C     C_R   0.431255 0.255497 0.063162 0.420792
C28   C     C_R   0.773020 0.937379 0.170084 0.432386
Ni1   Ni    Ni4+2 0.869690 0.369690 0.000000 0.248078
Ni2   Ni    Ni4+2 0.130310 0.630310 0.000000 0.214799
Ni3   Ni    Ni4+2 0.001390 0.369680 0.869810 0.212215
Ni4   Ni    Ni4+2 0.998610 0.630320 0.130190 0.213927
C29   C     C_R   0.326415 0.184465 0.039486 -0.331455
C30   C     C_R   0.879935 0.979229 0.185877 -0.340574
H17   H     H_    0.479718 0.489753 0.266150 0.202124
H18   H     H_    0.636153 0.800971 0.894505 0.132141
H19   H     H_    0.478643 0.079299 0.152015 0.099779
H20   H     H_    0.506455 0.886583 0.903424 0.116769
C31   C     C_R   0.578412 0.252238 0.268907 -0.102939
C32   C     C_R   0.384203 0.716295 0.820436 -0.145182
H21   H     H_    0.511329 0.261193 0.276679 0.130182
H22   H     H_    0.434073 0.696480 0.871628 0.117502
C33   C     C_R   0.683102 0.343477 0.328734 -0.114883
C34   C     C_R   0.279299 0.634553 0.736069 -0.125139
H23   H     H_    0.696377 0.422142 0.384104 0.124698
H24   H     H_    0.250320 0.551433 0.721988 0.112032
C35   C     C_R   0.771458 0.331459 0.322869 0.110024
C36   C     C_R   0.212404 0.660523 0.671032 0.123211
C37   C     C_R   0.753026 0.226315 0.256801 -0.146594
C38   C     C_R   0.254464 0.769278 0.690504 -0.182343
H25   H     H_    0.820916 0.213256 0.257216 0.110853
H26   H     H_    0.205124 0.792251 0.642240 0.109492
C39   C     C_R   0.647324 0.136575 0.192733 0.005484
C40   C     C_R   0.360452 0.849712 0.772947 -0.064516
H27   H     H_    0.633531 0.056403 0.140658 0.109985
H28   H     H_    0.392439 0.932348 0.785918 0.173163
C41   C     C_R   0.560107 0.149344 0.199420 -0.050157
C42   C     C_R   0.424930 0.823610 0.838641 -0.103369
C43   C     C_R   0.918551 0.421261 0.505149 -0.197402
C44   C     C_R   0.064533 0.572365 0.483881 -0.230297
H29   H     H_    0.859743 0.364712 0.514620 0.143964
H30   H     H_    0.123798 0.626900 0.473346 0.130299
C45   C     C_R   0.024481 0.497648 0.590804 0.068729
C46   C     C_R   0.956850 0.497898 0.398704 0.067754
C47   C     C_R   0.099447 0.575254 0.581713 0.019619
C48   C     C_R   0.883785 0.418808 0.408210 -0.001185
H31   H     H_    0.283910 0.099453 0.976042 0.164646
H32   H     H_    0.948446 0.035568 0.266564 0.161301
H33   H     H_    0.389633 0.364150 0.965328 0.134559
H34   H     H_    0.573364 0.628288 0.875427 0.132812
H35   H     H_    0.298942 0.365396 0.227996 0.146389
H36   H     H_    0.823317 0.869273 0.923125 0.109782
C49   C     C_R   0.277826 0.222085 0.099483 0.053402
C50   C     C_R   0.899044 0.953882 0.097369 0.080089
C51   C     C_R   0.436851 0.404651 0.202781 -0.129999
C52   C     C_R   0.704032 0.847793 0.975892 -0.200099
H37   H     H_    0.059058 0.016931 0.398772 0.136958
H38   H     H_    0.992787 0.969264 0.734024 0.120166
C53   C     C_R   0.183567 0.017970 0.354354 -0.178624
C54   C     C_R   0.846896 0.952159 0.743359 -0.151782
H39   H     H_    0.157262 0.044263 0.297219 0.132359
H40   H     H_    0.875394 0.951273 0.818471 0.116785
C55   C     C_R   0.274007 0.000874 0.371957 0.083486
C56   C     C_R   0.744292 0.944245 0.694789 0.049000
C57   C     C_R   0.309257 0.969659 0.449040 0.187128
C58   C     C_R   0.708821 0.947129 0.597681 0.157567
C59   C     C_R   0.253391 0.955726 0.506986 -0.126420
C60   C     C_R   0.776940 0.958237 0.551118 -0.079266
H41   H     H_    0.280760 0.933228 0.567580 0.119308
H42   H     H_    0.752027 0.963549 0.478242 0.201163
C61   C     C_R   0.163107 0.972081 0.488136 -0.114430
C62   C     C_R   0.878564 0.965425 0.599771 -0.129036
H43   H     H_    0.120564 0.961329 0.533139 0.116792
H44   H     H_    0.930737 0.974459 0.563563 0.136615
C63   C     C_R   0.128294 0.003242 0.412009 -0.108626
C64   C     C_R   0.913602 0.962654 0.695900 -0.118198
C65   C     C_R   0.505932 0.054147 0.562818 0.348203
C66   C     C_R   0.511308 0.858021 0.460026 0.348276
C67   C     C_R   0.601327 0.047466 0.599720 -0.145855
C68   C     C_R   0.414715 0.864565 0.424291 -0.158942
C69   C     C_R   0.606113 0.950757 0.550706 -0.155572
C70   C     C_R   0.410721 0.961234 0.478483 -0.179175
C71   C     C_R   0.486564 0.365419 0.146619 -0.279694
C72   C     C_R   0.685211 0.872606 0.063980 -0.261983
C73   C     C_R   0.008303 0.017623 0.112949 0.028382
C74   C     C_R   0.175404 0.144425 0.087657 0.074982
H45   H     H_    0.209777 0.009615 0.053887 0.124060
H46   H     H_    0.001208 0.162739 0.184163 0.130298
C75   C     C_R   0.333465 0.333708 0.179795 -0.120238
C76   C     C_R   0.810280 0.886327 0.992286 -0.106238
C77   C     C_R   0.065277 0.970913 0.072082 0.041670
C78   C     C_R   0.104733 0.180102 0.111376 0.037589
C79   C     C_3   0.456655 0.397977 0.852816 -0.115497
C80   C     C_3   0.511279 0.600487 0.997158 -0.160722
C81   C     C_3   0.414504 0.472643 0.825126 -0.157485
C82   C     C_3   0.551187 0.525405 0.024248 -0.094040
H47   H     H_    0.355902 0.451091 0.743722 0.131068
H48   H     H_    0.609442 0.548183 0.106376 0.132354
H49   H     H_    0.435336 0.314668 0.794279 0.194492
H50   H     H_    0.532536 0.682821 0.058032 0.151802
C83   C     C_3   0.396368 0.500956 0.923256 0.132270
C84   C     C_3   0.571423 0.497905 0.927387 0.163376
C85   C     C_3   0.436158 0.425990 0.949842 -0.132823
C86   C     C_3   0.532087 0.572569 0.899618 -0.162539
N17   N     N_R   0.481831 0.216257 0.003552 0.225984
O1    O     O_R   0.585498 0.274172 0.038354 -0.453345
O2    O     O_R   0.424560 0.122482 0.913670 -0.457760
N18   N     N_R   0.753845 0.964401 0.261013 0.223353
O3    O     O_R   0.655127 0.921849 0.246700 -0.439027
O4    O     O_R   0.834971 0.031724 0.359038 -0.464727
N19   N     N_3   0.330916 0.016815 0.313315 -0.209028
H51   H     H_    0.357102 0.097247 0.327537 0.132638
H52   H     H_    0.275432 0.963365 0.230926 0.102624
N20   N     N_3   0.676983 0.935093 0.744711 -0.212971
H53   H     H_    0.662021 0.864813 0.751791 0.114733
H54   H     H_    0.721120 0.003246 0.822740 0.106644
N21   N     N_R   0.507111 0.157479 0.608412 0.230558
O5    O     O_R   0.564751 0.238665 0.600742 -0.405936
O6    O     O_R   0.455438 0.172221 0.662466 -0.448537
N22   N     N_R   0.510882 0.756441 0.407238 0.230984
O7    O     O_R   0.579165 0.753497 0.371181 -0.408772
O8    O     O_R   0.436227 0.664913 0.387171 -0.427363
N23   N     N_3   0.993126 0.692576 0.347816 -0.208078
H55   H     H_    0.057606 0.737462 0.426904 0.086061
H56   H     H_    0.011383 0.736690 0.309239 0.117052
N24   N     N_3   0.992523 0.307216 0.639543 -0.209152
H57   H     H_    0.915274 0.254761 0.571488 0.134366
H58   H     H_    0.001595 0.271393 0.688132 0.100247

loop_
_geom_bond_atom_site_label_1
_geom_bond_atom_site_label_2
_geom_bond_distance
_ccdc_geom_bond_type
C10   C22   1.371527 A    
C31   C33   1.398774 A    
N17   O1    1.301556 A    
H34   C86   1.104082 S    
C36   C47   1.492083 S    
N21   O6    1.299763 A    
N21   O5    1.301116 A    
C6    N6    1.334825 A    
C35   C48   1.479103 S    
C13   N13   1.320481 A    
N19   H51   1.045582 S    
C44   C46   1.408462 A    
C32   C34   1.398068 A    
N3    Ni2   1.883628 S    
H17   C51   1.082356 S    
C52   C76   1.393159 A    
N24   H57   1.043576 S    
N23   H56   1.045460 S    
H20   C42   1.081957 S    
C3    N3    1.335428 A    
N13   Ni4   1.875323 S    
C12   C24   1.376644 A    
N14   Ni3   1.875320 S    
C82   C84   1.531841 S    
C1    N1    1.321994 A    
C65   N21   1.440090 S    
N19   H52   1.045440 S    
C34   H24   1.082093 S    
C52   C72   1.396762 A    
C57   C59   1.405978 A    
C49   C75   1.408456 A    
C40   H28   1.080584 S    
C61   H43   1.082490 S    
N7    N11   1.382103 A    
H33   C85   1.103456 S    
C22   C84   1.442596 S    
C11   N11   1.327122 A    
N12   Ni2   1.883705 S    
C25   H45   1.080585 S    
C65   C67   1.394123 A    
C16   N16   1.330702 A    
C30   H32   1.080649 S    
N7    Ni4   1.871020 S    
C51   C71   1.393141 A    
C7    N23   1.431880 S    
C37   H25   1.083631 S    
N8    Ni3   1.871021 S    
C5    C21   1.371952 A    
C9    C21   1.366052 A    
H37   C63   1.080002 S    
C6    C22   1.384028 A    
N22   O8    1.301294 A    
C55   C57   1.407778 A    
C46   C48   1.403473 A    
C13   C19   1.368345 A    
C66   C68   1.407708 A    
C82   C85   1.532107 S    
C9    N9    1.327720 A    
C83   C85   1.526222 S    
C28   C72   1.404737 A    
C84   C86   1.525481 S    
C37   C39   1.397995 A    
C62   C64   1.396437 A    
N10   Ni1   1.856654 S    
C7    C23   1.377560 A    
C59   H41   1.083542 S    
C49   C74   1.490603 S    
C28   C30   1.405582 A    
N17   O2    1.300814 A    
C23   C46   1.432458 S    
N20   H54   1.045803 S    
C15   H13   1.079491 S    
C56   N20   1.432286 S    
C2    N2    1.336577 A    
C16   H14   1.079751 S    
C30   C50   1.405164 A    
H19   C41   1.082583 S    
C57   C70   1.485677 S    
H35   C75   1.082741 S    
C29   C49   1.408172 A    
C79   C81   1.547508 S    
C60   H42   1.082499 S    
C44   C47   1.379695 A    
C50   C76   1.400658 A    
C80   C82   1.531772 S    
C39   H27   1.081722 S    
N8    N12   1.382101 A    
C19   C68   1.432503 S    
C12   N12   1.327193 A    
N5    N9    1.382224 A    
C10   N10   1.327661 A    
C14   N14   1.325266 A    
N6    N10   1.382223 A    
C29   H31   1.082194 S    
C32   H22   1.077654 S    
C40   C42   1.394278 A    
C66   N22   1.438978 S    
C35   C37   1.407396 A    
C25   C77   1.412237 A    
C1    C17   1.384091 A    
C50   C73   1.479174 S    
C8    N24   1.431578 S    
C2    C18   1.389716 A    
C38   C40   1.396159 A    
N1    N15   1.389455 A    
C17   C78   1.475653 S    
N15   Ni3   1.870534 S    
C18   C77   1.467543 S    
N16   Ni4   1.870534 S    
C1    H1    1.071395 S    
N18   O4    1.301579 A    
N4    N14   1.389578 A    
C2    H2    1.080455 S    
N9    Ni2   1.856656 S    
C43   H29   1.084922 S    
C32   C42   1.396140 A    
C61   C63   1.393954 A    
N23   H55   1.043699 S    
C31   C41   1.396694 A    
C4    N4    1.324978 A    
C44   H30   1.083280 S    
C15   C17   1.401064 A    
N1    Ni1   1.856435 S    
C53   H39   1.078972 S    
C16   C18   1.387131 A    
N3    N13   1.389577 A    
C81   C86   1.556505 S    
C33   H23   1.083208 S    
C3    C19   1.389683 A    
C24   C45   1.422711 S    
C79   H49   1.106363 S    
C58   C69   1.486823 S    
C80   H50   1.107958 S    
C54   H40   1.082412 S    
C82   H48   1.109860 S    
C26   C73   1.379379 A    
C8    C24   1.372688 A    
C8    N8    1.320937 A    
H16   C72   1.080678 S    
C38   H26   1.083129 S    
C5    H5    1.081830 S    
C53   C63   1.397774 A    
N20   H53   1.045414 S    
H36   C76   1.082489 S    
C66   C69   1.399047 A    
C51   C75   1.394168 A    
C79   C84   1.532720 S    
C4    C20   1.372235 A    
C54   C56   1.405112 A    
C14   C20   1.363141 A    
N22   O7    1.300457 A    
C13   H11   1.077216 S    
C62   H44   1.082578 S    
C26   H46   1.078542 S    
C3    H3    1.081002 S    
C21   C83   1.444537 S    
C39   C41   1.395878 A    
N2    N16   1.389456 A    
C81   H47   1.109417 S    
C4    H4    1.081807 S    
C34   C36   1.407082 A    
C10   H8    1.078840 S    
C67   C69   1.407278 A    
N24   H58   1.045167 S    
C45   C47   1.401409 A    
C59   C61   1.394743 A    
C5    N5    1.332620 A    
N18   O3    1.301719 A    
N2    Ni2   1.856434 S    
C14   H12   1.075886 S    
C11   H9    1.073681 S    
C55   N19   1.431876 S    
C74   C78   1.405856 A    
C27   C29   1.407572 A    
C12   H10   1.080950 S    
N4    Ni1   1.883629 S    
C27   N17   1.437745 S    
N6    Ni4   1.874979 S    
C80   C83   1.531427 S    
C11   C23   1.369175 A    
N11   Ni1   1.883703 S    
H15   C71   1.081208 S    
C27   C71   1.405371 A    
C36   C38   1.409763 A    
C56   C58   1.411358 A    
C25   C74   1.406847 A    
C6    H6    1.080461 S    
C9    H7    1.081552 S    
C43   C48   1.369962 A    
C73   C77   1.412157 A    
C81   C83   1.531464 S    
C58   C60   1.404477 A    
C54   C64   1.396835 A    
C20   C67   1.419071 S    
C43   C45   1.398841 A    
C65   C70   1.375161 A    
C79   C85   1.536445 S    
C26   C78   1.394862 A    
C80   C86   1.546340 S    
C68   C70   1.417151 A    
C31   H21   1.082143 S    
C15   N15   1.351115 A    
C53   C55   1.403994 A    
H18   C52   1.081467 S    
C28   N18   1.439704 S    
C33   C35   1.404124 A    
N5    Ni3   1.874981 S    
C60   C62   1.397283 A    
H38   C64   1.082528 S    
C7    N7    1.328806 A    
