data_mof_unit_10709.cif
_audit_creation_date              2012-12-10T18:34:16-0500
_audit_creation_method            fapswitch 2.2
_symmetry_space_group_name_H-M    P1
_symmetry_Int_Tables_number       1
_space_group_crystal_system       triclinic
_cell_length_a                    10.962146
_cell_length_b                    15.110637
_cell_length_c                    13.84403
_cell_angle_alpha                 90.023091
_cell_angle_beta                  103.276536
_cell_angle_gamma                 90.463397
_cell_volume                      2231.82525304

loop_
_atom_site_label
_atom_site_type_symbol
_atom_type_description
_atom_site_fract_x
_atom_site_fract_y
_atom_site_fract_z
_atom_type_partial_charge
C1    C     C_R   0.495784 0.329890 0.499306 0.784624
C2    C     C_R   0.496514 0.670102 0.499281 0.793136
C3    C     C_R   0.501505 0.048394 0.497493 0.061482
C4    C     C_R   0.502288 0.951696 0.500289 0.061991
C5    C     C_R   0.576704 0.559027 0.122034 -0.289775
C6    C     C_R   0.393182 0.474754 0.873185 -0.286734
C7    C     C_R   0.575703 0.557515 0.223368 0.087387
C8    C     C_R   0.395186 0.474795 0.772049 0.081152
C9    C     C_R   0.425193 0.442026 0.195862 0.061810
C10   C     C_R   0.604813 0.525748 0.809833 0.060197
C11   C     C_R   0.424248 0.440664 0.094159 -0.283695
C12   C     C_R   0.607329 0.525521 0.911870 -0.282975
C13   C     C_R   0.500417 0.499936 0.054964 0.132701
C14   C     C_R   0.500382 0.500005 0.945693 0.133881
C15   C     C_R   0.260872 0.501682 0.458995 0.813644
C16   C     C_R   0.738326 0.497560 0.540816 0.833635
C17   C     C_2   0.122401 0.510103 0.435496 -0.067677
C18   C     C_2   0.875966 0.493855 0.565011 -0.051303
C19   C     C_2   0.070126 0.529922 0.512151 -0.220221
C20   C     C_2   0.934421 0.535170 0.501951 -0.217685
C21   C     C_R   0.430634 0.091926 0.554593 -0.229650
C22   C     C_R   0.430109 0.906624 0.418408 -0.228820
C23   C     C_R   0.423560 0.183995 0.555329 0.090633
C24   C     C_R   0.422958 0.814485 0.416496 0.084968
C25   C     C_R   0.492046 0.233204 0.498302 -0.081784
C26   C     C_R   0.492638 0.766792 0.498509 -0.081434
C27   C     C_R   0.558895 0.189239 0.437827 -0.260776
C28   C     C_R   0.560958 0.812189 0.582223 -0.255218
C29   C     C_R   0.563088 0.096895 0.435119 0.102766
C30   C     C_R   0.565499 0.904652 0.585197 0.104156
Cu1   Cu    Cu3+1 0.500000 0.499990 0.596430 0.916000
Cu2   Cu    Cu3+1 0.500000 0.500010 0.403570 0.913531
H1    H     H_    0.880354 0.570360 0.437994 0.156368
H2    H     H_    0.127546 0.538022 0.586850 0.168980
H3    H     H_    0.365481 0.392332 0.047241 0.126470
H4    H     H_    0.693458 0.544308 0.963617 0.125907
H5    H     H_    0.378090 0.053346 0.597547 0.137082
H6    H     H_    0.376670 0.943955 0.356205 0.133884
H7    H     H_    0.635299 0.602994 0.273834 0.107273
H8    H     H_    0.311702 0.454679 0.718433 0.117329
N1    N     N_R   0.500000 0.500020 0.258690 -0.167352
N2    N     N_R   0.500000 0.499980 0.741310 -0.166276
O1    O     O_R   0.500010 0.371450 0.581440 -0.582065
O2    O     O_R   0.499990 0.628550 0.418560 -0.585562
O3    O     O_R   0.500010 0.371460 0.418560 -0.585049
O4    O     O_R   0.499990 0.628540 0.581440 -0.573898
O5    O     O_R   0.320690 0.500000 0.551510 -0.604336
O6    O     O_R   0.679310 0.500000 0.448490 -0.588140
O7    O     O_R   0.320690 0.500010 0.388630 -0.593537
O8    O     O_R   0.679310 0.499990 0.611370 -0.596703
C31   C     C_3   0.949883 0.439465 0.651989 -0.429151
C32   C     C_3   0.870806 0.377190 0.701582 -0.312827
C33   C     C_3   0.953335 0.312268 0.771516 -0.892166
H9    H     H_    0.002757 0.268153 0.729138 0.255371
H10   H     H_    0.023361 0.348592 0.828910 0.254628
H11   H     H_    0.894132 0.270689 0.808983 0.248831
H12   H     H_    0.817822 0.416407 0.745820 0.232253
H13   H     H_    0.803705 0.338590 0.644173 0.218798
H14   H     H_    0.017384 0.397594 0.623894 0.215914
H15   H     H_    0.004789 0.485276 0.708820 0.191951
C34   C     C_3   0.037966 0.496643 0.331512 -0.399950
C35   C     C_3   0.101085 0.464504 0.249809 -0.333746
C36   C     C_3   0.004150 0.444515 0.153810 -0.885101
H16   H     H_    0.939461 0.390820 0.165852 0.258483
H17   H     H_    0.949030 0.504664 0.127082 0.253352
H18   H     H_    0.052561 0.422742 0.095783 0.241705
H19   H     H_    0.165182 0.516757 0.233317 0.236692
H20   H     H_    0.154453 0.403094 0.274175 0.220521
H21   H     H_    0.964473 0.447072 0.337561 0.219592
H22   H     H_    0.990519 0.560241 0.306982 0.194226
C37   C     C_3   0.335212 0.225054 0.612097 -0.402460
C38   C     C_3   0.394233 0.227925 0.723916 -0.306632
C39   C     C_3   0.296503 0.248911 0.783202 -0.884378
H23   H     H_    0.245246 0.310178 0.755392 0.249523
H24   H     H_    0.228065 0.193405 0.776975 0.250854
H25   H     H_    0.343364 0.258285 0.862656 0.245340
H26   H     H_    0.436853 0.163010 0.749378 0.208182
H27   H     H_    0.469528 0.279141 0.739523 0.239395
H28   H     H_    0.305675 0.292359 0.584810 0.194978
H29   H     H_    0.247381 0.184837 0.598226 0.188966
C40   C     C_3   0.335169 0.770739 0.328500 -0.392570
C41   C     C_3   0.396478 0.764938 0.239693 -0.318613
C42   C     C_3   0.315907 0.710762 0.155295 -0.834453
H30   H     H_    0.303997 0.642021 0.180218 0.260887
H31   H     H_    0.222325 0.741459 0.129777 0.243706
H32   H     H_    0.362266 0.708212 0.091979 0.241650
H33   H     H_    0.409928 0.832653 0.212300 0.200692
H34   H     H_    0.490036 0.733796 0.262626 0.227159
H35   H     H_    0.304568 0.704242 0.348045 0.206426
H36   H     H_    0.247682 0.809962 0.307038 0.178437
H37   H     H_    0.609026 0.227442 0.392825 0.154439
H38   H     H_    0.611899 0.775011 0.645506 0.149423
C43   C     C_3   0.629860 0.053143 0.363081 -0.406793
C44   C     C_3   0.754065 0.011016 0.415751 -0.349315
C45   C     C_3   0.823544 0.973962 0.341135 -0.861146
H39   H     H_    0.765405 0.922628 0.293987 0.251424
H40   H     H_    0.846137 0.027704 0.293193 0.252415
H41   H     H_    0.912462 0.943317 0.381397 0.239643
H42   H     H_    0.814689 0.061398 0.462637 0.214549
H43   H     H_    0.736366 0.955828 0.463566 0.227136
H44   H     H_    0.567774 0.002759 0.317854 0.192838
H45   H     H_    0.649830 0.102944 0.309452 0.193795
C46   C     C_3   0.633545 0.950127 0.680681 -0.405939
C47   C     C_3   0.755237 0.996200 0.670828 -0.351463
C48   C     C_3   0.824385 0.036900 0.769316 -0.856003
H46   H     H_    0.764565 0.086755 0.794699 0.253593
H47   H     H_    0.850237 0.984760 0.826747 0.251240
H48   H     H_    0.911396 0.070304 0.759632 0.240815
H49   H     H_    0.817482 0.947521 0.646352 0.213786
H50   H     H_    0.734398 0.050137 0.615490 0.229607
H51   H     H_    0.570663 0.998463 0.704550 0.193502
H52   H     H_    0.657234 0.900832 0.741653 0.192437
H53   H     H_    0.635739 0.607250 0.096693 0.123273
H54   H     H_    0.307106 0.456057 0.893745 0.126014
H55   H     H_    0.366410 0.396000 0.224682 0.116151
H56   H     H_    0.687643 0.546727 0.786008 0.117793

loop_
_geom_bond_atom_site_label_1
_geom_bond_atom_site_label_2
_ccdc_geom_bond_type
C34   H22   S    
C29   C43   S    
C36   H17   S    
C43   C44   S    
Cu1   N2    S    
C10   N2    A    
Cu2   O6    S    
C39   H23   S    
C45   H39   S    
C15   O5    A    
C16   O6    A    
C37   H28   S    
C40   C41   S    
C45   H41   S    
C33   H9    S    
C2    O4    A    
C48   H47   S    
C35   C36   S    
Cu1   O1    S    
C35   H19   S    
C42   H30   S    
C8    N2    A    
C47   H49   S    
C27   C29   A    
C41   H33   S    
C22   H6    S    
C46   H51   S    
Cu2   O3    S    
C3    C29   A    
C6    H54   S    
C38   H27   S    
C17   C34   S    
C1    O1    A    
C19   C20   S    
C2    O2    A    
Cu1   O4    S    
C30   C46   S    
Cu2   N1    S    
C27   H37   S    
C12   H4    S    
C5    C13   A    
C40   H35   S    
C7    N1    A    
C36   H18   S    
Cu1   O5    S    
C13   C14   S    
C1    C25   S    
C39   H24   S    
C34   C35   S    
C47   C48   S    
C18   C31   S    
C33   H10   S    
C32   H13   S    
C48   H48   S    
C31   C32   S    
C9    H55   S    
C23   C37   S    
C2    C26   S    
C43   H44   S    
C5    C7    A    
C6    C8    A    
C46   H52   S    
C24   C40   S    
C38   H26   S    
C6    C14   A    
C4    C22   A    
Cu1   Cu2   S    
C44   H43   S    
C42   H32   S    
Cu2   O2    S    
C28   H38   S    
C9    C11   A    
C10   C12   A    
C20   H1    S    
C42   H31   S    
C12   C14   A    
C21   C23   A    
C39   H25   S    
C22   C24   A    
C3    C21   A    
C31   H14   S    
C40   H36   S    
Cu1   O8    S    
C3    C4    S    
C10   H56   S    
C32   C33   S    
C33   H11   S    
C34   H21   S    
C15   C17   S    
C5    H53   S    
C9    N1    A    
C24   C26   A    
C16   O8    A    
C38   C39   S    
C19   H2    S    
C43   H45   S    
C37   H29   S    
C45   H40   S    
C25   C27   A    
C48   H46   S    
C26   C28   A    
C35   H20   S    
C28   C30   A    
C37   C38   S    
C47   H50   S    
C11   C13   A    
C1    O3    A    
C44   H42   S    
C41   H34   S    
C11   H3    S    
C17   C19   D    
C18   C20   D    
C15   O7    A    
C44   C45   S    
Cu2   O7    S    
C32   H12   S    
C36   H16   S    
C23   C25   A    
C21   H5    S    
C16   C18   S    
C41   C42   S    
C46   C47   S    
C7    H7    S    
C31   H15   S    
C8    H8    S    
C4    C30   A    
