data_mof_unit_51799.cif
_audit_creation_date              2012-12-11T21:12:04-0500
_audit_creation_method            fapswitch 2.2
_symmetry_space_group_name_H-M    P1
_symmetry_Int_Tables_number       1
_space_group_crystal_system       triclinic
_cell_length_a                    8.355153
_cell_length_b                    18.810889
_cell_length_c                    26.960477
_cell_angle_alpha                 99.784461
_cell_angle_beta                  92.846259
_cell_angle_gamma                 88.3334
_cell_volume                      4169.61559896

loop_
_atom_site_label
_atom_site_type_symbol
_atom_type_description
_atom_site_fract_x
_atom_site_fract_y
_atom_site_fract_z
_atom_type_partial_charge
Ba1   Ba    Ba6+2 0.160810 0.465630 0.521640 1.852292
Ba2   Ba    Ba6+2 0.649380 0.534380 0.478400 1.826707
C1    C     C_3   0.386384 0.269962 0.697871 0.606610
C2    C     C_R   0.065648 0.093625 0.449525 -0.076882
C3    C     C_R   0.201879 0.950951 0.457323 -0.013266
C4    C     C_3   0.919326 0.271355 0.639903 0.444995
C5    C     C_R   0.052736 0.975248 0.477133 0.046777
C6    C     C_R   0.256336 0.880326 0.456174 -0.058988
C7    C     C_R   0.165619 0.830306 0.474974 0.014625
C8    C     C_R   0.020921 0.854061 0.498305 0.065347
C9    C     C_R   0.964874 0.926925 0.499766 0.019309
C10   C     C_R   0.216865 0.757531 0.472074 0.068149
C11   C     C_R   0.120746 0.708744 0.490203 -0.094156
C12   C     C_3   0.407828 0.300052 0.649656 1.242152
C13   C     C_R   0.983339 0.731759 0.516357 0.063954
C14   C     C_R   0.935258 0.805751 0.521780 0.041371
C15   C     C_R   0.847565 0.070576 0.500034 -0.056878
C16   C     C_3   0.849380 0.243236 0.684475 -0.260450
C17   C     C_R   0.790059 0.143355 0.500709 -0.118407
C18   C     C_R   0.877409 0.191912 0.477480 -0.095434
C19   C     C_R   0.008657 0.163373 0.449118 0.602335
C20   C     C_R   0.808569 0.833884 0.551697 -0.030593
C21   C     C_R   0.754378 0.904816 0.553386 -0.030223
C22   C     C_R   0.822413 0.951028 0.524384 0.042398
C23   C     C_3   0.467484 0.309458 0.380684 0.881736
C24   C     C_R   0.758018 0.021529 0.521667 -0.124236
C25   C     C_R   0.601551 0.043159 0.536293 0.525827
C26   C     C_R   0.641674 0.166272 0.522447 -0.177632
C27   C     C_R   0.545671 0.113618 0.537108 0.533802
C28   C     C_3   0.868227 0.628783 0.636418 0.773530
C29   C     C_R   0.591915 0.239914 0.526197 0.081839
C30   C     C_R   0.687803 0.288360 0.507619 -0.264601
C31   C     C_R   0.826431 0.265833 0.481914 0.015944
C32   C     C_R   0.319799 0.458869 0.176350 0.586908
C33   C     C_R   0.162256 0.566536 0.172188 0.599317
C34   C     C_3   0.459666 0.230330 0.353326 0.262304
C35   C     C_2   0.041356 0.534096 0.269941 -0.098481
C36   C     C_3   0.010949 0.531679 0.324502 -0.124014
C37   C     C_1   0.289269 0.503321 0.337908 0.009330
C38   C     C_2   0.323693 0.506327 0.290795 -0.012482
C39   C     C_2   0.191442 0.519638 0.252973 0.196118
C40   C     C_3   0.937575 0.642989 0.690450 0.474397
C41   C     C_R   0.306502 0.509947 0.098699 -0.079492
C42   C     C_R   0.364629 0.456503 0.126280 -0.024376
C43   C     C_R   0.466711 0.401537 0.103352 -0.061333
C44   C     C_R   0.203016 0.564796 0.121775 -0.023008
C45   C     C_3   0.860269 0.727945 0.373284 1.321087
C46   C     C_2   0.162630 0.538586 0.357276 -0.225794
C47   C     C_2   0.647704 0.472265 0.636650 -0.180423
C48   C     C_R   0.499020 0.450206 0.974533 0.020693
C49   C     C_R   0.335142 0.560750 0.969804 0.020929
C50   C     C_R   0.438694 0.504431 0.947051 0.052456
C51   C     C_R   0.601684 0.395548 0.950045 -0.097260
C52   C     C_3   0.949846 0.376310 0.365746 0.363424
C53   C     C_R   0.639100 0.392778 0.900179 -0.046827
C54   C     C_R   0.579316 0.445247 0.872563 -0.045511
C55   C     C_R   0.482046 0.502066 0.896116 -0.082870
C56   C     C_3   0.833347 0.800939 0.356726 -0.192442
C57   C     C_R   0.427484 0.556175 0.868630 -0.028549
C58   C     C_R   0.474337 0.553678 0.818597 0.582534
C59   C     C_R   0.614098 0.441117 0.821567 0.673326
C60   C     C_2   0.744377 0.462539 0.724854 -0.110902
C61   C     C_3   0.754081 0.432045 0.669830 0.012305
C62   C     C_1   0.519116 0.508195 0.655547 0.119834
C63   C     C_2   0.479298 0.510101 0.703044 -0.006521
C64   C     C_3   0.943949 0.354698 0.308173 -0.024579
C65   C     C_2   0.601723 0.490297 0.741762 0.229906
C66   C     C_R   0.455254 0.452148 0.025214 0.021756
C67   C     C_3   0.377756 0.711346 0.350958 0.886234
C68   C     C_R   0.350794 0.508167 0.047913 0.048792
C69   C     C_R   0.289826 0.562300 0.020409 0.020963
C70   C     C_R   0.511376 0.399360 0.054165 -0.099014
C71   C     C_R   0.142767 0.617353 0.094173 -0.058311
C72   C     C_R   0.280508 0.613692 0.940789 -0.101883
C73   C     C_R   0.326823 0.611683 0.891652 -0.054522
C74   C     C_R   0.184718 0.616234 0.044764 -0.098622
C75   C     C_3   0.315890 0.688958 0.599665 0.911591
C76   C     C_3   0.294064 0.768660 0.623795 0.606120
C77   C     C_3   0.841511 0.237229 0.266526 -0.220288
C78   C     C_3   0.327741 0.764042 0.314854 0.645204
C79   C     C_3   0.470162 0.803818 0.699834 -0.228913
C80   C     C_3   0.694815 0.149354 0.363703 -0.314646
C81   C     C_3   0.270213 0.134386 0.319043 -0.126876
C82   C     C_3   0.133473 0.780030 0.246393 -0.140794
C83   C     C_3   0.059250 0.148736 0.619159 -0.136134
C84   C     C_R   0.992024 0.046698 0.476388 -0.016328
F1    F     F_    0.328219 0.365753 0.652695 -0.679452
F2    F     F_    0.472298 0.656315 0.325895 -0.666298
F3    F     F_    0.457213 0.773432 0.285531 -0.677459
F4    F     F_    0.078683 0.199701 0.417324 -0.682785
F5    F     F_    0.390724 0.126791 0.548677 -0.686222
F6    F     F_    0.492542 0.995036 0.544843 -0.683469
F7    F     F_    0.706146 0.623394 0.638203 -0.795589
F8    F     F_    0.101505 0.651326 0.691158 -0.731977
F9    F     F_    0.403631 0.684235 0.557205 -0.707600
F10   F     F_    0.237814 0.808310 0.587734 -0.733770
F11   F     F_    0.567646 0.310330 0.645731 -0.834342
F12   F     F_    0.446997 0.317427 0.739009 -0.668653
F13   F     F_    0.399364 0.315420 0.427014 -0.700593
F14   F     F_    0.775887 0.727869 0.415984 -0.692891
F15   F     F_    0.020454 0.719322 0.384605 -0.856821
H1    H     H_    0.882062 0.692792 0.711494 0.032077
H2    H     H_    0.595374 0.324902 0.386343 -0.106165
H3    H     H_    0.514191 0.228053 0.316061 -0.001734
H4    H     H_    0.451118 0.217001 0.696043 -0.075008
H5    H     H_    0.758856 0.201494 0.670618 0.093119
H6    H     H_    0.702971 0.811320 0.350021 0.145224
H7    H     H_    0.881379 0.844561 0.386567 0.028289
H8    H     H_    0.895504 0.802017 0.321310 0.058615
H9    H     H_    0.270290 0.685816 0.361971 -0.097055
H10   H     H_    0.292941 0.817906 0.337278 -0.058844
H11   H     H_    0.159620 0.652858 0.486961 0.037344
H12   H     H_    0.912043 0.596980 0.709556 -0.037180
H13   H     H_    0.371377 0.866033 0.440409 0.087012
H14   H     H_    0.750426 0.801868 0.574775 0.092392
H15   H     H_    0.648390 0.344179 0.510643 0.072165
H16   H     H_    0.282517 0.985763 0.443325 0.081251
H17   H     H_    0.164794 0.076877 0.425922 0.084002
H18   H     H_    0.662500 0.922986 0.579576 0.166384
H19   H     H_    0.818629 0.292457 0.617946 0.051853
H20   H     H_    0.445771 0.497298 0.279076 0.137022
H21   H     H_    0.513771 0.359643 0.123574 0.117742
H22   H     H_    0.841994 0.451214 0.750615 0.110405
H23   H     H_    0.068053 0.399672 0.378738 -0.054914
H24   H     H_    0.717039 0.349112 0.883349 0.124783
H25   H     H_    0.655543 0.353336 0.968065 0.068802
H26   H     H_    0.590346 0.354936 0.040132 0.067975
H27   H     H_    0.939810 0.539400 0.244043 0.125321
H28   H     H_    0.062319 0.660218 0.110811 0.117358
H29   H     H_    0.201592 0.658041 0.954801 0.069436
H30   H     H_    0.945358 0.220138 0.707407 0.092845
H31   H     H_    0.281224 0.653751 0.871405 0.126918
H32   H     H_    0.357169 0.523778 0.713584 0.154997
H33   H     H_    0.131635 0.658856 0.026819 0.068288
H34   H     H_    0.854762 0.417359 0.376391 0.020799
H35   H     H_    0.162485 0.563198 0.396730 0.057646
H36   H     H_    0.657149 0.457303 0.596201 0.049011
H37   H     H_    0.790522 0.288523 0.709585 0.185118
H38   H     H_    0.920704 0.577184 0.617000 -0.018166
H39   H     H_    0.715380 0.336330 0.272970 0.208268
H40   H     H_    0.727822 0.207817 0.256861 0.098444
H41   H     H_    0.917535 0.208508 0.292469 0.131676
H42   H     H_    0.906100 0.237640 0.231176 0.105537
H43   H     H_    0.544223 0.783256 0.625414 0.228013
H44   H     H_    0.586744 0.829638 0.712012 0.113920
H45   H     H_    0.058250 0.326399 0.296384 0.082233
H46   H     H_    0.472497 0.749231 0.710354 0.162009
H47   H     H_    0.373810 0.837413 0.719776 0.123670
H48   H     H_    0.539571 0.193207 0.421556 0.220301
H49   H     H_    0.734468 0.106240 0.385408 0.116473
H50   H     H_    0.788307 0.190664 0.367727 0.165045
H51   H     H_    0.677360 0.124299 0.323385 0.119873
H52   H     H_    0.219934 0.243786 0.328441 0.209673
H53   H     H_    0.139620 0.123496 0.314017 0.095012
H54   H     H_    0.325374 0.095411 0.342008 0.132651
H55   H     H_    0.323337 0.126036 0.281384 0.058953
H56   H     H_    0.935661 0.403041 0.289834 0.002169
H57   H     H_    0.204804 0.682047 0.267277 0.239823
H58   H     H_    0.017141 0.759386 0.228944 0.146918
H59   H     H_    0.220218 0.778129 0.216335 0.155281
H60   H     H_    0.114399 0.836712 0.265037 0.079550
H61   H     H_    0.050491 0.232542 0.575767 0.234256
H62   H     H_    0.113121 0.114005 0.586214 0.194598
H63   H     H_    0.963398 0.116897 0.631904 0.076045
H64   H     H_    0.153300 0.161771 0.649691 0.111169
H65   H     H_    0.196698 0.665616 0.588999 -0.169756
H66   H     H_    0.257556 0.262185 0.703066 -0.013986
H67   H     H_    0.201883 0.772948 0.652703 0.024930
N1    N     N_R   0.224023 0.515000 0.199681 -0.420221
N2    N     N_R   0.564622 0.495707 0.794883 -0.424170
N3    N     N_2   0.805946 0.310420 0.291054 -0.410830
N4    N     N_2   0.444350 0.799290 0.645929 -0.394512
N5    N     N_2   0.546312 0.182071 0.382837 -0.433092
N6    N     N_2   0.293502 0.207908 0.344376 -0.320882
N7    N     N_2   0.191626 0.735816 0.282654 -0.450140
N8    N     N_2   0.992174 0.214284 0.603840 -0.447929
O1    O     O_2   0.106080 0.324280 0.466820 -0.331737
O2    O     O_2   0.684514 0.548781 0.330330 -0.434532
O3    O     O_3   0.809480 0.673120 0.333898 -0.552883
O4    O     O_3   0.859130 0.413620 0.470620 -0.525798
O5    O     O_3   0.459240 0.537930 0.559910 -0.442922
O6    O     O_2   0.583120 0.462390 0.379940 -0.487351
O7    O     O_3   0.382917 0.353470 0.350512 -0.701267
O8    O     O_2   0.544317 0.757236 0.486905 -0.379623
O9    O     O_3   0.467409 0.748952 0.392157 -0.629967
O10   O     O_2   0.364402 0.410145 0.198929 -0.618232
O11   O     O_2   0.686139 0.387758 0.800715 -0.547576
O12   O     O_3   0.397131 0.652422 0.634543 -0.603246
O13   O     O_2   0.072253 0.614428 0.191566 -0.616766
O14   O     O_2   0.435741 0.603606 0.796437 -0.587394
O15   O     O_3   0.376230 0.370290 0.556910 -0.437159
O16   O     O_2   0.263645 0.244006 0.513969 -0.398965
O17   O     O_3   0.926766 0.314663 0.386945 -0.584753
O18   O     O_3   0.347707 0.250809 0.608266 -0.641219
O19   O     O_2   0.227190 0.537650 0.620070 -0.457689
O20   O     O_3   0.971110 0.406970 0.583250 -0.497563
O21   O     O_2   0.084623 0.464724 0.674712 -0.431977
O22   O     O_3   0.032814 0.324989 0.658915 -0.563013
O23   O     O_2   0.704230 0.675760 0.533200 -0.362762
O24   O     O_3   0.951180 0.586390 0.529420 -0.522275
O25   O     O_3   0.434080 0.629720 0.443130 -0.434913
O26   O     O_3   0.897795 0.687815 0.613148 -0.666037
O27   O     O_3   0.351080 0.462080 0.440130 -0.430460
O28   O     O_3   0.839200 0.593040 0.416790 -0.439292
P1    P     P_3+3 0.929380 0.335110 0.452880 1.083800
P2    P     P_3+3 0.398530 0.559060 0.613740 1.181014
P3    P     P_3+3 0.960774 0.409998 0.647812 1.017122
P4    P     P_3+3 0.880940 0.664900 0.547160 1.058629
P5    P     P_3+3 0.839364 0.587644 0.351455 1.122358
P6    P     P_3+3 0.397814 0.276709 0.551479 1.161509
P7    P     P_3+3 0.399055 0.445222 0.376375 0.998496
P8    P     P_3+3 0.413526 0.723369 0.448463 1.123973

loop_
_geom_bond_atom_site_label_1
_geom_bond_atom_site_label_2
_ccdc_geom_bond_type
O3    P5    S    
C53   C54   A    
C34   N6    S    
C45   F15   S    
C47   H36   S    
C25   C27   A    
C56   H8    S    
C17   C18   A    
C49   C72   A    
C2    H17   S    
Ba1   O5    S    
C82   H59   S    
C1    H66   S    
C81   H53   S    
C75   C76   S    
C1    H4    S    
C5    C9    A    
C38   H20   S    
O19   P2    D    
O12   P2    S    
C24   C25   A    
C60   C61   S    
C49   C69   A    
C60   C65   D    
Ba2   O24   S    
C15   C24   A    
C26   C27   A    
Ba1   O19   S    
C22   C24   A    
C12   F1    S    
C56   H6    S    
C11   H11   S    
C21   H18   S    
C69   C74   A    
Ba1   O4    S    
C55   C57   A    
C5    C84   A    
C2    C84   A    
O7    P7    S    
C13   C14   A    
C9    C22   A    
C59   O11   D    
C83   N8    S    
C54   C55   A    
C32   O10   D    
Ba1   Ba2   S    
Ba2   O6    S    
C79   N4    S    
C77   N3    S    
C78   F3    S    
C16   H37   S    
Ba2   O28   S    
O23   P4    D    
C45   O3    S    
C15   C17   A    
Ba1   O1    S    
C23   F13   S    
C77   H42   S    
C53   H24   S    
C76   F10   S    
C6    C7    A    
C63   C65   S    
O28   P5    S    
C48   C50   A    
C21   C22   A    
C68   C69   A    
C82   N7    S    
Ba1   P1    S    
C7    C8    A    
O25   P8    S    
C36   C46   S    
C80   H50   S    
C6    H13   S    
C19   F4    S    
C35   H27   S    
C66   C68   A    
C12   O18   S    
C57   C58   A    
O24   P4    S    
C47   C62   D    
C61   P3    S    
C43   C70   A    
O27   P7    S    
C16   H30   S    
Ba2   O25   S    
Ba2   O4    S    
C4    C16   S    
C40   H1    S    
C4    H19   S    
C60   H22   S    
C41   C44   A    
C82   H58   S    
O8    P8    D    
C47   C61   S    
C51   C53   A    
C65   N2    S    
C28   O26   S    
C71   H28   S    
C48   C51   A    
O17   P1    S    
C72   C73   A    
Ba2   O27   S    
C70   H26   S    
C15   C84   A    
C64   N3    S    
Ba1   O20   S    
C32   C42   A    
C10   P8    S    
C50   C55   A    
C37   C38   D    
C3    C5    A    
C74   H33   S    
C23   H2    S    
C81   H55   S    
O15   P6    S    
C79   H46   S    
C75   H65   S    
C39   N1    S    
H52   N6    S    
C75   F9    S    
C45   F14   S    
C49   C50   A    
O2    P5    D    
C3    H16   S    
Ba2   O5    S    
C41   C42   A    
C16   H5    S    
C35   C36   S    
Ba1   P2    S    
O18   P6    S    
C67   H9    S    
C40   H12   S    
C29   C30   A    
C80   N5    S    
C66   C70   A    
C79   H47   S    
C31   P1    S    
C76   N4    S    
O9    P8    S    
C37   P7    S    
C25   F6    S    
C54   C59   A    
C30   H15   S    
C17   C26   A    
C67   F2    S    
O16   P6    D    
C80   H49   S    
C32   N1    Am   
C18   C31   A    
Ba1   O15   S    
C58   O14   D    
C38   C39   S    
H39   N3    S    
C79   H44   S    
C11   C13   A    
C83   H62   S    
C71   C74   A    
O21   P3    D    
Ba1   O24   S    
Ba2   P4    S    
O4    P1    S    
Ba1   O27   S    
C67   O9    S    
C27   F5    S    
C73   H31   S    
C12   F11   S    
C4    O22   S    
C83   H63   S    
C56   H7    S    
C52   H23   S    
C20   H14   S    
C14   C20   A    
C28   H38   S    
O22   P3    S    
C40   F8    S    
C28   F7    S    
C46   H35   S    
C26   C29   A    
C42   C43   A    
C13   P4    S    
C78   N7    S    
C3    C6    A    
C52   C64   S    
C1    C12   S    
C43   H21   S    
C41   C68   A    
H43   N4    S    
C76   H67   S    
C34   H3    S    
C83   H64   S    
C62   C63   D    
O20   P3    S    
C72   H29   S    
O5    P2    S    
C58   N2    Am   
C8    C14   A    
C30   C31   A    
C45   C56   S    
C2    C19   A    
C1    F12   S    
C77   H40   S    
C29   P6    S    
C62   P2    S    
Ba2   O23   S    
C33   N1    Am   
C52   H34   S    
C78   H10   S    
O6    P7    D    
C4    N8    S    
O1    P1    D    
H48   N5    S    
C64   H56   S    
C36   P5    S    
C35   C39   D    
C7    C10   A    
C63   H32   S    
C64   H45   S    
C57   C73   A    
C8    C9    A    
C23   C34   S    
C10   C11   A    
C77   H41   S    
H57   N7    S    
C34   N5    S    
H61   N8    S    
C18   C19   A    
C33   O13   D    
C81   N6    S    
C52   O17   S    
C75   O12   S    
C20   C21   A    
C28   C40   S    
C67   C78   S    
O26   P4    S    
C59   N2    Am   
C51   H25   S    
C81   H54   S    
C33   C44   A    
C48   C66   A    
C44   C71   A    
C80   H51   S    
C82   H60   S    
C23   O7    S    
C37   C46   D    
