data_mof_unit_31936.cif
_audit_creation_date              2012-12-11T14:04:18-0500
_audit_creation_method            fapswitch 2.2
_symmetry_space_group_name_H-M    P1
_symmetry_Int_Tables_number       1
_space_group_crystal_system       triclinic
_cell_length_a                    19.148813
_cell_length_b                    10.964005
_cell_length_c                    18.939443
_cell_angle_alpha                 90.34007
_cell_angle_beta                  88.961527
_cell_angle_gamma                 89.892995
_cell_volume                      3975.56125856

loop_
_atom_site_label
_atom_site_type_symbol
_atom_type_description
_atom_site_fract_x
_atom_site_fract_y
_atom_site_fract_z
_atom_type_partial_charge
C1    C     C_R   0.240498 0.466494 0.647135 0.526128
C2    C     C_R   0.041175 0.649232 0.561498 -0.021670
C3    C     C_R   0.461565 0.156794 0.437710 -0.018572
C4    C     C_R   0.541176 0.149232 0.561498 -0.021667
C5    C     C_R   0.976121 0.883808 0.438646 -0.077327
C6    C     C_R   0.077158 0.857568 0.538869 -0.080198
C7    C     C_R   0.476123 0.383807 0.438645 -0.077326
C8    C     C_R   0.577160 0.357568 0.538869 -0.080198
C9    C     C_R   0.019435 0.981505 0.454558 -0.049125
C10   C     C_R   0.070794 0.967867 0.504244 -0.069197
C11   C     C_R   0.519437 0.481504 0.454557 -0.049121
C12   C     C_R   0.759439 0.467907 0.353006 0.533982
C13   C     C_R   0.570796 0.467866 0.504243 -0.069195
C14   C     C_R   0.034119 0.758648 0.524190 0.005252
C15   C     C_R   0.988698 0.766431 0.466851 0.008675
C16   C     C_R   0.534120 0.258647 0.524190 0.005251
C17   C     C_R   0.488700 0.266431 0.466851 0.008673
C18   C     C_R   0.018783 0.539358 0.529582 -0.013333
C19   C     C_R   0.972229 0.544157 0.473656 -0.024409
C20   C     C_R   0.518784 0.039358 0.529582 -0.013335
C21   C     C_R   0.472230 0.044156 0.473655 -0.024408
C22   C     C_R   0.041335 0.423807 0.553100 -0.129395
C23   C     C_R   0.740499 0.966494 0.647135 0.526126
C24   C     C_R   0.939559 0.433992 0.453502 -0.139325
C25   C     C_R   0.541336 0.923808 0.553100 -0.129399
C26   C     C_R   0.439561 0.933990 0.453501 -0.139323
C27   C     C_R   0.008064 0.316322 0.533526 0.297796
C28   C     C_R   0.957866 0.321127 0.482148 0.292379
C29   C     C_R   0.508067 0.816322 0.533525 0.297792
C30   C     C_R   0.457870 0.821125 0.482147 0.292375
C31   C     C_2   0.236690 0.900480 0.927807 -0.023213
C32   C     C_2   0.749354 0.925577 0.082611 -0.043702
C33   C     C_2   0.736681 0.400463 0.927814 -0.023241
C34   C     C_R   0.259438 0.967906 0.353006 0.533981
C35   C     C_2   0.249356 0.425576 0.082611 -0.043719
C36   C     C_2   0.248017 0.900234 0.083748 -0.041883
C37   C     C_2   0.745667 0.931742 0.923790 -0.026429
C38   C     C_2   0.748012 0.400225 0.083751 -0.041866
C39   C     C_2   0.245667 0.431742 0.923790 -0.026503
C40   C     C_R   0.228543 0.875819 0.648785 0.574494
C41   C     C_R   0.772766 0.873457 0.352652 0.587814
C42   C     C_R   0.728543 0.375819 0.648785 0.574501
C43   C     C_R   0.272766 0.373457 0.352652 0.587809
C44   C     C_2   0.188472 0.918204 0.048329 0.211788
C45   C     C_2   0.270446 0.822969 0.532266 -0.127095
C46   C     C_2   0.769244 0.015950 0.969525 0.208627
C47   C     C_2   0.688460 0.418186 0.048341 0.211762
C48   C     C_2   0.269250 0.515946 0.969525 0.208629
C49   C     C_2   0.183643 0.879114 0.974103 0.222729
C50   C     C_2   0.794551 0.977135 0.037350 0.208590
C51   C     C_2   0.683624 0.379133 0.974106 0.222684
C52   C     C_2   0.294557 0.477125 0.037348 0.208640
C53   C     C_2   0.979543 0.669444 0.909413 0.253592
C54   C     C_2   0.002740 0.651002 0.082077 0.284616
C55   C     C_2   0.479540 0.169391 0.909396 0.253634
C56   C     C_2   0.724073 0.825180 0.467133 -0.154106
C57   C     C_2   0.502822 0.151047 0.082135 0.284444
C58   C     C_2   0.956101 0.626128 0.030945 0.251560
C59   C     C_2   0.980388 0.586697 0.960889 0.203929
C60   C     C_2   0.456214 0.126233 0.030965 0.251511
C61   C     C_2   0.480544 0.086762 0.960935 0.203994
C62   C     C_R   0.061362 0.649160 0.637165 0.523780
C63   C     C_R   0.939591 0.651213 0.362961 0.526786
C64   C     C_R   0.561362 0.149160 0.637165 0.523771
C65   C     C_R   0.439591 0.151213 0.362961 0.526784
C66   C     C_R   0.237785 0.468754 0.851409 0.595024
C67   C     C_2   0.770441 0.322966 0.532265 -0.127088
C68   C     C_R   0.761194 0.464716 0.149655 0.608764
C69   C     C_R   0.737785 0.968753 0.851409 0.595055
C70   C     C_R   0.261196 0.964722 0.149653 0.608688
C71   C     C_R   0.225656 0.871586 0.853956 0.612506
C72   C     C_R   0.773309 0.872995 0.147455 0.608572
C73   C     C_R   0.725651 0.371576 0.853961 0.612537
C74   C     C_R   0.273309 0.372994 0.147455 0.608569
C75   C     C_R   0.025814 0.653483 0.847988 0.606335
C76   C     C_R   0.974265 0.651687 0.152360 0.681909
C77   C     C_R   0.525809 0.153476 0.847976 0.606379
C78   C     C_2   0.224072 0.325181 0.467133 -0.154108
C79   C     C_R   0.474291 0.151694 0.152388 0.681925
C80   C     C_2   0.252930 0.913529 0.579047 0.225279
C81   C     C_2   0.749372 0.912564 0.422708 0.241747
C82   C     C_2   0.752930 0.413528 0.579047 0.225288
C83   C     C_2   0.249372 0.412565 0.422708 0.241747
C84   C     C_2   0.241043 0.920111 0.422050 -0.130632
C85   C     C_2   0.759129 0.908539 0.580025 -0.100878
C86   C     C_2   0.741045 0.420117 0.422051 -0.130635
C87   C     C_2   0.259129 0.408539 0.580025 -0.100887
C88   C     C_2   0.278534 0.838588 0.455602 -0.162288
C89   C     C_R   0.961564 0.656794 0.437711 -0.018577
C90   C     C_2   0.714327 0.841770 0.543546 -0.163510
C91   C     C_2   0.778531 0.338586 0.455602 -0.162290
C92   C     C_2   0.214326 0.341771 0.543546 -0.163513
Cr1   Cr    Cr6+3 0.113970 0.508630 0.747920 1.050215
Cr2   Cr    Cr6+3 0.887700 0.820070 0.250200 1.079918
Cr3   Cr    Cr6+3 0.612300 0.320070 0.749800 1.067972
Cr4   Cr    Cr6+3 0.387700 0.320070 0.250200 1.079915
Cr5   Cr    Cr6+3 0.886030 0.508630 0.252080 1.036242
Cr6   Cr    Cr6+3 0.613970 0.008630 0.747920 1.050193
Cr7   Cr    Cr6+3 0.386030 0.008630 0.252080 1.036221
Cr8   Cr    Cr6+3 0.269200 0.666740 0.749850 1.079672
Cr9   Cr    Cr6+3 0.730800 0.666740 0.250150 1.061727
Cr10  Cr    Cr6+3 0.769200 0.166740 0.749850 1.079713
Cr11  Cr    Cr6+3 0.230800 0.166740 0.250150 1.061731
Cr12  Cr    Cr6+3 0.112300 0.820070 0.749800 1.067936
H1    H     H_    0.311963 0.778424 0.425337 0.198977
H2    H     H_    0.695036 0.912692 0.068381 0.077537
H3    H     H_    0.786662 0.436465 0.944213 0.017824
H4    H     H_    0.195037 0.412701 0.068381 0.077510
H5    H     H_    0.274725 0.729468 0.550439 0.154926
H6    H     H_    0.713330 0.733976 0.447362 0.135988
H7    H     H_    0.774713 0.229465 0.550437 0.154913
H8    H     H_    0.213328 0.233978 0.447362 0.135990
H9    H     H_    0.199068 0.966649 0.449973 0.142510
H10   H     H_    0.807458 0.938582 0.554557 0.174806
H11   H     H_    0.699074 0.466663 0.449976 0.142507
H12   H     H_    0.671630 0.795434 0.570016 0.152825
H13   H     H_    0.307458 0.438581 0.554557 0.174804
H14   H     H_    0.898793 0.434544 0.416248 0.153488
H15   H     H_    0.084261 0.416304 0.588163 0.139513
H16   H     H_    0.398796 0.934542 0.416247 0.153489
H17   H     H_    0.584263 0.916305 0.588163 0.139517
H18   H     H_    0.087788 0.824260 0.989785 0.349959
H19   H     H_    0.889048 0.026163 0.010944 0.346089
H20   H     H_    0.587749 0.324341 0.989781 0.349787
H21   H     H_    0.389057 0.526131 0.010939 0.346082
H22   H     H_    0.859415 0.611307 0.002514 0.320651
H23   H     H_    0.811956 0.278417 0.425337 0.198982
H24   H     H_    0.009103 0.429652 0.997021 0.329053
H25   H     H_    0.359532 0.111456 0.002473 0.320767
H26   H     H_    0.509552 0.929929 0.997170 0.329068
H27   H     H_    0.088411 0.625604 0.024827 0.345190
H28   H     H_    0.946243 0.826867 0.876575 0.333147
H29   H     H_    0.588547 0.125803 0.024936 0.345329
H30   H     H_    0.446027 0.326590 0.876441 0.333047
H31   H     H_    0.287580 0.051275 0.525354 0.323740
H32   H     H_    0.723991 0.054561 0.478916 0.316201
H33   H     H_    0.787591 0.551267 0.525356 0.323741
H34   H     H_    0.171629 0.295436 0.570016 0.152827
H35   H     H_    0.223992 0.554562 0.478916 0.316202
H36   H     H_    0.015084 0.066126 0.426317 0.173826
H37   H     H_    0.106332 0.041834 0.515293 0.168459
H38   H     H_    0.515087 0.566125 0.426315 0.173826
H39   H     H_    0.606335 0.541833 0.515292 0.168451
H40   H     H_    0.933786 0.902480 0.404056 0.180845
H41   H     H_    0.120345 0.843090 0.571361 0.139021
H42   H     H_    0.433788 0.402480 0.404055 0.180846
H43   H     H_    0.620346 0.343089 0.571361 0.139016
H44   H     H_    0.056909 0.219220 0.602709 0.308820
H45   H     H_    0.291179 0.849889 0.059793 0.042312
H46   H     H_    0.918856 0.223264 0.408361 0.301164
H47   H     H_    0.556911 0.719221 0.602709 0.308816
H48   H     H_    0.418861 0.723263 0.408359 0.301163
H49   H     H_    0.099096 0.002829 0.043829 0.335849
H50   H     H_    0.798597 0.181629 0.989345 0.316333
H51   H     H_    0.599101 0.502870 0.043862 0.335824
H52   H     H_    0.298616 0.681620 0.989343 0.316332
H53   H     H_    0.736651 0.837524 0.938918 0.048719
H54   H     H_    0.791178 0.349900 0.059789 0.042318
H55   H     H_    0.236645 0.337526 0.938918 0.048768
H56   H     H_    0.286660 0.936537 0.944200 0.017775
O1    O     O_R   0.043230 0.549300 0.667990 -0.519501
O2    O     O_R   0.832470 0.905110 0.169660 -0.427978
O3    O     O_R   0.667530 0.405110 0.830340 -0.465402
O4    O     O_R   0.332470 0.405110 0.169660 -0.427972
O5    O     O_R   0.054010 0.748440 0.822860 -0.476148
O6    O     O_R   0.945990 0.748440 0.177140 -0.461187
O7    O     O_R   0.554010 0.248440 0.822860 -0.476069
O8    O     O_R   0.445990 0.248440 0.177140 -0.461158
O9    O     O_3   0.165160 0.665150 0.749190 -0.291695
O10   O     O_3   0.834840 0.665150 0.250810 -0.291214
O11   O     O_3   0.665160 0.165150 0.749190 -0.291707
O12   O     O_R   0.956770 0.549300 0.332010 -0.514763
O13   O     O_3   0.334840 0.165150 0.250810 -0.291219
O14   O     O_R   0.178620 0.457600 0.674100 -0.536937
O15   O     O_R   0.821380 0.457600 0.325900 -0.537467
O16   O     O_R   0.678620 0.957600 0.674100 -0.536946
O17   O     O_R   0.321380 0.957600 0.325900 -0.537461
O18   O     O_R   0.284680 0.542100 0.669460 -0.505497
O19   O     O_R   0.715320 0.542100 0.330540 -0.518277
O20   O     O_R   0.784680 0.042100 0.669460 -0.505493
O21   O     O_R   0.215320 0.042100 0.330540 -0.518279
O22   O     O_R   0.262860 0.790390 0.676650 -0.527720
O23   O     O_R   0.543230 0.049300 0.667990 -0.519535
O24   O     O_R   0.737140 0.790390 0.323350 -0.536862
O25   O     O_R   0.762860 0.290390 0.676650 -0.527708
O26   O     O_R   0.237140 0.290390 0.323350 -0.536863
O27   O     O_R   0.167460 0.907030 0.670940 -0.521186
O28   O     O_R   0.832540 0.907030 0.329060 -0.520667
O29   O     O_R   0.667460 0.407030 0.670940 -0.521197
O30   O     O_R   0.332540 0.407030 0.329060 -0.520668
O31   O     O_R   0.053950 0.750220 0.675100 -0.496048
O32   O     O_R   0.946050 0.750220 0.324900 -0.519936
O33   O     O_R   0.553950 0.250220 0.675100 -0.496069
O34   O     O_R   0.456770 0.049300 0.332010 -0.514773
O35   O     O_R   0.446050 0.250220 0.324900 -0.519951
O36   O     O_R   0.043300 0.547370 0.827390 -0.453228
O37   O     O_R   0.956700 0.547370 0.172610 -0.507371
O38   O     O_R   0.543300 0.047370 0.827390 -0.453305
O39   O     O_R   0.456700 0.047370 0.172610 -0.507385
O40   O     O_R   0.178690 0.455820 0.821860 -0.488169
O41   O     O_R   0.821310 0.455820 0.178140 -0.494862
O42   O     O_R   0.678690 0.955820 0.821860 -0.488080
O43   O     O_R   0.321310 0.955820 0.178140 -0.494905
O44   O     O_R   0.284750 0.540170 0.828860 -0.453735
O45   O     O_R   0.262920 0.788600 0.824420 -0.460331
O46   O     O_R   0.715250 0.540170 0.171140 -0.429177
O47   O     O_R   0.784750 0.040170 0.828860 -0.453760
O48   O     O_R   0.215250 0.040170 0.171140 -0.429154
O49   O     O_3   0.122174 0.828114 0.950299 -0.659502
O50   O     O_3   0.864408 0.992454 0.053009 -0.636849
O51   O     O_3   0.622139 0.328205 0.950293 -0.659499
O52   O     O_3   0.364416 0.492426 0.053004 -0.636824
O53   O     O_3   0.885015 0.635566 0.045426 -0.689291
O54   O     O_3   0.013911 0.475463 0.952182 -0.703504
O55   O     O_3   0.385115 0.135755 0.045391 -0.689099
O56   O     O_R   0.737080 0.788600 0.175580 -0.503368
O57   O     O_3   0.514296 0.975706 0.952311 -0.703534
O58   O     O_3   0.074708 0.641057 0.074613 -0.743108
O59   O     O_3   0.944348 0.778743 0.920702 -0.717660
O60   O     O_3   0.574798 0.141062 0.074727 -0.743103
O61   O     O_3   0.444182 0.278553 0.920601 -0.717683
O62   O     O_3   0.252036 0.036305 0.562986 -0.728452
O63   O     O_3   0.759224 0.033010 0.441924 -0.708203
O64   O     O_3   0.752048 0.536304 0.562989 -0.728445
O65   O     O_3   0.259225 0.533011 0.441924 -0.708202
O66   O     O_3   0.023182 0.206029 0.564314 -0.671712
O67   O     O_R   0.762920 0.288600 0.824420 -0.460317
O68   O     O_3   0.928430 0.214105 0.459356 -0.676208
O69   O     O_3   0.523185 0.706029 0.564313 -0.671716
O70   O     O_3   0.428434 0.714103 0.459354 -0.676212
O71   O     O_3   0.131830 0.976023 0.080636 -0.650415
O72   O     O_3   0.776752 0.136630 0.950053 -0.666168
O73   O     O_3   0.631812 0.475959 0.080667 -0.650411
O74   O     O_3   0.276766 0.636626 0.950052 -0.666145
O75   O     O_R   0.237080 0.288600 0.175580 -0.503363
O76   O     O_R   0.167530 0.905110 0.830340 -0.465432

loop_
_geom_bond_atom_site_label_1
_geom_bond_atom_site_label_2
_ccdc_geom_bond_type
C44   C49   S    
C53   O59   S    
C21   C26   A    
C35   C74   S    
C1    C87   S    
C8    C13   A    
Cr5   O15   S    
C37   C69   S    
C2    C18   A    
C43   C83   S    
C57   C79   S    
C42   C82   S    
C92   H34   S    
Cr2   O6    S    
C53   C59   D    
C59   O54   S    
C56   C81   D    
C32   C72   S    
C40   O27   A    
C3    C65   S    
C7    C11   A    
Cr1   O36   S    
H33   O64   S    
Cr1   O9    S    
C84   H9    S    
Cr5   O12   S    
C91   H23   S    
C39   C48   D    
H27   O58   S    
Cr9   O19   S    
C85   H10   S    
C60   O55   S    
Cr2   O28   S    
Cr7   O17   S    
C83   O65   S    
C86   C91   D    
C76   O37   A    
C54   C58   D    
C55   C77   S    
C9    H36   S    
C45   H5    S    
C36   H45   S    
C62   O1    A    
C15   C89   A    
C20   C25   A    
H51   O73   S    
Cr9   O56   S    
C70   O48   A    
C63   O32   A    
H19   O50   S    
Cr1   O14   S    
Cr11  O13   S    
Cr10  O20   S    
C34   O21   A    
C18   C19   A    
Cr4   O30   S    
Cr6   O23   S    
H31   O62   S    
C35   H4    S    
Cr12  O5    S    
C64   O23   A    
C78   C83   D    
Cr4   O35   S    
C43   O30   A    
H52   O74   S    
C16   C17   A    
C7    C17   A    
C33   H3    S    
Cr4   O8    S    
C41   O24   A    
C76   O6    A    
C90   H12   S    
C79   O8    A    
Cr8   O22   S    
Cr10  O47   S    
Cr2   O2    S    
H48   O70   S    
C31   H56   S    
C48   O74   S    
C55   O61   S    
C7    H42   S    
C66   O44   A    
C75   O36   A    
C56   C90   S    
C68   O41   A    
Cr8   O18   S    
C69   O42   A    
Cr3   O33   S    
C32   H2    S    
C87   C92   D    
C61   O57   S    
H25   O55   S    
C28   O68   S    
C53   C75   S    
Cr11  O26   S    
C34   C84   S    
C31   C49   D    
Cr8   O44   S    
C56   H6    S    
H21   O52   S    
C36   C70   S    
C54   O58   S    
C40   O22   A    
C25   C29   A    
C22   H15   S    
C81   O63   S    
C82   O64   S    
C1    O14   A    
C69   O47   A    
H29   O60   S    
H46   O68   S    
Cr4   O13   S    
Cr6   O38   S    
Cr10  O25   S    
Cr5   O37   S    
C45   C88   S    
C79   O39   A    
Cr11  O48   S    
C38   H54   S    
Cr5   O41   S    
C73   O67   A    
C6    H41   S    
C57   C60   D    
C47   C51   S    
C23   O16   A    
C43   O26   A    
C78   C92   S    
C58   C59   S    
Cr12  O31   S    
C39   H55   S    
Cr5   O10   S    
Cr4   O4    S    
C41   O28   A    
C86   H11   S    
C10   H37   S    
C4    C16   A    
H26   O57   S    
C5    C9    A    
C29   C30   A    
C19   C89   A    
H22   O53   S    
Cr3   O3    S    
C6    C14   A    
Cr6   O16   S    
C1    O18   A    
Cr7   O13   S    
Cr1   O1    S    
C85   C90   D    
H30   O61   S    
C41   C81   S    
C64   O33   A    
Cr1   O40   S    
C40   C80   S    
C23   O20   A    
H18   O49   S    
H44   O66   S    
Cr9   O10   S    
C75   O5    A    
C71   O76   A    
Cr10  O11   S    
C32   C50   D    
C38   C47   D    
Cr9   O24   S    
C12   O15   A    
C54   C76   S    
Cr6   O11   S    
C42   O25   A    
C33   C73   S    
C72   O56   A    
H20   O51   S    
C38   C68   S    
C26   C30   A    
C22   C27   A    
C68   O46   A    
C39   C66   S    
C36   C44   D    
C8    H43   S    
C77   O7    A    
Cr7   O39   S    
C35   C52   D    
C24   C28   A    
C65   O34   A    
C9    C10   A    
C67   H7    S    
C70   O43   A    
Cr12  O27   S    
C46   C50   S    
Cr11  O75   S    
Cr7   O43   S    
Cr8   O9    S    
Cr11  O21   S    
C37   H53   S    
C44   O71   S    
H49   O71   S    
C84   C88   D    
C77   O38   A    
C26   H16   S    
C5    H40   S    
Cr3   O7    S    
C6    C10   A    
C71   O45   A    
Cr8   O45   S    
C27   O66   S    
C87   H13   S    
C62   O31   A    
C57   O60   S    
C12   C86   S    
C33   C51   D    
C25   H17   S    
C4    C64   S    
C24   H14   S    
C67   C91   S    
H35   O65   S    
H28   O59   S    
C30   O70   S    
C18   C22   A    
C19   C24   A    
C37   C46   D    
C29   O69   S    
C73   O3    A    
Cr2   O10   S    
C74   O4    A    
C88   H1    S    
C11   C13   A    
C42   O29   A    
C63   O12   A    
H47   O69   S    
H32   O63   S    
H50   O72   S    
Cr6   O42   S    
C55   C61   D    
C31   C71   S    
Cr10  O67   S    
C46   O72   S    
C3    C17   A    
C45   C80   D    
C63   C89   S    
C13   H39   S    
C2    C14   A    
C11   H38   S    
Cr2   O32   S    
C5    C15   A    
C3    C21   A    
Cr9   O46   S    
Cr3   O29   S    
C80   O62   S    
C4    C20   A    
C58   O53   S    
C51   O51   S    
Cr12  O76   S    
C12   O19   A    
Cr7   O34   S    
C20   C21   A    
C50   O50   S    
C67   C82   D    
C8    C16   A    
C23   C85   S    
C49   O49   S    
C27   C28   A    
C52   O52   S    
C72   O2    A    
C14   C15   A    
C60   C61   S    
C34   O17   A    
C78   H8    S    
C47   O73   S    
C74   O75   A    
C48   C52   S    
Cr3   O11   S    
C66   O40   A    
C2    C62   S    
H24   O54   S    
Cr12  O9    S    
C65   O35   A    
