data_mof_unit_12796.cif
_audit_creation_date              2013-03-05T16:41:45-0500
_audit_creation_method            fapswitch 2.2
_symmetry_space_group_name_H-M    P1
_symmetry_Int_Tables_number       1
_space_group_crystal_system       triclinic
_cell_length_a                    10.673911
_cell_length_b                    10.724773
_cell_length_c                    9.89002
_cell_angle_alpha                 90.503762
_cell_angle_beta                  93.976283
_cell_angle_gamma                 88.04779
_cell_volume                      1128.75842475

loop_
_atom_site_label
_atom_site_type_symbol
_atom_site_description
_atom_site_fract_x
_atom_site_fract_y
_atom_site_fract_z
_atom_type_partial_charge
O1    O     O_R   0.500020 0.316790 0.614690 -0.587335
O2    O     O_R   0.500000 0.316760 0.385350 -0.627949
C1    C     C_R   0.503292 0.260167 0.499774 0.976825
O3    O     O_R   0.316770 0.500020 0.614690 -0.650478
O4    O     O_R   0.316760 0.499980 0.385350 -0.589339
C2    C     C_R   0.260191 0.513783 0.496076 0.914390
Zn1   Zn    Zn3+2 0.500010 0.500020 0.653130 1.063811
Zn2   Zn    Zn3+2 0.499990 0.499980 0.346870 1.023553
O5    O     O_R   0.500000 0.683240 0.614650 -0.578540
O6    O     O_R   0.499980 0.683210 0.385310 -0.672358
O7    O     O_R   0.683240 0.500020 0.614650 -0.574532
O8    O     O_R   0.683230 0.499980 0.385310 -0.610514
C3    C     C_R   0.493744 0.739689 0.499739 0.874938
C4    C     C_R   0.741506 0.493024 0.505127 0.907045
H1    H     H_    0.102228 0.433216 0.297930 0.255270
C5    C     C_R   0.122312 0.668112 0.694552 0.339609
C6    C     C_R   0.080184 0.677246 0.825033 -0.321955
H2    H     H_    0.124786 0.740441 0.898166 0.214035
C7    C     C_R   0.988404 0.598402 0.865095 -0.103764
C8    C     C_R   0.922070 0.525287 0.765141 0.361192
C9    C     C_R   0.951301 0.533017 0.627554 -0.084571
C10   C     C_R   0.066500 0.581837 0.601249 -0.053934
C11   C     C_R   0.126081 0.532598 0.488369 -0.072515
C12   C     C_R   0.058289 0.470585 0.384867 -0.130726
H3    H     H_    0.880513 0.408720 0.310893 0.224977
C13   C     C_R   0.933330 0.451599 0.395480 -0.072701
C14   C     C_R   0.877550 0.484695 0.514898 -0.053691
C15   C     C_R   0.558772 0.060075 0.605319 0.044274
C16   C     C_R   0.499807 0.128202 0.498445 -0.112472
C17   C     C_R   0.421906 0.070054 0.399143 -0.148764
H4    H     H_    0.368655 0.125757 0.323115 0.211833
C18   C     C_R   0.413071 0.940755 0.397337 -0.002339
C19   C     C_R   0.482126 0.872172 0.501027 -0.140883
C20   C     C_R   0.545970 0.933331 0.608045 0.102805
C21   C     C_3   0.677093 0.907231 0.665657 -0.039593
C22   C     C_3   0.696224 0.047875 0.656341 0.008720
H5    H     H_    0.733415 0.847263 0.598342 0.152595
C23   C     C_R   0.494249 0.390790 0.069517 0.152126
N1    N     N_R   0.499160 0.499140 0.142800 -0.104374
C24   C     C_R   0.512067 0.607454 0.073686 -0.043105
H6    H     H_    0.520051 0.694821 0.128340 0.167315
C25   C     C_R   0.510732 0.607398 0.930110 -0.002534
H7    H     H_    0.515057 0.694176 0.877469 0.230408
N2    N     N_R   0.499160 0.499180 0.857150 -0.133432
C26   C     C_R   0.493348 0.390900 0.927469 0.239715
C27   C     C_3   0.395171 0.293911 0.911789 -0.382026
C28   C     C_3   0.395145 0.294521 0.066757 0.015584
H8    H     H_    0.432359 0.203699 0.872432 0.241742
H9    H     H_    0.430926 0.204959 0.112928 0.157975
C29   C     C_2   0.730937 0.110019 0.789972 0.686406
H10   H     H_    0.819598 0.084320 0.844650 0.117515
O9    O     O_2   0.661432 0.188209 0.838164 -0.558540
N3    N     N_R   0.783061 0.078844 0.553739 0.203885
O10   O     O_R   0.775912 0.188925 0.499026 -0.387967
O11   O     O_R   0.883894 0.009354 0.540239 -0.321747
C30   C     C_2   0.274508 0.337167 0.835731 0.644397
H11   H     H_    0.235020 0.430244 0.851409 0.077109
O12   O     O_2   0.220507 0.267616 0.754451 -0.502162
N4    N     N_R   0.276489 0.339576 0.118717 0.220561
O13   O     O_R   0.198986 0.258680 0.158405 -0.337300
O14   O     O_R   0.238756 0.455862 0.105352 -0.457782
N5    N     N_R   0.212718 0.753797 0.653917 0.212229
O15   O     O_R   0.202286 0.797272 0.531279 -0.431796
O16   O     O_R   0.288043 0.807245 0.744147 -0.365742
C31   C     C_2   0.970054 0.593711 0.012374 0.601944
H12   H     H_    0.997415 0.671943 0.076989 0.065886
O17   O     O_2   0.931360 0.501532 0.065020 -0.520223
N6    N     N_R   0.853845 0.421349 0.805291 0.250171
O18   O     O_R   0.760534 0.436096 0.882105 -0.321502
O19   O     O_R   0.891932 0.309789 0.771531 -0.345149
C32   C     C_2   0.332443 0.881152 0.287791 0.523409
H13   H     H_    0.307370 0.784461 0.294330 0.097997
O20   O     O_2   0.291339 0.940346 0.188496 -0.527343
N7    N     N_R   0.679027 0.859289 0.804250 0.200061
O21   O     O_R   0.755356 0.766800 0.840495 -0.420943
O22   O     O_R   0.603978 0.906344 0.891332 -0.389686

loop_
_geom_bond_atom_site_label_1
_geom_bond_atom_site_label_2
_geom_bond_distance
_ccdc_geom_bond_type
C21   N7    1.466737 S    
C21   C22   1.533435 S    
C28   H9    1.111547 S    
N3    O10   1.300689 A    
Zn1   O7    2.018200 S    
C13   C14   1.396814 A    
C16   C17   1.398613 A    
C5    N5    1.434530 S    
C15   C16   1.391825 A    
C21   H5    1.113518 S    
C12   C13   1.367402 A    
C23   N1    1.364706 A    
O7    C4    1.286292 A    
C30   H11   1.084356 S    
C20   C21   1.492443 S    
C1    C16   1.416967 S    
O5    C3    1.288941 A    
C23   C26   1.404239 A    
N5    O16   1.301628 A    
C22   N3    1.468490 S    
C7    C8    1.421461 A    
N6    O18   1.298550 A    
C31   O17   1.218892 D    
C29   O9    1.216715 D    
C11   C12   1.389914 A    
Zn2   N1    2.017604 S    
C4    C14   1.448381 S    
C24   C25   1.419048 A    
C9    C14   1.423262 A    
C15   C20   1.371471 A    
N4    O13   1.300406 A    
C9    C10   1.394431 A    
C25   N2    1.365881 A    
O3    Zn1   1.966444 S    
C19   C20   1.390346 A    
C18   C32   1.489649 S    
N3    O11   1.301985 A    
C27   H8    1.110756 S    
N4    O14   1.302435 A    
N7    O21   1.298804 A    
O3    C2    1.288941 A    
N1    C24   1.368775 A    
C32   O20   1.221524 D    
C5    C6    1.397269 A    
C29   H10   1.085295 S    
H3    C13   1.083807 S    
C26   C27   1.501031 S    
O1    C1    1.285927 A    
C3    C19   1.422055 S    
N5    O15   1.299450 A    
C17   H4    1.082054 S    
Zn2   O8    1.966443 S    
C6    H2    1.083860 S    
Zn1   N2    2.018512 S    
C23   C28   1.501880 S    
N7    O22   1.303302 A    
Zn2   O6    1.998250 S    
H1    C12   1.075597 S    
O8    C4    1.301099 A    
C25   H7    1.074294 S    
C22   C29   1.503855 S    
N2    C26   1.364246 A    
Zn1   O5    2.004783 S    
C27   C28   1.532605 S    
C24   H6    1.080524 S    
C5    C10   1.417333 A    
O1    Zn1   1.998250 S    
C8    N6    1.426106 S    
O2    Zn2   2.004783 S    
O6    C3    1.283638 A    
O4    Zn2   2.018201 S    
C18   C19   1.416848 A    
O2    C1    1.286613 A    
C32   H13   1.083349 S    
C17   C18   1.392977 A    
O4    C2    1.291697 A    
C2    C11   1.435658 S    
C6    C7    1.395654 A    
C30   O12   1.220377 D    
C7    C31   1.484620 S    
C28   N4    1.464871 S    
C8    C9    1.420724 A    
C15   C22   1.519766 S    
N6    O19   1.298806 A    
C31   H12   1.085826 S    
C27   C30   1.506955 S    
C10   C11   1.412392 A    
