data_mof_unit_49752.cif
_audit_creation_date              2013-03-05T15:52:30-0500
_audit_creation_method            fapswitch 2.2
_symmetry_space_group_name_H-M    P1
_symmetry_Int_Tables_number       1
_space_group_crystal_system       triclinic
_cell_length_a                    27.786008
_cell_length_b                    10.847024
_cell_length_c                    9.595797
_cell_angle_alpha                 89.6333
_cell_angle_beta                  89.825995
_cell_angle_gamma                 94.540442
_cell_volume                      2882.97637379

loop_
_atom_site_label
_atom_site_type_symbol
_atom_site_description
_atom_site_fract_x
_atom_site_fract_y
_atom_site_fract_z
_atom_type_partial_charge
O1    O     O_R   0.500000 0.319640 0.618810 -0.595260
O2    O     O_R   0.500000 0.319660 0.381240 -0.588290
C1    C     C_R   0.501948 0.262256 0.501630 0.791111
O3    O     O_R   0.430260 0.500010 0.618770 -0.585595
O4    O     O_R   0.430270 0.500030 0.381200 -0.585958
C2    C     C_R   0.407486 0.499379 0.500204 0.787516
Cu1   Cu    Cu3+1 0.500000 0.499990 0.640660 0.924026
Cu2   Cu    Cu3+1 0.500000 0.500010 0.359340 0.977387
O5    O     O_R   0.500000 0.680340 0.618760 -0.616492
O6    O     O_R   0.500000 0.680360 0.381190 -0.532364
O7    O     O_R   0.569730 0.499970 0.618800 -0.620927
O8    O     O_R   0.569740 0.499990 0.381230 -0.512143
C3    C     C_R   0.495006 0.735897 0.500305 0.809240
C4    C     C_R   0.592229 0.494617 0.499924 0.857718
C5    C     C_R   0.174927 0.383020 0.482998 0.560709
O9    O     O_2   0.197355 0.278958 0.460699 -0.535995
N1    N     N_R   0.201688 0.492510 0.504548 -0.469318
C6    C     C_R   0.180172 0.599282 0.529598 0.529877
C7    C     C_R   0.278074 0.482739 0.377258 -0.104922
C8    C     C_R   0.328334 0.484819 0.375967 -0.212809
C9    C     C_R   0.329358 0.510918 0.626944 -0.217693
C10   C     C_R   0.279139 0.509363 0.627821 -0.102520
C11   C     C_R   0.253352 0.495010 0.503127 0.356977
C12   C     C_R   0.101324 0.487116 0.509075 -0.048837
C13   C     C_R   0.124216 0.378320 0.484846 -0.073560
C14   C     C_R   0.096365 0.266319 0.469185 -0.260473
C15   C     C_R   0.129655 0.598516 0.533189 -0.000536
C16   C     C_R   0.354444 0.498598 0.500947 -0.036558
H1    H     H_    0.348475 0.521917 0.724815 0.158241
H2    H     H_    0.260172 0.518714 0.725464 0.139146
H3    H     H_    0.114503 0.181948 0.463643 0.181737
C17   C     C_R   0.644853 0.486026 0.499558 -0.114554
C18   C     C_R   0.971373 0.377810 0.461771 0.055994
C19   C     C_R   0.976728 0.588726 0.556903 0.047517
C20   C     C_R   0.948758 0.482823 0.508572 0.063150
C21   C     C_R   0.942556 0.283601 0.393685 -0.136249
C22   C     C_R   0.892572 0.284307 0.389187 -0.171279
C23   C     C_R   0.869609 0.381756 0.447814 -0.041168
C24   C     C_R   0.897670 0.482490 0.505286 -0.048876
C25   C     C_R   0.874628 0.583220 0.558606 -0.013172
C26   C     C_R   0.824073 0.580663 0.555001 0.516374
N2    N     N_R   0.797416 0.480957 0.500537 -0.453084
C27   C     C_R   0.819110 0.382359 0.447482 0.607325
C28   C     C_R   0.720093 0.476260 0.625189 -0.171225
C29   C     C_R   0.670100 0.479908 0.625645 -0.235359
C30   C     C_R   0.670456 0.487268 0.372973 -0.300934
C31   C     C_R   0.720863 0.487657 0.372216 0.484555
C32   C     C_R   0.745714 0.480244 0.499073 0.266120
O10   O     O_2   0.791874 0.284814 0.395692 -0.518332
C33   C     C_R   0.022110 0.373148 0.478461 -0.045119
C34   C     C_R   0.050251 0.484518 0.510714 0.008143
C35   C     C_R   0.027738 0.593406 0.545945 0.069436
C36   C     C_R   0.045506 0.261094 0.466988 0.427651
H4    H     H_    0.651308 0.478594 0.724756 0.174617
H5    H     H_    0.739112 0.471410 0.723160 0.160762
H6    H     H_    0.872047 0.208672 0.337861 0.187003
H7    H     H_    0.958125 0.211125 0.337007 0.184841
O11   O     O_2   0.207611 0.705829 0.550559 -0.535103
C37   C     C_R   0.107097 0.706460 0.560434 -0.150398
H8    H     H_    0.346660 0.474926 0.277380 0.157782
H9    H     H_    0.258285 0.471782 0.280508 0.138593
H10   H     H_    0.128023 0.793634 0.577318 0.186405
C38   C     C_R   0.952545 0.686721 0.613920 -0.225167
C39   C     C_R   0.902439 0.683864 0.614580 -0.145633
O12   O     O_2   0.801712 0.677493 0.604418 -0.555904
C40   C     C_R   0.057121 0.704014 0.567599 -0.218711
H11   H     H_    0.971470 0.765791 0.662241 0.145207
H12   H     H_    0.651661 0.490950 0.274483 0.186126
H13   H     H_    0.885591 0.761437 0.658896 0.187867
H14   H     H_    0.042417 0.791416 0.586424 0.145116
H15   H     H_    0.502578 0.112442 0.281471 0.159215
C41   C     C_R   0.508827 0.111541 0.768546 -0.173233
H16   H     H_    0.529363 0.199094 0.782278 0.170878
C42   C     C_R   0.494563 0.047818 0.890328 -0.165517
H17   H     H_    0.501441 0.090167 0.990938 0.128938
C43   C     C_R   0.470705 0.930780 0.882301 -0.118721
H18   H     H_    0.457738 0.883120 0.976243 0.133902
C44   C     C_R   0.465701 0.872504 0.753712 -0.135996
H19   H     H_    0.446578 0.781792 0.751973 0.159748
C45   C     C_R   0.484164 0.931896 0.630539 0.092777
C46   C     C_R   0.498764 0.059152 0.635405 0.101043
C47   C     C_R   0.502387 0.127069 0.507155 -0.108440
C48   C     C_R   0.499802 0.063551 0.380329 -0.218136
H20   H     H_    0.496151 0.889816 0.278853 0.160206
C49   C     C_R   0.494739 0.935911 0.378430 -0.215236
C50   C     C_R   0.489033 0.868760 0.502948 -0.119389
H21   H     H_    0.451595 0.342000 0.130576 0.136171
C51   C     C_R   0.557172 0.699986 0.133380 0.469414
C52   C     C_R   0.570816 0.803028 0.045423 -0.324468
H22   H     H_    0.585551 0.891676 0.082903 0.142343
C53   C     C_R   0.573927 0.788912 0.904738 -0.243631
H23   H     H_    0.591134 0.862213 0.840302 0.178445
C54   C     C_R   0.557379 0.678952 0.847015 -0.137215
H24   H     H_    0.566809 0.670811 0.740979 0.208166
C55   C     C_R   0.528306 0.590023 0.922526 0.150907
C56   C     C_R   0.528203 0.594571 0.072687 0.109784
N3    N     N_R   0.500460 0.501210 0.147910 -0.187500
C57   C     C_R   0.473446 0.413191 0.074783 -0.072846
H25   H     H_    0.451080 0.343190 0.872651 0.145165
C58   C     C_R   0.473191 0.413843 0.927086 -0.073178
N4    N     N_R   0.500480 0.501290 0.852040 -0.192369
O13   O     O_3   0.745902 0.490086 0.247460 -0.558354
C59   C     C_3   0.749982 0.612545 0.195533 0.030439
H26   H     H_    0.768226 0.677065 0.272460 0.160970
H27   H     H_    0.713817 0.644007 0.169811 0.143614
C60   C     C_3   0.780212 0.617611 0.062887 -0.718022
H28   H     H_    0.762732 0.555160 0.983326 0.247356
H29   H     H_    0.783625 0.713513 0.020727 0.208427
H30   H     H_    0.816844 0.588448 0.085505 0.248156
O14   O     O_3   0.577041 0.695029 0.267084 -0.534991
C61   C     C_3   0.606587 0.802014 0.308324 0.042516
H31   H     H_    0.585386 0.884538 0.308543 0.150409
H32   H     H_    0.638651 0.817182 0.238607 0.144971
C62   C     C_3   0.625281 0.789465 0.456010 -0.786492
H33   H     H_    0.655017 0.727511 0.458127 0.239027
H34   H     H_    0.640029 0.881387 0.493677 0.211414
H35   H     H_    0.595799 0.754707 0.527060 0.235112
O15   O     O_3   0.018116 0.148043 0.479497 -0.582854
C63   C     C_3   0.035505 0.054957 0.394417 0.030351
H36   H     H_    0.064528 0.009707 0.449815 0.160229
H37   H     H_    0.049163 0.092153 0.291833 0.145685
C64   C     C_3   0.994699 0.956155 0.366827 -0.777688
H38   H     H_    0.966563 0.994362 0.301102 0.235351
H39   H     H_    0.008987 0.876973 0.311712 0.212816
H40   H     H_    0.978096 0.922602 0.466743 0.256583

loop_
_geom_bond_atom_site_label_1
_geom_bond_atom_site_label_2
_geom_bond_distance
_ccdc_geom_bond_type
C51   C56   1.469760 A    
C54   H24   1.055913 S    
C17   C29   1.404241 A    
C20   C24   1.419706 A    
C55   C56   1.442085 A    
C12   C15   1.409755 A    
C62   H33   1.105675 S    
Cu1   Cu2   2.699488 S    
C40   H14   1.077703 S    
C49   C50   1.397416 A    
Cu1   O7    1.948224 S    
N1    C11   1.433652 S    
C42   C43   1.387588 A    
C21   C22   1.390305 A    
C43   C44   1.392319 A    
C37   C40   1.388285 A    
O4    C2    1.303704 A    
O7    C4    1.302944 A    
C44   C45   1.417543 A    
C5    C13   1.405993 A    
C60   H28   1.111048 S    
C5    O9    1.349781 S    
N3    C57   1.365891 A    
C18   C21   1.412228 A    
Cu1   O5    1.966178 S    
C19   C20   1.416446 A    
C26   N2    1.369010 A    
O5    C3    1.296089 A    
O14   C61   1.426287 S    
C58   N4    1.366499 A    
C45   C50   1.417994 A    
O15   C63   1.415932 S    
C22   H6    1.083373 S    
H20   C49   1.083304 S    
C6    O11   1.349746 S    
C2    C16   1.473180 S    
C61   H31   1.109871 S    
C3    C50   1.464063 S    
C8    H8    1.082958 S    
C41   C46   1.421140 A    
C41   H16   1.077563 S    
H21   C57   1.081698 S    
C51   O14   1.400668 S    
C12   C34   1.417202 A    
C14   H3    1.080668 S    
C54   C55   1.404346 A    
C31   O13   1.381847 S    
C9    C10   1.394151 A    
O3    Cu1   1.949801 S    
C46   C47   1.429439 A    
H15   C48   1.083376 S    
C63   H37   1.115447 S    
C38   H11   1.078095 S    
C33   C36   1.427739 A    
C42   H17   1.082813 S    
C34   C35   1.421775 A    
C12   C13   1.404563 A    
C41   C42   1.394260 A    
C21   H7    1.076501 S    
C53   H23   1.083875 S    
C36   O15   1.395392 S    
C27   O10   1.349597 S    
C26   O12   1.349801 S    
C8    C16   1.406183 A    
C33   C34   1.422406 A    
C18   C33   1.424162 A    
C9    H1    1.082978 S    
O1    C1    1.291761 A    
C59   C60   1.521173 S    
C7    C11   1.399954 A    
Cu2   N3    2.028793 S    
C30   H12   1.083208 S    
C22   C23   1.397539 A    
C53   C54   1.365303 A    
C31   C32   1.406321 A    
Cu2   O8    1.949796 S    
C56   N3    1.415792 A    
C1    C47   1.468017 S    
N1    C6    1.367052 A    
C61   H32   1.113615 S    
N2    C32   1.436090 S    
C39   H13   1.083392 S    
C43   H18   1.082705 S    
O3    C2    1.303337 A    
C25   C26   1.403343 A    
C48   C49   1.380762 A    
C9    C16   1.406139 A    
O8    C4    1.303978 A    
C29   H4    1.083032 S    
C57   C58   1.417284 A    
C59   H27   1.114417 S    
C52   C53   1.362863 A    
N2    C27   1.368772 A    
C64   H39   1.110645 S    
C52   H22   1.079154 S    
C14   C36   1.410061 A    
C24   C25   1.407637 A    
C35   C40   1.413614 A    
C28   C29   1.392786 A    
C63   C64   1.522258 S    
C5    N1    1.367634 A    
C30   C31   1.400270 A    
C37   H10   1.083488 S    
C10   H2    1.082870 S    
O1    Cu1   1.968798 S    
C17   C30   1.405258 A    
O2    Cu2   1.966178 S    
C6    C15   1.403371 A    
C4    C17   1.472522 S    
C45   C46   1.408689 A    
O6    C3    1.307553 A    
O4    Cu2   1.948227 S    
C62   H34   1.110660 S    
C63   H36   1.111642 S    
C7    C8    1.394953 A    
C19   C35   1.417809 A    
C25   C39   1.397808 A    
H25   C58   1.081736 S    
C64   H40   1.109421 S    
O2    C1    1.312145 A    
C13   C14   1.396986 A    
C23   C27   1.403712 A    
C15   C37   1.396877 A    
C44   H19   1.080869 S    
C28   H5    1.082897 S    
C23   C24   1.407648 A    
C60   H29   1.110648 S    
C7    H9    1.082838 S    
C19   C38   1.413862 A    
C18   C20   1.418514 A    
C61   C62   1.519835 S    
O13   C59   1.411696 S    
C62   H35   1.105664 S    
C38   C39   1.390136 A    
C28   C32   1.400885 A    
C51   C52   1.422767 A    
Cu2   O6    1.968799 S    
C47   C48   1.401553 A    
Cu1   N4    2.028577 S    
C59   H26   1.115524 S    
C10   C11   1.399739 A    
C64   H38   1.109808 S    
C55   N4    1.369434 A    
C60   H30   1.111145 S    
