data_mof_unit_32685.cif
_audit_creation_date              2012-12-11T14:32:50-0500
_audit_creation_method            fapswitch 2.2
_symmetry_space_group_name_H-M    P1
_symmetry_Int_Tables_number       1
_space_group_crystal_system       triclinic
_cell_length_a                    6.9449
_cell_length_b                    13.820022
_cell_length_c                    17.915172
_cell_angle_alpha                 112.783611
_cell_angle_beta                  95.602288
_cell_angle_gamma                 90.736939
_cell_volume                      1575.33128147

loop_
_atom_site_label
_atom_site_type_symbol
_atom_type_description
_atom_site_fract_x
_atom_site_fract_y
_atom_site_fract_z
_atom_type_partial_charge
O1    O     O_R   0.484560 0.544530 0.414330 -0.539757
O2    O     O_R   0.197040 0.638810 0.585080 -0.532649
O3    O     O_R   0.026800 0.455470 0.585670 -0.524547
C1    C     C_R   0.376196 0.678402 0.612567 0.736995
O4    O     O_R   0.155000 0.556150 0.414940 -0.546770
O5    O     O_R   0.984450 0.372220 0.414320 -0.537790
C2    C     C_R   0.317696 0.563725 0.386038 0.738227
O6    O     O_R   0.526900 0.627780 0.585680 -0.550288
O7    O     O_3   0.339170 0.439750 0.499990 -0.364718
V1    V     V_3+5 0.064350 0.511180 0.500000 1.416653
O8    O     O_R   0.654880 0.361190 0.414920 -0.542175
C3    C     C_R   0.816375 0.324291 0.386330 0.782498
O9    O     O_R   0.696930 0.443850 0.585060 -0.540660
C4    C     C_R   0.872683 0.433050 0.611999 0.772205
V2    V     V_3+5 0.564340 0.488820 0.500000 1.417162
O10   O     O_3   0.839390 0.560250 0.500010 -0.388431
C5    C     C_R   0.045111 0.860319 0.822349 -0.053017
C6    C     C_R   0.902561 0.393324 0.677522 -0.065235
C7    C     C_R   0.927736 0.817699 0.681257 -0.153985
C8    C     C_R   0.985758 0.785933 0.744352 -0.129477
C9    C     C_R   0.053248 0.967785 0.836288 -0.205629
C10   C     C_R   0.999021 0.002389 0.772136 0.085190
C11   C     C_R   0.931871 0.924544 0.694524 0.128213
C12   C     C_R   0.005506 0.110834 0.782257 0.064589
C13   C     C_R   0.944295 0.139143 0.714616 0.071912
C14   C     C_R   0.862873 0.058259 0.641552 -0.195855
C15   C     C_R   0.862841 0.953464 0.630995 -0.222262
C16   C     C_R   0.068045 0.191843 0.858093 -0.178385
C17   C     C_R   0.066794 0.296460 0.868672 -0.184682
C18   C     C_R   0.010130 0.325406 0.803810 0.085659
C19   C     C_R   0.955638 0.247909 0.724270 0.010573
C20   C     C_R   0.007942 0.432640 0.818986 -0.150016
C21   C     C_R   0.948729 0.466028 0.757094 -0.219718
C22   C     C_R   0.915724 0.284786 0.659397 0.259096
H1    H     H_    0.801541 0.894394 0.572969 0.119825
H2    H     H_    0.946415 0.549491 0.770837 0.120224
H3    H     H_    0.112109 0.355847 0.928791 0.151915
H4    H     H_    0.876242 0.758435 0.621946 0.138176
H5    H     H_    0.978581 0.702989 0.732805 0.101757
H6    H     H_    0.097894 0.021659 0.897887 0.113624
H7    H     H_    0.787467 0.073511 0.592252 0.179921
H8    H     H_    0.117261 0.177334 0.911454 0.135445
H9    H     H_    0.050227 0.491288 0.879644 0.157102
H10   H     H_    0.113738 0.224799 0.309341 0.154575
H11   H     H_    0.834587 0.033810 0.192920 0.155274
C23   C     C_2   0.136678 0.038110 0.184350 -0.340014
C24   C     C_2   0.973121 0.077797 0.216858 -0.118868
H12   H     H_    0.673430 0.176301 0.293690 0.123796
C25   C     C_2   0.811706 0.220409 0.318013 -0.330632
C26   C     C_2   0.975220 0.180787 0.285432 -0.121809
H13   H     H_    0.274961 0.082207 0.208688 0.126497
C27   C     C_R   0.419634 0.785157 0.681511 -0.152504
C28   C     C_R   0.528364 0.472010 0.822770 -0.159232
C29   C     C_R   0.548374 0.892245 0.821670 -0.084326
C30   C     C_R   0.514008 0.794238 0.758078 0.312796
C31   C     C_R   0.392886 0.879837 0.668951 -0.239172
C32   C     C_R   0.452771 0.981657 0.731689 0.038678
C33   C     C_R   0.522248 0.985748 0.809890 0.005391
C34   C     C_R   0.448718 0.079105 0.719793 0.078512
C35   C     C_R   0.506138 0.178135 0.786658 0.042462
C36   C     C_R   0.563120 0.176652 0.863528 -0.260641
C37   C     C_R   0.573239 0.082446 0.875531 0.318831
C38   C     C_R   0.395818 0.080483 0.642466 -0.171945
C39   C     C_R   0.392933 0.173980 0.630864 -0.197101
C40   C     C_R   0.436705 0.270585 0.695865 0.044762
C41   C     C_R   0.501250 0.275732 0.774623 0.113135
C42   C     C_R   0.406301 0.362246 0.682363 -0.132624
C43   C     C_R   0.433756 0.460873 0.745608 0.337922
C44   C     C_R   0.556547 0.378389 0.836949 -0.253597
H14   H     H_    0.617909 0.388423 0.897261 0.126103
H15   H     H_    0.351424 0.170706 0.569980 0.124861
H16   H     H_    0.610736 0.894464 0.880100 0.195757
H17   H     H_    0.328994 0.871376 0.609334 0.110966
H18   H     H_    0.602476 0.248338 0.915812 0.126049
H19   H     H_    0.358243 0.009898 0.588943 0.120067
H20   H     H_    0.344606 0.357030 0.622879 0.158787
H21   H     H_    0.616091 0.593906 0.309561 0.140651
C45   C     C_2   0.312803 0.592130 0.314108 -0.312739
C46   C     C_2   0.475110 0.599681 0.279852 -0.160436
H22   H     H_    0.762948 0.672381 0.224643 0.119211
C47   C     C_2   0.629977 0.655777 0.183432 -0.351976
C48   C     C_2   0.470052 0.615038 0.201820 0.197432
H23   H     H_    0.172078 0.602831 0.287141 0.159762
O11   O     O_R   0.421600 0.630430 0.917010 -0.545373
O12   O     O_R   0.793840 0.702190 0.087630 -0.532412
O13   O     O_R   0.964010 0.886170 0.088190 -0.538296
C49   C     C_R   0.629534 0.689739 0.114088 0.783218
O14   O     O_R   0.751460 0.619510 0.917500 -0.533887
O15   O     O_R   0.921330 0.802900 0.916840 -0.527036
C50   C     C_R   0.572155 0.579623 0.890498 0.747050
O16   O     O_R   0.464290 0.713700 0.088350 -0.522296
O17   O     O_3   0.609200 0.818520 0.002630 -0.367596
V3    V     V_3+5 0.884140 0.747190 0.002530 1.466939
O18   O     O_R   0.251150 0.814630 0.917340 -0.540893
C51   C     C_R   0.075442 0.825169 0.890288 0.697727
O19   O     O_R   0.293530 0.897310 0.087470 -0.542839
C52   C     C_R   0.132049 0.934170 0.116100 0.765640
V4    V     V_3+5 0.384070 0.769710 0.002370 1.463460
O20   O     O_3   0.109180 0.698190 0.002460 -0.362099
O21   O     O_3   0.635381 0.083096 0.951545 -0.660268
H24   H     H_    0.668108 0.156377 0.990785 0.290380
O22   O     O_3   0.356036 0.542403 0.729138 -0.648904
H25   H     H_    0.316434 0.595368 0.779748 0.302393
O23   O     O_3   0.907020 0.220286 0.578136 -0.671774
H26   H     H_    0.011639 0.170858 0.572454 0.279658
O24   O     O_3   0.585004 0.710809 0.773758 -0.652960
H27   H     H_    0.621423 0.657077 0.722838 0.302103
I1    I     I_    0.215992 0.553406 0.116258 -0.457511

loop_
_geom_bond_atom_site_label_1
_geom_bond_atom_site_label_2
_ccdc_geom_bond_type
C33   C37   A    
C13   C19   A    
C49   O16   A    
C4    C6    S    
C7    C11   A    
C7    C8    A    
C1    O6    A    
C28   C44   A    
C21   H2    S    
C3    C25   S    
O17   V4    S    
C14   C15   A    
C1    C27   S    
C16   C17   A    
O13   V3    S    
C43   O22   S    
O5    C3    A    
C18   C19   A    
C32   C34   A    
C41   C44   A    
O24   H27   S    
O18   V4    S    
V2    O10   S    
V4    O20   S    
C5    C8    A    
C31   C32   A    
C23   C24   D    
C39   H15   S    
O13   C52   A    
C28   C43   A    
O17   V3    S    
O22   H25   S    
C29   C30   A    
O8    V2    S    
C45   H23   S    
C40   C42   A    
O19   V4    S    
O1    V2    S    
C11   C15   A    
O7    V1    S    
V3    O20   S    
C27   C30   A    
H11   C24   S    
C35   C41   A    
C34   C35   A    
O9    C4    A    
C44   H14   S    
O11   C50   A    
O23   H26   S    
C47   C48   D    
C24   C26   S    
H21   C46   S    
O12   C49   A    
C42   C43   A    
C12   C13   A    
O4    C2    A    
C8    H5    S    
C45   C46   D    
C30   O24   S    
C15   H1    S    
C13   C14   A    
C23   H13   S    
C22   O23   S    
C35   C36   A    
O15   C51   A    
O2    C1    A    
C17   C18   A    
C7    H4    S    
O12   V3    S    
O19   C52   A    
C19   C22   A    
O18   C51   A    
C6    C22   A    
C47   C49   S    
O3    C4    A    
C2    C45   S    
C37   O21   S    
H12   C25   S    
C23   C52   S    
O14   C50   A    
C40   C41   A    
O6    V2    S    
C48   I1    S    
O9    V2    S    
C10   C12   A    
O2    V1    S    
C29   C33   A    
H10   C26   S    
O14   V3    S    
C31   H17   S    
O1    C2    A    
C5    C51   S    
C12   C16   A    
H22   C47   S    
O5    V1    S    
C46   C48   S    
O8    C3    A    
C36   H18   S    
C34   C38   A    
O11   V4    S    
C20   C21   A    
O7    V2    S    
O4    V1    S    
O3    V1    S    
V1    O10   S    
C39   C40   A    
C18   C20   A    
C32   C33   A    
C9    H6    S    
C38   H19   S    
C16   H8    S    
O21   H24   S    
C20   H9    S    
O16   V4    S    
O15   V3    S    
C36   C37   A    
C6    C21   A    
C5    C9    A    
C38   C39   A    
C29   H16   S    
C25   C26   D    
C17   H3    S    
C28   C50   S    
C10   C11   A    
C42   H20   S    
C9    C10   A    
C27   C31   A    
C14   H7    S    
