data_mof_unit_20835.cif
_audit_creation_date              2012-12-10T18:45:43-0500
_audit_creation_method            fapswitch 2.2
_symmetry_space_group_name_H-M    P1
_symmetry_Int_Tables_number       1
_space_group_crystal_system       triclinic
_cell_length_a                    18.116311
_cell_length_b                    18.135036
_cell_length_c                    43.143759
_cell_angle_alpha                 89.945178
_cell_angle_beta                  90.113649
_cell_angle_gamma                 89.98523
_cell_volume                      14174.4136676

loop_
_atom_site_label
_atom_site_type_symbol
_atom_type_description
_atom_site_fract_x
_atom_site_fract_y
_atom_site_fract_z
_atom_type_partial_charge
C1    C     C_R   0.499961 0.999752 0.334266 0.933834
C2    C     C_R   0.499443 0.999837 0.868659 -0.366448
C3    C     C_3   0.770944 0.263457 0.221636 0.261369
C4    C     C_3   0.264393 0.230366 0.778608 0.277503
C5    C     C_3   0.737377 0.770615 0.220072 0.260958
C6    C     C_3   0.771392 0.262956 0.779777 0.270298
C7    C     C_3   0.230584 0.734832 0.221465 0.266130
C8    C     C_R   0.515313 0.064932 0.114397 0.296889
C9    C     C_R   0.480287 0.935148 0.885140 0.316432
C10   C     C_R   0.936149 0.524109 0.114874 0.335076
C11   C     C_R   0.065014 0.514018 0.885558 0.304154
C12   C     C_R   0.483160 0.934493 0.114600 0.297140
C13   C     C_R   0.999513 0.500197 0.131428 -0.435156
C14   C     C_R   0.517855 0.064548 0.885237 0.313626
C15   C     C_R   0.062413 0.476368 0.114706 0.333768
C16   C     C_R   0.933361 0.486001 0.885183 0.299428
C17   C     C_R   0.015332 0.564932 0.614398 0.296894
C18   C     C_R   0.980288 0.435156 0.385141 0.316424
C19   C     C_R   0.436151 0.024115 0.614874 0.335077
C20   C     C_R   0.565012 0.014022 0.385558 0.304155
C21   C     C_R   0.983154 0.434499 0.614599 0.297144
C22   C     C_R   0.017874 0.564552 0.385235 0.313675
C23   C     C_R   0.562410 0.976358 0.614706 0.333771
C24   C     C_R   0.999484 0.499908 0.868715 -0.403194
C25   C     C_R   0.433362 0.985990 0.385183 0.299421
C26   C     C_R   0.517873 0.063550 0.081946 0.489745
C27   C     C_R   0.477195 0.936558 0.917663 0.465279
C28   C     C_R   0.937807 0.527651 0.082497 0.516158
C29   C     C_R   0.063399 0.517841 0.917940 0.486227
C30   C     C_R   0.480671 0.935412 0.082119 0.490044
C31   C     C_R   0.519513 0.063312 0.917774 0.468427
C32   C     C_R   0.059984 0.473216 0.082328 0.515964
C33   C     C_R   0.933900 0.484589 0.917670 0.485008
C34   C     C_R   0.017895 0.563551 0.581948 0.489741
C35   C     C_R   0.999471 0.499822 0.631198 -0.396609
C36   C     C_R   0.977198 0.436570 0.417664 0.465282
C37   C     C_R   0.437810 0.027656 0.582497 0.516158
C38   C     C_R   0.563397 0.017846 0.417941 0.486228
C39   C     C_R   0.980670 0.435420 0.582118 0.490044
C40   C     C_R   0.019538 0.563317 0.417772 0.468384
C41   C     C_R   0.559980 0.973207 0.582329 0.515965
C42   C     C_R   0.433901 0.984579 0.417670 0.485002
C43   C     C_R   0.499245 0.999391 0.065548 -0.315028
C44   C     C_R   0.498196 0.999884 0.934154 -0.297251
C45   C     C_R   0.998733 0.500613 0.065909 -0.339235
C46   C     C_R   0.999450 0.499842 0.368659 -0.366430
C47   C     C_R   0.998386 0.501840 0.934338 -0.312288
C48   C     C_R   0.999257 0.499397 0.565548 -0.315020
C49   C     C_R   0.998211 0.499894 0.434153 -0.297242
C50   C     C_R   0.498732 0.000611 0.565909 -0.339234
C51   C     C_R   0.498385 0.001837 0.434338 -0.312283
C52   C     C_3   0.133149 0.139396 0.295615 0.161149
C53   C     C_3   0.089561 0.075944 0.281709 -0.743252
C54   C     C_3   0.859496 0.865373 0.701506 0.187160
C55   C     C_3   0.860508 0.908514 0.671231 -0.915445
C56   C     C_3   0.861461 0.137176 0.298024 0.182671
C57   C     C_R   0.499513 0.000197 0.631428 -0.435151
C58   C     C_3   0.901832 0.133843 0.328996 -0.905928
C59   C     C_3   0.129117 0.872015 0.711235 0.222316
C60   C     C_3   0.073079 0.890913 0.686271 -0.921737
C61   C     C_3   0.873515 0.879386 0.282509 0.237753
C62   C     C_3   0.896631 0.934610 0.307052 -0.944704
C63   C     C_3   0.137596 0.131981 0.703821 0.192073
C64   C     C_3   0.137570 0.089634 0.673366 -0.916630
C65   C     C_3   0.135432 0.868800 0.292667 0.194057
C66   C     C_3   0.095408 0.880093 0.323244 -0.925821
C67   C     C_3   0.871262 0.125392 0.713260 0.224178
C68   C     C_R   0.499484 0.999906 0.368715 -0.403191
C69   C     C_3   0.926377 0.105090 0.688244 -0.926235
C70   C     C_3   0.633127 0.639390 0.795601 0.161115
C71   C     C_3   0.589530 0.575963 0.781679 -0.743204
C72   C     C_3   0.359485 0.365363 0.201499 0.187160
C73   C     C_3   0.360501 0.408510 0.171225 -0.915415
C74   C     C_3   0.361468 0.637173 0.798020 0.182654
C75   C     C_3   0.401845 0.633841 0.828991 -0.905930
C76   C     C_3   0.629135 0.372005 0.211220 0.222272
C77   C     C_3   0.573089 0.390893 0.186257 -0.921671
C78   C     C_3   0.373510 0.379396 0.782505 0.237749
C79   C     C_R   0.998130 0.499689 0.468378 0.423182
C80   C     C_3   0.396623 0.434625 0.807046 -0.944707
C81   C     C_3   0.637597 0.631982 0.203821 0.192089
C82   C     C_3   0.637573 0.589636 0.173365 -0.916618
C83   C     C_3   0.635431 0.368830 0.792647 0.194120
C84   C     C_3   0.595425 0.380156 0.823225 -0.925886
C85   C     C_3   0.371253 0.625401 0.213251 0.224165
C86   C     C_3   0.426366 0.605103 0.188233 -0.926217
C87   C     C_3   0.274454 0.271137 0.330224 0.165306
C88   C     C_3   0.245743 0.283261 0.362917 -0.855423
C89   C     C_3   0.726057 0.728878 0.669076 0.179656
C90   C     C_R   0.998767 0.499427 0.531297 0.417295
C91   C     C_3   0.755157 0.715623 0.636521 -0.833270
C92   C     C_3   0.729941 0.268476 0.331847 0.143071
C93   C     C_3   0.717799 0.235815 0.363916 -0.726921
C94   C     C_3   0.265636 0.734365 0.669614 0.179889
C95   C     C_3   0.275246 0.767841 0.637547 -0.813295
C96   C     C_3   0.733377 0.736632 0.330375 0.187745
C97   C     C_3   0.767352 0.734278 0.362611 -0.863381
C98   C     C_3   0.267019 0.265347 0.668109 0.184066
C99   C     C_3   0.235334 0.276335 0.635767 -0.843286
C100  C     C_3   0.265140 0.736305 0.332056 0.142485
C101  C     C_R   0.498316 0.001848 0.468649 0.405050
C102  C     C_3   0.278615 0.768737 0.364061 -0.718350
C103  C     C_3   0.738800 0.261449 0.669254 0.184095
C104  C     C_3   0.732114 0.225948 0.637460 -0.819171
C105  C     C_3   0.774441 0.771109 0.830225 0.165318
C106  C     C_3   0.745725 0.783213 0.862918 -0.855460
C107  C     C_3   0.226034 0.228851 0.169080 0.179644
C108  C     C_3   0.255124 0.215588 0.136523 -0.833257
C109  C     C_3   0.229952 0.768466 0.831848 0.143073
C110  C     C_3   0.217817 0.735800 0.863917 -0.726925
C111  C     C_3   0.765650 0.234352 0.169615 0.179865
C112  C     C_R   0.499893 0.000030 0.665782 0.942297
C113  C     C_R   0.498504 0.001079 0.531619 0.408314
C114  C     C_3   0.775267 0.267821 0.137547 -0.813300
C115  C     C_3   0.233386 0.236633 0.830375 0.187748
C116  C     C_3   0.267363 0.234267 0.862611 -0.863348
C117  C     C_3   0.767027 0.765349 0.168110 0.184056
C118  C     C_3   0.735350 0.776341 0.135767 -0.843283
C119  C     C_3   0.765120 0.236329 0.832056 0.142488
C120  C     C_3   0.778593 0.268768 0.864061 -0.718317
C121  C     C_3   0.238777 0.761471 0.169256 0.184077
C122  C     C_3   0.232080 0.725982 0.137460 -0.819148
C123  C     C_3   0.470737 0.176070 0.129302 0.177761
C124  C     C_R   0.498112 0.999678 0.968378 0.423182
C125  C     C_3   0.488825 0.245809 0.147063 -0.765906
C126  C     C_3   0.503659 0.811799 0.875580 0.198364
C127  C     C_3   0.535318 0.782218 0.845410 -0.806245
C128  C     C_3   0.822688 0.493743 0.134973 0.178372
C129  C     C_3   0.759326 0.499000 0.111791 -0.778653
C130  C     C_3   0.172803 0.461565 0.870793 0.172564
C131  C     C_3   0.239879 0.471193 0.850212 -0.758926
C132  C     C_3   0.523944 0.822036 0.130144 0.174586
C133  C     C_3   0.504080 0.754419 0.149081 -0.759046
C134  C     C_3   0.492983 0.187136 0.875077 0.185573
C135  C     C_R   0.498751 0.999419 0.031297 0.417293
C136  C     C_3   0.474761 0.225012 0.844514 -0.775357
C137  C     C_3   0.176408 0.506053 0.134583 0.179048
C138  C     C_3   0.238558 0.501621 0.110898 -0.776467
C139  C     C_3   0.821111 0.527508 0.869034 0.181553
C140  C     C_3   0.755215 0.509374 0.848536 -0.743660
C141  C     C_3   0.970784 0.676080 0.629304 0.177735
C142  C     C_3   0.988878 0.745801 0.647077 -0.765871
C143  C     C_3   0.003653 0.311806 0.375583 0.198381
C144  C     C_3   0.035308 0.282219 0.345414 -0.806280
C145  C     C_3   0.322687 0.993764 0.634974 0.178369
C146  C     C_R   0.998317 0.501851 0.968649 0.405035
C147  C     C_3   0.259328 0.999026 0.611790 -0.778661
C148  C     C_3   0.672803 0.961575 0.370793 0.172567
C149  C     C_3   0.739877 0.971205 0.350210 -0.758922
C150  C     C_3   0.023914 0.322033 0.630143 0.174568
C151  C     C_3   0.004041 0.254426 0.649085 -0.759044
C152  C     C_3   0.993082 0.687168 0.375083 0.185614
C153  C     C_3   0.974691 0.724941 0.344515 -0.775486
C154  C     C_3   0.676409 0.006027 0.634583 0.179036
C155  C     C_3   0.738558 0.001585 0.610898 -0.776473
C156  C     C_3   0.321102 0.027472 0.369034 0.181582
C157  C     C_R   0.998505 0.501082 0.031619 0.408301
C158  C     C_3   0.255214 0.009326 0.348534 -0.743696
C159  C     C_R   0.641163 0.141961 0.250206 0.985948
C160  C     C_R   0.358231 0.858777 0.750231 0.989702
C161  C     C_R   0.858541 0.641474 0.249932 0.987935
C162  C     C_R   0.142051 0.358914 0.749734 0.975720
C163  C     C_R   0.358917 0.858040 0.250189 0.986089
C164  C     C_R   0.999911 0.499952 0.334237 0.952806
C165  C     C_R   0.641687 0.141238 0.750206 0.985887
C166  C     C_R   0.141540 0.358618 0.250011 0.986985
C167  C     C_R   0.858328 0.641442 0.749891 0.976507
C168  C     C_R   0.141163 0.641961 0.750207 0.985950
C169  C     C_R   0.858231 0.358777 0.250231 0.989697
C170  C     C_R   0.358541 0.141474 0.749932 0.987946
C171  C     C_R   0.642051 0.858914 0.249734 0.975715
C172  C     C_R   0.858918 0.358040 0.750189 0.986093
C173  C     C_R   0.141687 0.641237 0.250206 0.985903
C174  C     C_R   0.641541 0.858619 0.750011 0.986992
C175  C     C_R   0.999829 0.499993 0.665711 0.932847
C176  C     C_R   0.358330 0.141443 0.249892 0.976504
C177  C     C_3   0.227237 0.194292 0.267302 0.306226
C178  C     C_3   0.772379 0.806585 0.732120 0.291088
C179  C     C_3   0.806155 0.227288 0.267713 0.289895
C180  C     C_3   0.192106 0.775110 0.733820 0.274254
C181  C     C_3   0.775717 0.808295 0.265464 0.275879
C182  C     C_3   0.226340 0.192564 0.733236 0.292953
C183  C     C_3   0.193136 0.773645 0.266697 0.286392
C184  C     C_3   0.808763 0.223879 0.734610 0.276066
C185  C     C_3   0.727230 0.694287 0.767296 0.306243
C186  C     C_R   0.999961 0.499752 0.834266 0.933825
C187  C     C_3   0.272372 0.306579 0.232116 0.291071
C188  C     C_3   0.306157 0.727286 0.767711 0.289894
C189  C     C_3   0.692109 0.275107 0.233817 0.274266
C190  C     C_3   0.275717 0.308295 0.765464 0.275860
C191  C     C_3   0.726341 0.692565 0.233236 0.292956
C192  C     C_3   0.693133 0.273651 0.766693 0.286389
C193  C     C_3   0.308759 0.723884 0.234607 0.276063
C194  C     C_3   0.186581 0.222044 0.238170 0.409621
C195  C     C_3   0.813356 0.778922 0.761180 0.402824
C196  C     C_3   0.777279 0.188577 0.238374 0.403203
C197  C     C_R   0.999893 0.500030 0.165782 0.942282
C198  C     C_3   0.221463 0.813689 0.763180 0.383295
C199  C     C_3   0.813095 0.777072 0.236157 0.362644
C200  C     C_3   0.188771 0.223276 0.762459 0.393556
C201  C     C_3   0.223640 0.810690 0.237266 0.391205
C202  C     C_3   0.777843 0.186993 0.764053 0.380517
C203  C     C_3   0.686584 0.722052 0.738164 0.409618
C204  C     C_3   0.313358 0.278928 0.261176 0.402828
C205  C     C_3   0.277277 0.688579 0.738372 0.403196
C206  C     C_3   0.721461 0.313690 0.263177 0.383328
C207  C     C_3   0.313094 0.277072 0.736156 0.362647
C208  C     C_R   0.499909 0.999951 0.834237 0.952799
C209  C     C_3   0.688771 0.723277 0.262459 0.393547
C210  C     C_3   0.723645 0.310687 0.737261 0.391164
C211  C     C_3   0.277846 0.686989 0.264049 0.380523
C212  C     C_3   0.198461 0.301680 0.249817 -0.359237
C213  C     C_3   0.801420 0.698736 0.749752 -0.364429
C214  C     C_3   0.697616 0.199645 0.250465 -0.362127
C215  C     C_3   0.300758 0.802364 0.750848 -0.350460
C216  C     C_3   0.802076 0.698839 0.249520 -0.343012
C217  C     C_3   0.199526 0.302167 0.749405 -0.359358
C218  C     C_3   0.302554 0.800292 0.250357 -0.361319
C219  C     C_R   0.499828 0.999993 0.165711 0.932813
C220  C     C_3   0.699177 0.197623 0.750781 -0.351442
C221  C     C_3   0.698462 0.801683 0.749817 -0.359226
C222  C     C_3   0.301422 0.198738 0.249753 -0.364418
C223  C     C_3   0.197616 0.699646 0.750465 -0.362129
C224  C     C_3   0.800758 0.302364 0.250848 -0.350472
C225  C     C_3   0.302076 0.198840 0.749519 -0.343007
C226  C     C_3   0.699527 0.802168 0.249404 -0.359366
C227  C     C_3   0.802555 0.300292 0.750356 -0.361317
C228  C     C_3   0.199178 0.697622 0.250781 -0.351427
C229  C     C_3   0.239594 0.273482 0.278799 0.246662
C230  C     C_R   0.499467 0.999820 0.131198 -0.396621
C231  C     C_3   0.760312 0.727237 0.720621 0.249360
C232  C     C_3   0.727163 0.238730 0.279816 0.261874
C233  C     C_3   0.270939 0.763462 0.721636 0.261396
C234  C     C_3   0.764392 0.730367 0.278608 0.277516
C235  C     C_3   0.237375 0.270614 0.720071 0.260958
C236  C     C_3   0.271398 0.762948 0.279777 0.270276
C237  C     C_3   0.730591 0.234824 0.721465 0.266154
C238  C     C_3   0.739586 0.773473 0.778799 0.246652
C239  C     C_3   0.260304 0.227227 0.220623 0.249361
C240  C     C_3   0.227167 0.738726 0.779817 0.261881
F1    F     F_    0.120542 0.195862 0.226453 -0.660204
F2    F     F_    0.379337 0.306576 0.272367 -0.653744
F3    F     F_    0.304450 0.623643 0.726090 -0.652482
F4    F     F_    0.696380 0.378631 0.276221 -0.665013
F5    F     F_    0.377948 0.300506 0.722452 -0.674031
F6    F     F_    0.624102 0.696968 0.275348 -0.652844
F7    F     F_    0.697299 0.374814 0.723856 -0.657093
F8    F     F_    0.302508 0.622785 0.277947 -0.664954
F9    F     F_    0.539720 0.125294 0.066639 -0.613787
F10   F     F_    0.451668 0.876251 0.932981 -0.628169
F11   F     F_    0.880048 0.559326 0.067425 -0.617489
F12   F     F_    0.879333 0.806564 0.772376 -0.653748
F13   F     F_    0.126134 0.537529 0.933124 -0.615707
F14   F     F_    0.458290 0.873691 0.066949 -0.615366
F15   F     F_    0.544133 0.123774 0.933225 -0.628790
F16   F     F_    0.117326 0.441572 0.067085 -0.617270
F17   F     F_    0.871293 0.464285 0.932708 -0.619298
F18   F     F_    0.039756 0.625292 0.566641 -0.613797
F19   F     F_    0.951663 0.376268 0.432983 -0.628165
F20   F     F_    0.380055 0.059339 0.567424 -0.617490
F21   F     F_    0.626130 0.037538 0.433124 -0.615707
F22   F     F_    0.958279 0.373704 0.566948 -0.615369
F23   F     F_    0.804454 0.123639 0.226095 -0.652482
F24   F     F_    0.044173 0.623774 0.433223 -0.628795
F25   F     F_    0.617318 0.941555 0.567085 -0.617274
F26   F     F_    0.371297 0.964266 0.432708 -0.619306
F27   F     F_    0.196385 0.878629 0.776226 -0.665029
F28   F     F_    0.877950 0.800505 0.222453 -0.674033
F29   F     F_    0.124103 0.196966 0.775349 -0.652844
F30   F     F_    0.197289 0.874821 0.223866 -0.657078
F31   F     F_    0.802501 0.122793 0.777955 -0.664954
F32   F     F_    0.620546 0.695881 0.726440 -0.660234
H1    H     H_    0.105386 0.192564 0.289753 0.186033
H2    H     H_    0.826445 0.879656 0.653606 0.263415
H3    H     H_    0.245476 0.821311 0.636172 0.245276
H4    H     H_    0.682635 0.702190 0.330416 0.204754
H5    H     H_    0.718003 0.794978 0.325367 0.160048
H6    H     H_    0.816351 0.770939 0.363568 0.251671
H7    H     H_    0.726442 0.753569 0.379941 0.217449
H8    H     H_    0.784340 0.677070 0.368463 0.270634
H9    H     H_    0.276615 0.205224 0.671593 0.180172
H10   H     H_    0.320633 0.294952 0.669367 0.215957
H11   H     H_    0.226336 0.335969 0.631237 0.261040
H12   H     H_    0.274301 0.254215 0.618247 0.247350
H13   H     H_    0.887096 0.097299 0.281747 0.192778
H14   H     H_    0.181929 0.246835 0.633569 0.240248
H15   H     H_    0.292232 0.681372 0.331057 0.211248
H16   H     H_    0.204485 0.729458 0.328974 0.177798
H17   H     H_    0.251794 0.823603 0.365879 0.260754
H18   H     H_    0.255144 0.731704 0.382028 0.221963
H19   H     H_    0.338807 0.774990 0.368244 0.275752
H20   H     H_    0.798489 0.271941 0.673687 0.183984
H21   H     H_    0.708764 0.314902 0.668885 0.206112
H22   H     H_    0.673166 0.215560 0.631847 0.260309
H23   H     H_    0.755896 0.263066 0.619597 0.243040
H24   H     H_    0.803193 0.120129 0.302160 0.177605
H25   H     H_    0.762619 0.172819 0.637176 0.244128
H26   H     H_    0.827890 0.800657 0.827873 0.212114
H27   H     H_    0.783756 0.710815 0.827154 0.152879
H28   H     H_    0.693840 0.751744 0.866368 0.246860
H29   H     H_    0.787289 0.763785 0.880027 0.220252
H30   H     H_    0.734873 0.842752 0.866860 0.275296
H31   H     H_    0.217321 0.289286 0.171887 0.181195
H32   H     H_    0.172238 0.199942 0.171408 0.211567
H33   H     H_    0.263813 0.155666 0.132665 0.261985
H34   H     H_    0.214780 0.236498 0.119209 0.244380
H35   H     H_    0.879287 0.175996 0.345032 0.270703
H36   H     H_    0.308311 0.244966 0.133310 0.239986
H37   H     H_    0.200940 0.822400 0.830640 0.212084
H38   H     H_    0.290309 0.777545 0.828802 0.175649
H39   H     H_    0.245579 0.681330 0.865698 0.266323
H40   H     H_    0.241053 0.773235 0.881799 0.223248
H41   H     H_    0.157840 0.728512 0.868247 0.273043
H42   H     H_    0.705527 0.224916 0.173262 0.184651
H43   H     H_    0.794981 0.180523 0.170320 0.204926
H44   H     H_    0.834749 0.277169 0.132743 0.260456
H45   H     H_    0.752443 0.229899 0.119754 0.240817
H46   H     H_    0.895097 0.078780 0.339799 0.223831
H47   H     H_    0.745497 0.321291 0.136169 0.245277
H48   H     H_    0.182638 0.202199 0.830416 0.204745
H49   H     H_    0.218022 0.294982 0.825370 0.160047
H50   H     H_    0.316374 0.270911 0.863567 0.251671
H51   H     H_    0.226460 0.253571 0.879941 0.217436
H52   H     H_    0.284331 0.177053 0.868463 0.270618
H53   H     H_    0.776622 0.705226 0.171593 0.180175
H54   H     H_    0.820641 0.794954 0.169370 0.215961
H55   H     H_    0.726349 0.835975 0.131238 0.261036
H56   H     H_    0.774322 0.754226 0.118248 0.247351
H57   H     H_    0.961495 0.144419 0.325618 0.254906
H58   H     H_    0.681947 0.746839 0.133566 0.240246
H59   H     H_    0.792207 0.181394 0.831061 0.211241
H60   H     H_    0.704464 0.229487 0.828973 0.177789
H61   H     H_    0.751777 0.323637 0.865876 0.260759
H62   H     H_    0.755115 0.231741 0.882028 0.221967
H63   H     H_    0.838785 0.275015 0.868245 0.275743
H64   H     H_    0.298468 0.771962 0.173685 0.183988
H65   H     H_    0.208741 0.814925 0.168891 0.206107
H66   H     H_    0.173130 0.715595 0.131850 0.260306
H67   H     H_    0.255854 0.763107 0.119598 0.243031
H68   H     H_    0.183883 0.894207 0.704037 0.162804
H69   H     H_    0.262586 0.672853 0.137170 0.244134
H70   H     H_    0.422538 0.149059 0.140646 0.145003
H71   H     H_    0.455341 0.192044 0.105214 0.175614
H72   H     H_    0.537443 0.273132 0.136466 0.263136
H73   H     H_    0.441148 0.284004 0.146046 0.190831
H74   H     H_    0.501156 0.232236 0.171650 0.288173
H75   H     H_    0.469673 0.767860 0.886436 0.189572
H76   H     H_    0.550848 0.823652 0.891528 0.131726
H77   H     H_    0.577717 0.820711 0.836320 0.288886
H78   H     H_    0.561574 0.727885 0.849670 0.174005
H79   H     H_    0.110944 0.899244 0.732980 0.221505
H80   H     H_    0.490936 0.775764 0.827837 0.300438
H81   H     H_    0.799073 0.500961 0.158522 0.190092
H82   H     H_    0.846896 0.437078 0.134410 0.119268
H83   H     H_    0.777699 0.480414 0.088573 0.290104
H84   H     H_    0.713279 0.462851 0.119377 0.193013
H85   H     H_    0.738938 0.556651 0.110295 0.278482
H86   H     H_    0.140436 0.413817 0.861751 0.111538
H87   H     H_    0.192255 0.448795 0.894693 0.178253
H88   H     H_    0.272704 0.419555 0.850486 0.213226
H89   H     H_    0.222311 0.483156 0.826041 0.293882
H90   H     H_    0.020595 0.861702 0.691017 0.270159
H91   H     H_    0.274586 0.517286 0.858855 0.245322
H92   H     H_    0.573565 0.848136 0.140824 0.146420
H93   H     H_    0.537682 0.803694 0.106225 0.178363
H94   H     H_    0.453947 0.728117 0.139227 0.260650
H95   H     H_    0.550231 0.714325 0.148429 0.189956
H96   H     H_    0.493342 0.770327 0.173521 0.291078
H97   H     H_    0.521946 0.227243 0.890281 0.199320
H98   H     H_    0.439684 0.171807 0.886384 0.122567
H99   H     H_    0.435538 0.190806 0.830953 0.295198
H100  H     H_    0.448850 0.279412 0.849005 0.185758
H101  H     H_    0.061816 0.950990 0.686208 0.223798
H102  H     H_    0.525797 0.233070 0.830732 0.294000
H103  H     H_    0.201174 0.497919 0.157914 0.191244
H104  H     H_    0.152213 0.562734 0.134546 0.120374
H105  H     H_    0.219199 0.521800 0.088010 0.288603
H106  H     H_    0.285349 0.536838 0.118493 0.192007
H107  H     H_    0.258304 0.443898 0.108676 0.280602
H108  H     H_    0.848695 0.577438 0.859351 0.113884
H109  H     H_    0.800376 0.540154 0.892699 0.177964
H110  H     H_    0.716024 0.556337 0.848568 0.194144
H111  H     H_    0.773661 0.498938 0.824394 0.289125
H112  H     H_    0.131383 0.134309 0.321220 0.125195
H113  H     H_    0.094499 0.874453 0.663212 0.256675
H114  H     H_    0.726479 0.459697 0.857479 0.244652
H115  H     H_    0.922569 0.649075 0.640638 0.144989
H116  H     H_    0.955408 0.692077 0.605216 0.175639
H117  H     H_    0.037512 0.773119 0.636490 0.263131
H118  H     H_    0.941212 0.784010 0.646059 0.190818
H119  H     H_    0.001188 0.732206 0.671663 0.288198
H120  H     H_    0.969665 0.267870 0.386441 0.189575
H121  H     H_    0.050843 0.323658 0.391530 0.131714
H122  H     H_    0.077707 0.320708 0.336322 0.288876
H123  H     H_    0.061563 0.227886 0.349675 0.174001
H124  H     H_    0.889227 0.902624 0.259599 0.219561
H125  H     H_    0.990923 0.275763 0.327842 0.300445
H126  H     H_    0.299070 0.000988 0.658522 0.190099
H127  H     H_    0.346888 0.937097 0.634412 0.119277
H128  H     H_    0.277702 0.980434 0.588573 0.290100
H129  H     H_    0.213276 0.962883 0.619376 0.193015
H130  H     H_    0.238947 0.056678 0.610291 0.278484
H131  H     H_    0.640437 0.913825 0.361751 0.111541
H132  H     H_    0.692258 0.948806 0.394692 0.178248
H133  H     H_    0.772702 0.919567 0.350483 0.213229
H134  H     H_    0.722307 0.983170 0.326040 0.293883
H135  H     H_    0.903851 0.826800 0.286796 0.176151
H136  H     H_    0.774585 0.017297 0.358853 0.245315
H137  H     H_    0.073544 0.348125 0.640820 0.146409
H138  H     H_    0.037641 0.303679 0.606225 0.178379
H139  H     H_    0.953900 0.228131 0.639236 0.260641
H140  H     H_    0.050184 0.214322 0.648433 0.189952
H141  H     H_    0.993313 0.270344 0.673526 0.291091
H142  H     H_    0.022153 0.727318 0.390230 0.199218
H143  H     H_    0.939845 0.671911 0.386458 0.122701
H144  H     H_    0.935387 0.690692 0.331014 0.295163
H145  H     H_    0.948812 0.779359 0.348998 0.185786
H146  H     H_    0.895568 0.908549 0.330333 0.251233
H147  H     H_    0.025649 0.732947 0.330675 0.294086
H148  H     H_    0.701173 0.997891 0.657914 0.191247
H149  H     H_    0.652222 0.062712 0.634545 0.120380
H150  H     H_    0.719203 0.021765 0.588010 0.288607
H151  H     H_    0.785355 0.036796 0.618493 0.192010
H152  H     H_    0.758297 0.943859 0.608677 0.280595
H153  H     H_    0.348676 0.077411 0.359353 0.113891
H154  H     H_    0.300360 0.040108 0.392699 0.177968
H155  H     H_    0.216010 0.056278 0.348567 0.194152
H156  H     H_    0.273666 0.998901 0.324392 0.289123
H157  H     H_    0.953209 0.955019 0.302250 0.229468
H158  H     H_    0.226490 0.959639 0.357474 0.244645
H159  H     H_    0.858217 0.982029 0.306640 0.272872
H160  H     H_    0.118413 0.189292 0.699067 0.168461
H161  H     H_    0.098175 0.105438 0.720067 0.193675
H162  H     H_    0.161216 0.033779 0.676893 0.270887
H163  H     H_    0.080628 0.084196 0.664193 0.221452
H164  H     H_    0.031828 0.076773 0.290102 0.198577
H165  H     H_    0.171709 0.119121 0.656013 0.262033
H166  H     H_    0.107961 0.902199 0.274410 0.196130
H167  H     H_    0.193168 0.888934 0.295771 0.176894
H168  H     H_    0.121488 0.846052 0.341651 0.268873
H169  H     H_    0.097885 0.938874 0.330265 0.221183
H170  H     H_    0.036834 0.863721 0.320777 0.268635
H171  H     H_    0.816105 0.103564 0.706311 0.165636
H172  H     H_    0.889491 0.098583 0.735145 0.220865
H173  H     H_    0.978948 0.134636 0.692426 0.270263
H174  H     H_    0.937532 0.044977 0.688766 0.225704
H175  H     H_    0.089419 0.079425 0.256051 0.316638
H176  H     H_    0.904213 0.120359 0.665111 0.255023
H177  H     H_    0.605378 0.692571 0.789748 0.186026
H178  H     H_    0.631350 0.634273 0.821204 0.125200
H179  H     H_    0.531800 0.576786 0.790073 0.198573
H180  H     H_    0.589384 0.579482 0.756022 0.316656
H181  H     H_    0.615659 0.523487 0.788663 0.228484
H182  H     H_    0.378155 0.307998 0.196587 0.168427
H183  H     H_    0.398674 0.391260 0.218078 0.196635
H184  H     H_    0.337382 0.464526 0.174847 0.271030
H185  H     H_    0.417729 0.413681 0.162419 0.222492
H186  H     H_    0.115693 0.023479 0.288709 0.228464
H187  H     H_    0.326441 0.379654 0.153599 0.263420
H188  H     H_    0.387098 0.597296 0.781742 0.192767
H189  H     H_    0.303200 0.620127 0.802158 0.177608
H190  H     H_    0.379305 0.675995 0.845028 0.270702
H191  H     H_    0.395110 0.578778 0.839795 0.223839
H192  H     H_    0.461508 0.644414 0.825611 0.254900
H193  H     H_    0.683902 0.394179 0.204015 0.162786
H194  H     H_    0.610976 0.399257 0.232962 0.221506
H195  H     H_    0.520601 0.361698 0.191013 0.270158
H196  H     H_    0.561841 0.450972 0.186185 0.223784
H197  H     H_    0.878166 0.808007 0.696595 0.168432
H198  H     H_    0.594496 0.374405 0.163200 0.256677
H199  H     H_    0.389214 0.402635 0.759594 0.219556
H200  H     H_    0.403854 0.326815 0.786792 0.176148
H201  H     H_    0.395573 0.408565 0.830328 0.251238
H202  H     H_    0.453196 0.455046 0.802242 0.229461
H203  H     H_    0.358200 0.482036 0.806637 0.272872
H204  H     H_    0.618415 0.689293 0.199066 0.168455
H205  H     H_    0.598175 0.605438 0.220066 0.193677
H206  H     H_    0.661223 0.533783 0.176892 0.270883
H207  H     H_    0.580632 0.584194 0.164192 0.221446
H208  H     H_    0.898689 0.891272 0.718083 0.196618
H209  H     H_    0.671710 0.619126 0.156013 0.262030
H210  H     H_    0.607946 0.402206 0.774386 0.196130
H211  H     H_    0.693167 0.388972 0.795741 0.176909
H212  H     H_    0.621513 0.346131 0.841636 0.268877
H213  H     H_    0.597911 0.438944 0.830237 0.221205
H214  H     H_    0.536847 0.363789 0.820767 0.268635
H215  H     H_    0.316095 0.603574 0.206302 0.165630
H216  H     H_    0.389485 0.598588 0.235134 0.220867
H217  H     H_    0.478940 0.634642 0.192417 0.270257
H218  H     H_    0.437515 0.544988 0.188751 0.225699
H219  H     H_    0.837389 0.964531 0.674852 0.271035
H220  H     H_    0.404203 0.620382 0.165101 0.255030
H221  H     H_    0.327906 0.300678 0.327868 0.212112
H222  H     H_    0.283762 0.210841 0.327158 0.152881
H223  H     H_    0.193852 0.251804 0.366370 0.246860
H224  H     H_    0.287305 0.263832 0.380027 0.220252
H225  H     H_    0.234905 0.342803 0.366855 0.275294
H226  H     H_    0.717346 0.789313 0.671886 0.181190
H227  H     H_    0.672260 0.699971 0.671400 0.211575
H228  H     H_    0.763840 0.655702 0.632660 0.261992
H229  H     H_    0.714821 0.736545 0.619206 0.244389
H230  H     H_    0.917734 0.913684 0.662422 0.222497
H231  H     H_    0.808350 0.744995 0.633312 0.239985
H232  H     H_    0.700931 0.322410 0.330637 0.212082
H233  H     H_    0.790299 0.277552 0.328802 0.175647
H234  H     H_    0.745559 0.181344 0.365700 0.266329
H235  H     H_    0.741034 0.273251 0.381798 0.223245
H236  H     H_    0.657821 0.228529 0.368245 0.273039
H237  H     H_    0.205515 0.724927 0.673263 0.184653
H238  H     H_    0.294969 0.680537 0.670317 0.204922
H239  H     H_    0.334726 0.777190 0.632741 0.260456
H240  H     H_    0.252418 0.729922 0.619754 0.240825
N1    N     N_R   0.508811 0.935927 0.015224 -0.087410
N2    N     N_R   0.988011 0.563163 0.484442 -0.088709
N3    N     N_R   0.562656 0.996701 0.515566 -0.084179
N4    N     N_R   0.434140 0.006377 0.484705 -0.082066
N5    N     N_R   0.988297 0.563020 0.515269 -0.087216
N6    N     N_R   0.008504 0.436061 0.484391 -0.089912
N7    N     N_R   0.434226 0.005910 0.515534 -0.084169
N8    N     N_R   0.562543 0.996946 0.484753 -0.081546
N9    N     N_R   0.487980 0.063151 0.984441 -0.088705
N10   N     N_R   0.062657 0.496706 0.015566 -0.084174
N11   N     N_R   0.934141 0.506378 0.984705 -0.082057
N12   N     N_R   0.488267 0.063009 0.015269 -0.087214
N13   N     N_R   0.508498 0.936052 0.984391 -0.089914
N14   N     N_R   0.934227 0.505911 0.015534 -0.084163
N15   N     N_R   0.062544 0.496951 0.984753 -0.081540
N16   N     N_R   0.008816 0.435934 0.515224 -0.087408
O1    O     O_3   0.500000 0.000000 0.250000 -0.542143
O2    O     O_R   0.438450 0.000020 0.680680 -0.635931
O3    O     O_3   0.369466 0.966343 0.369625 -0.538127
O4    O     O_R   0.000020 0.561550 0.319320 -0.614191
O5    O     O_R   0.999980 0.438450 0.680680 -0.616434
O6    O     O_R   0.938450 0.500020 0.819320 -0.615421
O7    O     O_R   0.061550 0.499980 0.180680 -0.634927
O8    O     O_R   0.499980 0.938450 0.819320 -0.614580
O9    O     O_R   0.500020 0.061550 0.180680 -0.615099
O10   O     O_R   0.061550 0.499980 0.819320 -0.613574
O11   O     O_R   0.938450 0.500020 0.180680 -0.635926
O12   O     O_R   0.500020 0.061550 0.819320 -0.614177
O13   O     O_3   0.500000 1.000000 0.750000 -0.541772
O14   O     O_R   0.499980 0.938450 0.180680 -0.616425
O15   O     O_R   0.648010 0.086580 0.268180 -0.623626
O16   O     O_R   0.351990 0.913420 0.731820 -0.633146
O17   O     O_R   0.913420 0.648010 0.268180 -0.637034
O18   O     O_R   0.086580 0.351990 0.731820 -0.627505
O19   O     O_R   0.351990 0.913420 0.268180 -0.624436
O20   O     O_R   0.648010 0.086580 0.731820 -0.632122
O21   O     O_R   0.086580 0.351990 0.268180 -0.637921
O22   O     O_R   0.913420 0.648010 0.731820 -0.627975
O23   O     O_R   0.148010 0.586580 0.768180 -0.623619
O24   O     O_3   0.000000 0.500000 0.250000 -0.541771
O25   O     O_R   0.851990 0.413420 0.231820 -0.633151
O26   O     O_R   0.413420 0.148010 0.768180 -0.637070
O27   O     O_R   0.586580 0.851990 0.231820 -0.627504
O28   O     O_R   0.851990 0.413420 0.768180 -0.624435
O29   O     O_R   0.148010 0.586580 0.231820 -0.632128
O30   O     O_R   0.586580 0.851990 0.768180 -0.637926
O31   O     O_R   0.413420 0.148010 0.231820 -0.627974
O32   O     O_R   0.413460 0.851950 0.231830 -0.616682
O33   O     O_R   0.586540 0.148050 0.768170 -0.611990
O34   O     O_R   0.148050 0.413460 0.231830 -0.608269
O35   O     O_3   0.000000 0.500000 0.750000 -0.542139
O36   O     O_R   0.851950 0.586540 0.768170 -0.627111
O37   O     O_R   0.586540 0.148050 0.231830 -0.613930
O38   O     O_R   0.413460 0.851950 0.768170 -0.610407
O39   O     O_R   0.851950 0.586540 0.231830 -0.609616
O40   O     O_R   0.148050 0.413460 0.768170 -0.630106
O41   O     O_R   0.913460 0.351950 0.731830 -0.616694
O42   O     O_R   0.086540 0.648050 0.268170 -0.611998
O43   O     O_R   0.648050 0.913460 0.731830 -0.608278
O44   O     O_R   0.351950 0.086540 0.268170 -0.627095
O45   O     O_R   0.086540 0.648050 0.731830 -0.613948
O46   O     O_R   0.438450 0.000020 0.319320 -0.615429
O47   O     O_R   0.913460 0.351950 0.268170 -0.610406
O48   O     O_R   0.351950 0.086540 0.731830 -0.609618
O49   O     O_R   0.648050 0.913460 0.268170 -0.630108
O50   O     O_3   0.207598 0.133805 0.286094 -0.594029
O51   O     O_3   0.787693 0.869065 0.713794 -0.573525
O52   O     O_3   0.868612 0.208877 0.285702 -0.574356
O53   O     O_3   0.130736 0.794886 0.715396 -0.584199
O54   O     O_3   0.796354 0.869596 0.283681 -0.597444
O55   O     O_3   0.209059 0.128014 0.716589 -0.572653
O56   O     O_3   0.130837 0.793840 0.284268 -0.583007
O57   O     O_R   0.561550 0.999980 0.680680 -0.634932
O58   O     O_3   0.870814 0.202652 0.717027 -0.586837
O59   O     O_3   0.707579 0.633795 0.786084 -0.594035
O60   O     O_3   0.287679 0.369052 0.213785 -0.573523
O61   O     O_3   0.368618 0.708874 0.785698 -0.574355
O62   O     O_3   0.630739 0.294879 0.215392 -0.584170
O63   O     O_3   0.296351 0.369596 0.783681 -0.597456
O64   O     O_3   0.709059 0.628015 0.216589 -0.572649
O65   O     O_3   0.630836 0.293860 0.784262 -0.583022
O66   O     O_3   0.370805 0.702661 0.217020 -0.586824
O67   O     O_3   0.222853 0.299507 0.308777 -0.596273
O68   O     O_R   0.999980 0.438450 0.319320 -0.614578
O69   O     O_3   0.777067 0.700475 0.690751 -0.598382
O70   O     O_3   0.700654 0.219859 0.309510 -0.583844
O71   O     O_3   0.296225 0.782618 0.691797 -0.595749
O72   O     O_3   0.784351 0.708011 0.308810 -0.592396
O73   O     O_3   0.217451 0.294601 0.690066 -0.601001
O74   O     O_3   0.295838 0.783702 0.309597 -0.580088
O75   O     O_3   0.707064 0.214169 0.691521 -0.595879
O76   O     O_3   0.722840 0.799485 0.808779 -0.596279
O77   O     O_3   0.277051 0.200456 0.190754 -0.598384
O78   O     O_3   0.200663 0.719851 0.809511 -0.583847
O79   O     O_R   0.000020 0.561550 0.680680 -0.615108
O80   O     O_3   0.796235 0.282608 0.191797 -0.595759
O81   O     O_3   0.284355 0.208009 0.808809 -0.592364
O82   O     O_3   0.717455 0.794601 0.190066 -0.601005
O83   O     O_3   0.795824 0.283718 0.809596 -0.580076
O84   O     O_3   0.207048 0.714185 0.191522 -0.595882
O85   O     O_3   0.533201 0.129464 0.129616 -0.544011
O86   O     O_3   0.457223 0.872917 0.869165 -0.565350
O87   O     O_3   0.874635 0.551183 0.130148 -0.559708
O88   O     O_3   0.130846 0.527260 0.870421 -0.534549
O89   O     O_3   0.463182 0.870823 0.130056 -0.546694
O90   O     O_R   0.561550 0.999980 0.319320 -0.613580
O91   O     O_3   0.540909 0.126904 0.869363 -0.564817
O92   O     O_3   0.124133 0.448880 0.129818 -0.560106
O93   O     O_3   0.869460 0.466367 0.869625 -0.538120
O94   O     O_3   0.033236 0.629458 0.629619 -0.544027
O95   O     O_3   0.957219 0.372926 0.369167 -0.565350
O96   O     O_3   0.374641 0.051197 0.630149 -0.559714
O97   O     O_3   0.630844 0.027269 0.370421 -0.534551
O98   O     O_3   0.963162 0.370832 0.630054 -0.546705
O99   O     O_3   0.040953 0.626897 0.369359 -0.564857
O100  O     O_3   0.624126 0.948862 0.629818 -0.560116
Zn1   Zn    Zn3+2 0.499980 0.087890 0.224030 1.020291
Zn2   Zn    Zn3+2 0.000020 0.412110 0.275970 1.015072
Zn3   Zn    Zn3+2 0.412110 0.999980 0.724030 1.016753
Zn4   Zn    Zn3+2 0.587890 0.000020 0.275970 1.013457
Zn5   Zn    Zn3+2 0.000020 0.412110 0.724030 1.018140
Zn6   Zn    Zn3+2 0.999980 0.587890 0.275970 1.015805
Zn7   Zn    Zn3+2 0.587890 0.000020 0.724030 1.017344
Zn8   Zn    Zn3+2 0.412110 0.999980 0.275970 1.013732
Zn9   Zn    Zn3+2 0.500020 0.912110 0.775970 1.015070
Zn10  Zn    Zn3+2 0.912110 0.499980 0.224030 1.016747
Zn11  Zn    Zn3+2 0.087890 0.500020 0.775970 1.013462
Zn12  Zn    Zn3+2 0.500020 0.912110 0.224030 1.018147
Zn13  Zn    Zn3+2 0.499980 0.087890 0.775970 1.015825
Zn14  Zn    Zn3+2 0.087890 0.500020 0.224030 1.017346
Zn15  Zn    Zn3+2 0.912110 0.499980 0.775970 1.013731
Zn16  Zn    Zn3+2 0.999980 0.587890 0.724030 1.020276

loop_
_geom_bond_atom_site_label_1
_geom_bond_atom_site_label_2
_ccdc_geom_bond_type
C73   H184  S    
C92   O70   S    
C126  C127  S    
C8    C26   A    
C75   H192  S    
C124  N9    A    
C195  C238  S    
C41   F25   S    
C183  O56   S    
C215  C233  S    
C122  H69   S    
C155  H152  S    
C70   H178  S    
C17   O94   S    
C15   C32   A    
C19   O96   S    
C84   H213  S    
C53   H175  S    
C100  H15   S    
C3    C224  S    
O19   Zn8   S    
C106  H29   S    
C191  O64   S    
C3    C189  S    
C135  N12   A    
C188  O61   S    
C193  C211  S    
C62   H159  S    
C143  C144  S    
C143  O95   S    
C190  O63   S    
C1    C68   S    
C67   H172  S    
C32   C45   A    
C36   F19   S    
O24   Zn14  S    
C143  H120  S    
C19   C37   A    
C165  C220  S    
C166  C212  S    
C71   H179  S    
C117  H54   S    
C201  F30   S    
C137  C138  S    
C16   O93   S    
C132  H93   S    
C3    O80   S    
C29   F13   S    
C177  C222  S    
C42   F26   S    
C234  O72   S    
C139  H108  S    
C72   O60   S    
C183  C236  S    
C204  C222  S    
C129  H83   S    
C153  H144  S    
C162  C217  S    
C108  H34   S    
C59   C60   S    
C25   O3    S    
C159  C214  S    
C149  H134  S    
C159  O37   A    
C72   H183  S    
C193  C218  S    
C74   H188  S    
C81   O64   S    
C115  H48   S    
O25   Zn10  S    
C188  C215  S    
C20   C68   A    
O43   Zn7   S    
O38   Zn9   S    
O14   Zn12  S    
C188  C205  S    
O42   Zn6   S    
C133  H94   S    
C130  H86   S    
C183  C201  S    
C145  O96   S    
O20   Zn7   S    
C140  H110  S    
C91   H228  S    
N3    N8    A    
C74   C75   S    
O47   Zn2   S    
O35   Zn15  S    
C89   H226  S    
C54   O51   S    
C160  C215  S    
C187  C204  S    
C150  H137  S    
C163  O19   A    
C128  O87   S    
C83   H210  S    
C76   H193  S    
C183  C228  S    
C166  O21   A    
C202  F31   S    
C172  O28   A    
C87   H221  S    
C26   F9    S    
C170  O48   A    
C191  C216  S    
O32   Zn12  S    
O13   Zn3   S    
C96   O72   S    
C189  C206  S    
C145  H127  S    
C120  H62   S    
C6    C227  S    
C185  O59   S    
C80   H203  S    
C98   H10   S    
C110  H40   S    
C63   H160  S    
C92   H233  S    
C148  C149  S    
C12   C230  A    
C157  N10   A    
C192  C210  S    
C154  C155  S    
C107  H31   S    
C151  H141  S    
C146  N15   A    
C179  O52   S    
C33   C47   A    
C75   H190  S    
C154  O100  S    
C192  O65   S    
C101  N8    A    
C2    C208  S    
C17   C34   A    
C127  H77   S    
C155  H150  S    
C88   H224  S    
C190  C217  S    
C156  H153  S    
O24   Zn6   S    
C152  O99   S    
C175  O79   A    
C156  O3    S    
O36   Zn15  S    
C187  O60   S    
C97   H8    S    
C72   C73   S    
C55   H230  S    
O27   Zn12  S    
C161  O39   A    
C139  C140  S    
C136  H102  S    
C182  C225  S    
C219  O9    A    
C21   C35   A    
C238  O76   S    
C23   C41   A    
C35   C175  S    
C6    O83   S    
C167  O22   A    
C156  C158  S    
C130  C131  S    
C28   F11   S    
C198  F27   S    
C7    C201  S    
C37   C50   A    
C147  H129  S    
C85   H216  S    
C59   H79   S    
C126  O86   S    
O49   Zn4   S    
C208  O12   A    
C2    C14   A    
C152  H142  S    
O15   Zn4   S    
C135  N1    A    
C180  C198  S    
N6    N16   A    
C129  H85   S    
O46   Zn8   S    
C126  H75   S    
C108  H36   S    
C98   C99   S    
C149  H136  S    
C33   F17   S    
C70   O59   S    
C171  O27   A    
C82   H207  S    
C209  F6    S    
C182  O55   S    
C102  H19   S    
C61   O54   S    
C211  F8    S    
C133  H96   S    
O13   Zn9   S    
C64   H162  S    
C54   H208  S    
C14   C31   A    
C128  C129  S    
C217  C235  S    
C115  H49   S    
C98   H9    S    
C207  C235  S    
C83   O65   S    
C85   C86   S    
C104  H23   S    
O48   Zn3   S    
C13   C197  S    
C29   C47   A    
C160  O38   A    
C12   O89   S    
C172  C227  S    
C78   C80   S    
C173  O42   A    
C136  H100  S    
C40   C49   A    
C84   H212  S    
C53   H164  S    
C95   H239  S    
C222  C239  S    
C239  O77   S    
C98   O73   S    
C202  C220  S    
C208  O8    A    
O34   Zn14  S    
O1    Zn4   S    
C23   O100  S    
C209  C234  S    
C240  O78   S    
C181  C234  S    
O13   Zn13  S    
O21   Zn2   S    
C55   H219  S    
C9    O86   S    
C162  O18   A    
C125  H73   S    
C107  C108  S    
C10   C13   A    
C11   O88   S    
C89   C91   S    
C81   H205  S    
O4    Zn6   S    
C121  H64   S    
C172  O41   A    
C171  O49   A    
C56   H24   S    
O24   Zn10  S    
C48   C90   S    
C96   C97   S    
C132  H92   S    
C62   H146  S    
N4    N7    A    
C207  F5    S    
C139  H109  S    
C115  O81   S    
C91   H231  S    
C125  H72   S    
C144  H123  S    
O23   Zn11  S    
C7    O84   S    
C77   H195  S    
C72   H182  S    
C4    C190  S    
C114  H44   S    
C5    C191  S    
C66   H169  S    
C114  H45   S    
C134  H98   S    
C38   C51   A    
C113  N3    A    
C87   O67   S    
C229  O67   S    
C119  H60   S    
C93   H235  S    
C58   H57   S    
O22   Zn16  S    
C15   O92   S    
C109  H38   S    
C54   H197  S    
C91   H229  S    
C58   H35   S    
C233  O71   S    
C196  C214  S    
O1    Zn8   S    
C83   C84   S    
C171  C226  S    
C195  F12   S    
C178  C221  S    
C67   O58   S    
C83   H211  S    
C187  C212  S    
C193  O66   S    
C141  O94   S    
C198  C240  S    
C191  C209  S    
C102  H17   S    
C118  H55   S    
C141  H116  S    
C63   O55   S    
O18   Zn5   S    
C211  C228  S    
C94   H238  S    
C80   H202  S    
O17   Zn6   S    
C96   H4    S    
C105  H26   S    
C167  C213  S    
C168  C223  S    
C69   H173  S    
C181  C199  S    
C88   H225  S    
C52   O50   S    
C52   C53   S    
C128  H82   S    
C138  H107  S    
C99   H14   S    
C203  F32   S    
C23   C57   A    
C54   C55   S    
C55   H2    S    
C170  O26   A    
C75   H191  S    
C158  H158  S    
C53   H186  S    
C69   H174  S    
C155  H151  S    
O9    Zn1   S    
C204  F2    S    
C174  O30   A    
C199  F28   S    
C114  H47   S    
C139  O93   S    
C84   H214  S    
C1    O90   A    
C123  O85   S    
C31   F15   S    
C179  C224  S    
C138  H105  S    
C106  H30   S    
C117  C118  S    
C212  C229  S    
C81   H204  S    
C18   C36   A    
C185  C213  S    
C77   H198  S    
C71   H181  S    
O26   Zn13  S    
O10   Zn11  S    
O5    Zn5   S    
C61   C62   S    
C82   H209  S    
C124  N13   A    
C148  H131  S    
C86   H217  S    
O41   Zn5   S    
C63   C64   S    
C190  C207  S    
C4    C200  S    
C117  H53   S    
C152  C153  S    
C150  C151  S    
O30   Zn9   S    
C205  F3    S    
C2    C9    A    
C160  O16   A    
C161  O17   A    
C87   C88   S    
C148  H132  S    
C237  O75   S    
C194  F1    S    
C149  H133  S    
O6    Zn15  S    
C216  C234  S    
C45   C157  S    
C214  C232  S    
C1    O46   A    
C167  O36   A    
C94   O71   S    
C60   H101  S    
C5    C199  S    
C19   C57   A    
C174  C221  S    
C223  C240  S    
C112  O57   A    
C96   H5    S    
C76   O62   S    
C201  C218  S    
C176  O44   A    
C20   O97   S    
C123  C125  S    
C169  C224  S    
C177  O50   S    
C104  H22   S    
C127  H78   S    
C95   H3    S    
C34   F18   S    
C24   C186  S    
C65   H167  S    
C76   H194  S    
C204  C229  S    
C137  H104  S    
C66   H168  S    
C122  H67   S    
C168  O23   A    
C142  H118  S    
O45   Zn16  S    
C79   N2    A    
C164  O4    A    
C90   N16   A    
C168  O45   A    
C145  H126  S    
C107  O77   S    
C74   O61   S    
C131  H88   S    
C30   F14   S    
C110  H41   S    
C70   C71   S    
C63   H161  S    
O1    Zn1   S    
C189  O62   S    
C176  O31   A    
C236  O74   S    
C99   H12   S    
O29   Zn14  S    
C140  H111  S    
C4    O81   S    
C200  C217  S    
C158  H156  S    
C71   H180  S    
C25   C68   A    
C127  H80   S    
C70   H177  S    
C198  C215  S    
C18   C46   A    
C156  H154  S    
C145  C147  S    
C103  H21   S    
C179  C196  S    
C200  F29   S    
C177  C194  S    
C100  O74   S    
C210  C237  S    
C182  C200  S    
C89   O69   S    
C150  H138  S    
C38   F21   S    
C111  H42   S    
C151  H140  S    
C206  C232  S    
C44   C124  S    
C64   H165  S    
C186  O6    A    
O7    Zn14  S    
C41   C50   A    
C166  O34   A    
C173  O29   A    
C132  O89   S    
C85   H215  S    
O39   Zn10  S    
C32   F16   S    
C92   H232  S    
C154  H149  S    
C121  C122  S    
C147  H128  S    
C176  C222  S    
C182  C235  S    
C164  O68   A    
C129  H84   S    
C22   C46   A    
C161  C216  S    
C112  O2    A    
C180  C233  S    
O79   Zn16  S    
C220  C237  S    
C181  O54   S    
C101  N4    A    
C184  C237  S    
C150  O98   S    
C9    C27   A    
C113  N7    A    
C123  H70   S    
C10   C28   A    
C90   N5    A    
C100  H16   S    
C133  H95   S    
C12   C30   A    
C78   O63   S    
C196  F23   S    
C206  F4    S    
C109  O78   S    
C21   O98   S    
C39   F22   S    
C25   C42   A    
C187  C239  S    
O35   Zn16  S    
C89   H227  S    
O1    Zn12  S    
C162  O40   A    
C151  H139  S    
C181  C226  S    
C51   C101  S    
C65   O56   S    
C105  C106  S    
C3    C196  S    
C221  C238  S    
C111  O80   S    
C50   C113  S    
O35   Zn11  S    
C185  C203  S    
C218  C236  S    
C178  C231  S    
C87   H222  S    
C56   O52   S    
C109  C110  S    
C137  O92   S    
C203  C231  S    
C103  H20   S    
C121  O84   S    
C169  O25   A    
C120  H61   S    
O13   Zn7   S    
C92   C93   S    
N11   N14   A    
C205  C223  S    
C110  H39   S    
C111  C114  S    
C97   H7    S    
C94   C95   S    
C144  H122  S    
C195  C213  S    
C107  H32   S    
C147  H130  S    
C49   C79   S    
C5    O82   S    
C170  C225  S    
C6    C192  S    
C103  C104  S    
C17   C35   A    
C184  C227  S    
C179  C232  S    
C88   H223  S    
C73   H185  S    
C74   H189  S    
C86   H220  S    
C36   C49   A    
C115  C116  S    
C153  H145  S    
C39   C48   A    
C180  O53   S    
C134  O91   S    
C40   F24   S    
C210  C227  S    
C86   H218  S    
C37   F20   S    
C116  H50   S    
C122  H66   S    
C81   C82   S    
C119  H59   S    
C178  O51   S    
C93   H234  S    
O28   Zn15  S    
C61   H135  S    
C197  O11   A    
C18   O95   S    
C165  O20   A    
C188  C240  S    
C163  O32   A    
C10   O87   S    
C142  H117  S    
C27   F10   S    
C130  H87   S    
C6    C202  S    
C121  H65   S    
N10   N15   A    
C66   H170  S    
C177  C229  S    
O11   Zn10  S    
O37   Zn1   S    
C117  O82   S    
C57   C112  S    
C184  O58   S    
C7    C228  S    
C11   C24   A    
C60   H90   S    
C5    C226  S    
C203  C221  S    
C180  C223  S    
O12   Zn13  S    
O40   Zn11  S    
O44   Zn8   S    
C219  O14   A    
C235  O73   S    
C131  H91   S    
C207  C225  S    
C175  O5    A    
C67   H171  S    
C104  H25   S    
O57   Zn7   S    
C60   H113  S    
C61   H124  S    
C56   H13   S    
C82   H206  S    
C194  C239  S    
C7    C193  S    
C165  O33   A    
C8    O85   S    
C231  O69   S    
C130  O88   S    
C42   C51   A    
C102  H18   S    
C105  O76   S    
C118  H56   S    
C85   O66   S    
C141  H115  S    
C119  O83   S    
C16   C24   A    
C46   C164  S    
C131  H89   S    
C8    C230  A    
C210  F7    S    
C137  H103  S    
C157  N14   A    
C27   C44   A    
C26   C43   A    
C56   C58   S    
C146  N11   A    
C28   C45   A    
C140  H114  S    
C184  C202  S    
C31   C44   A    
C169  O47   A    
C199  C216  S    
C197  O7    A    
C76   C77   S    
C189  C214  S    
C103  O75   S    
C79   N6    A    
C132  C133  S    
C78   H200  S    
C134  C136  S    
C136  H99   S    
C4    C225  S    
C120  H63   S    
O33   Zn13  S    
C95   H240  S    
C78   H199  S    
C67   C69   S    
O24   Zn2   S    
C58   H46   S    
C97   H6    S    
C16   C33   A    
C20   C38   A    
C111  H43   S    
C185  C238  S    
C21   C39   A    
C22   C40   A    
C125  H74   S    
C100  C102  S    
C144  H125  S    
C52   H112  S    
C59   H68   S    
C119  C120  S    
C43   C135  S    
C73   H187  S    
C118  H58   S    
C153  H147  S    
C30   C43   A    
C154  H148  S    
C14   O91   S    
C206  C224  S    
C13   C15   A    
C47   C146  S    
O8    Zn9   S    
N2    N5    A    
N1    N13   A    
C192  C220  S    
O16   Zn3   S    
C116  H52   S    
C22   O99   S    
C186  O10   A    
C77   H196  S    
O90   Zn4   S    
C59   O53   S    
C126  H76   S    
C143  H121  S    
C173  C228  S    
C213  C231  S    
C108  H33   S    
C134  H97   S    
C52   H1    S    
C123  H71   S    
C174  O43   A    
C178  C195  S    
C93   H236  S    
C211  C236  S    
C205  C233  S    
C152  H143  S    
C141  C142  S    
C116  H51   S    
O35   Zn5   S    
C69   H176  S    
C65   H166  S    
C148  O97   S    
C158  H155  S    
N9    N12   A    
C194  C212  S    
C142  H119  S    
C232  O70   S    
C163  C218  S    
O31   Zn1   S    
C34   C48   A    
C11   C29   A    
O68   Zn2   S    
C65   C66   S    
C209  C226  S    
C94   H237  S    
C109  H37   S    
C80   H201  S    
C64   H163  S    
C219  C230  S    
C105  H27   S    
C62   H157  S    
C106  H28   S    
O2    Zn3   S    
C159  O15   A    
C128  H81   S    
C138  H106  S    
C99   H11   S    
