data_mof_unit_56582.cif
_audit_creation_date              2013-03-05T15:52:00-0500
_audit_creation_method            fapswitch 2.2
_symmetry_space_group_name_H-M    P1
_symmetry_Int_Tables_number       1
_space_group_crystal_system       triclinic
_cell_length_a                    19.032694
_cell_length_b                    11.015646
_cell_length_c                    18.75735
_cell_angle_alpha                 90.313241
_cell_angle_beta                  90.757338
_cell_angle_gamma                 90.198188
_cell_volume                      3932.19076815

loop_
_atom_site_label
_atom_site_type_symbol
_atom_site_description
_atom_site_fract_x
_atom_site_fract_y
_atom_site_fract_z
_atom_type_partial_charge
O1    O     O_R   0.214300 0.709080 0.827500 -0.529224
O2    O     O_R   0.785700 0.709080 0.172500 -0.510623
O3    O     O_R   0.714300 0.209080 0.827500 -0.532853
O4    O     O_R   0.285700 0.209080 0.172500 -0.517096
O5    O     O_R   0.236190 0.958390 0.823150 -0.499965
O6    O     O_R   0.763810 0.958390 0.176850 -0.491932
O7    O     O_R   0.736190 0.458390 0.823150 -0.501144
O8    O     O_R   0.263810 0.458390 0.176850 -0.496289
C1    C     C_R   0.274440 0.037564 0.855439 0.613989
C2    C     C_R   0.726118 0.038202 0.144722 0.580273
C3    C     C_R   0.789477 0.499337 0.861010 0.609649
C4    C     C_R   0.226551 0.539607 0.145645 0.599410
O9    O     O_R   0.332090 0.075280 0.831290 -0.466225
O10   O     O_R   0.667910 0.075280 0.168710 -0.490326
O11   O     O_R   0.832090 0.575280 0.831290 -0.454861
O12   O     O_R   0.167910 0.575280 0.168710 -0.479196
O13   O     O_R   0.446280 0.918040 0.826620 -0.491511
O14   O     O_R   0.553720 0.918040 0.173380 -0.495586
O15   O     O_R   0.946280 0.418040 0.826620 -0.511186
O16   O     O_R   0.053720 0.418040 0.173380 -0.498799
C5    C     C_R   0.469247 0.821918 0.855595 0.589180
C6    C     C_R   0.561812 0.817314 0.137684 0.591113
C7    C     C_R   0.969916 0.321786 0.855479 0.581492
C8    C     C_R   0.063088 0.316817 0.138049 0.589158
O17   O     O_R   0.457080 0.716270 0.831760 -0.512326
O18   O     O_R   0.542920 0.716270 0.168240 -0.503962
O19   O     O_R   0.957080 0.216270 0.831760 -0.504057
O20   O     O_R   0.042920 0.216270 0.168240 -0.508603
O21   O     O_R   0.320980 0.624440 0.823040 -0.457140
O22   O     O_R   0.679020 0.624440 0.176960 -0.480075
O23   O     O_R   0.820980 0.124440 0.823040 -0.456560
O24   O     O_R   0.179020 0.124440 0.176960 -0.488136
C9    C     C_R   0.260470 0.635525 0.850630 0.609682
C10   C     C_R   0.741220 0.630991 0.150595 0.594418
C11   C     C_R   0.759692 0.133463 0.850084 0.600604
C12   C     C_R   0.239894 0.133590 0.149892 0.598819
O25   O     O_R   0.213880 0.710510 0.665560 -0.532128
O26   O     O_R   0.786120 0.710510 0.334440 -0.518327
O27   O     O_R   0.713880 0.210510 0.665560 -0.534599
O28   O     O_R   0.286120 0.210510 0.334440 -0.523934
O29   O     O_R   0.235800 0.959720 0.673040 -0.525730
O30   O     O_R   0.764200 0.959720 0.326960 -0.512108
O31   O     O_R   0.735800 0.459720 0.673040 -0.518805
O32   O     O_R   0.264200 0.459720 0.326960 -0.517645
C13   C     C_R   0.274351 0.037662 0.643019 0.582252
C14   C     C_R   0.729112 0.049195 0.352243 0.544727
C15   C     C_R   0.771105 0.545269 0.646457 0.567922
C16   C     C_R   0.228957 0.548522 0.352503 0.548819
O33   O     O_R   0.331670 0.076720 0.669350 -0.484231
O34   O     O_R   0.668330 0.076720 0.330650 -0.478952
O35   O     O_R   0.831670 0.576720 0.669350 -0.491031
O36   O     O_R   0.168330 0.576720 0.330650 -0.474979
O37   O     O_R   0.445900 0.919370 0.676500 -0.521508
O38   O     O_R   0.554100 0.919370 0.323500 -0.504007
O39   O     O_R   0.945900 0.419370 0.676500 -0.517054
O40   O     O_R   0.054100 0.419370 0.323500 -0.502870
C17   C     C_R   0.466435 0.823308 0.644940 0.535551
C18   C     C_R   0.528782 0.823357 0.352138 0.543216
C19   C     C_R   0.969003 0.323661 0.646485 0.538277
C20   C     C_R   0.029744 0.323178 0.352753 0.544582
O41   O     O_R   0.456660 0.717710 0.669820 -0.518887
O42   O     O_R   0.543340 0.717710 0.330180 -0.514795
O43   O     O_R   0.956660 0.217710 0.669820 -0.505961
O44   O     O_R   0.043340 0.217710 0.330180 -0.512011
O45   O     O_R   0.320590 0.625770 0.672930 -0.476190
O46   O     O_R   0.679410 0.625770 0.327070 -0.497735
O47   O     O_R   0.820590 0.125770 0.672930 -0.458963
O48   O     O_R   0.179410 0.125770 0.327070 -0.502318
C21   C     C_R   0.262288 0.644597 0.640866 0.591145
C22   C     C_R   0.739273 0.640409 0.357434 0.553172
C23   C     C_R   0.763381 0.148295 0.639814 0.583510
C24   C     C_R   0.241154 0.134785 0.354795 0.554726
Cr1   Cr    Cr6+3 0.229640 0.835880 0.747370 1.053612
Cr2   Cr    Cr6+3 0.770360 0.835880 0.252630 1.055944
Cr3   Cr    Cr6+3 0.729640 0.335880 0.747370 1.039126
Cr4   Cr    Cr6+3 0.270360 0.335880 0.252630 1.053547
Cr5   Cr    Cr6+3 0.387390 0.989720 0.750850 1.098244
Cr6   Cr    Cr6+3 0.612610 0.989720 0.249150 1.111559
Cr7   Cr    Cr6+3 0.887390 0.489720 0.750850 1.099606
Cr8   Cr    Cr6+3 0.112610 0.489720 0.249150 1.115594
Cr9   Cr    Cr6+3 0.385770 0.677220 0.749340 1.112640
Cr10  Cr    Cr6+3 0.614230 0.677220 0.250660 1.104852
Cr11  Cr    Cr6+3 0.885770 0.177220 0.749340 1.131752
Cr12  Cr    Cr6+3 0.114230 0.177220 0.250660 1.095123
O49   O     O_3   0.334270 0.834280 0.749190 -0.286803
O50   O     O_3   0.665730 0.834280 0.250810 -0.298484
O51   O     O_3   0.834270 0.334280 0.749190 -0.302855
O52   O     O_3   0.165730 0.334280 0.250810 -0.300942
C25   C     C_3   0.498096 0.932388 0.028469 -0.134709
C26   C     C_3   0.545683 0.925789 0.961037 -0.148515
C27   C     C_3   0.993426 0.421147 0.031280 -0.135318
C28   C     C_3   0.040409 0.432559 0.963841 -0.163395
C29   C     C_3   0.449448 0.836457 0.994338 0.208228
C30   C     C_3   0.586493 0.820423 0.995380 0.188926
C31   C     C_3   0.952709 0.317690 0.994735 0.213085
C32   C     C_3   0.089514 0.335112 0.995274 0.195904
H1    H     H_    0.480916 0.016427 0.056013 0.152574
H2    H     H_    0.566154 0.002678 0.929874 0.136975
H3    H     H_    0.970023 0.497434 0.061548 0.145410
H4    H     H_    0.054342 0.517841 0.936571 0.135512
C33   C     C_3   0.495599 0.830342 0.928511 0.009739
C34   C     C_3   0.540594 0.826800 0.061911 0.005307
C35   C     C_3   0.998073 0.329171 0.928250 0.008196
C36   C     C_3   0.043898 0.324164 0.061707 0.010548
C37   C     C_3   0.537077 0.725823 0.961837 -0.165858
C38   C     C_3   0.490284 0.732650 0.028302 -0.144541
C39   C     C_3   0.048233 0.232775 0.958316 -0.151228
C40   C     C_3   0.001794 0.221441 0.025056 -0.148251
H5    H     H_    0.547269 0.642080 0.931622 0.139616
H6    H     H_    0.468809 0.655278 0.057524 0.151119
H7    H     H_    0.070653 0.158603 0.925931 0.142111
H8    H     H_    0.987078 0.135021 0.050111 0.131399
C41   C     C_R   0.239157 0.567649 0.071608 0.123287
C42   C     C_R   0.780174 0.516096 0.938271 0.087521
C43   C     C_R   0.737421 0.060633 0.069142 0.078945
C44   C     C_R   0.261644 0.067293 0.929546 0.107031
C45   C     C_R   0.298009 0.528614 0.035003 0.015675
C46   C     C_R   0.724978 0.461868 0.975563 0.035012
C47   C     C_R   0.788503 0.997980 0.030842 0.066437
C48   C     C_R   0.197782 0.045983 0.962821 -0.022357
C49   C     C_R   0.303824 0.541494 0.963433 0.090908
C50   C     C_R   0.714268 0.488445 0.047202 0.082266
C51   C     C_R   0.793708 0.009170 0.957951 0.123694
C52   C     C_R   0.190569 0.063843 0.035214 0.059944
C53   C     C_R   0.187328 0.620346 0.956214 -0.134602
C54   C     C_R   0.824166 0.595823 0.051591 -0.088825
C55   C     C_R   0.685904 0.120711 0.955530 -0.139545
C56   C     C_R   0.314190 0.109734 0.045749 -0.079450
C57   C     C_R   0.182299 0.611059 0.029747 -0.061310
C58   C     C_R   0.833396 0.573407 0.978966 -0.065471
C59   C     C_R   0.682748 0.114555 0.029253 -0.103015
C60   C     C_R   0.319535 0.103463 0.972325 -0.032265
C61   C     C_3   0.365466 0.462161 0.043011 -0.205714
C62   C     C_3   0.648502 0.459846 0.958988 -0.238884
C63   C     C_3   0.864959 0.980201 0.042035 -0.243384
C64   C     C_3   0.147877 0.941058 0.961402 -0.248619
C65   C     C_3   0.375901 0.487951 0.962821 0.106963
C66   C     C_3   0.636334 0.491390 0.037318 0.086685
C67   C     C_3   0.872032 0.995029 0.961086 0.088767
C68   C     C_3   0.133741 0.970129 0.039530 0.085419
C69   C     C_R   0.249944 0.590346 0.921659 0.103289
C70   C     C_R   0.760355 0.565193 0.084964 0.059856
C71   C     C_R   0.745417 0.079274 0.919189 0.070462
C72   C     C_R   0.249639 0.087431 0.078554 0.129065
H9    H     H_    0.142752 0.656445 0.926977 0.128107
H10   H     H_    0.864410 0.648159 0.079301 0.139679
H11   H     H_    0.643776 0.167126 0.927900 0.137602
H12   H     H_    0.360531 0.134802 0.076692 0.132883
H13   H     H_    0.132128 0.633228 0.052789 0.182354
H14   H     H_    0.881112 0.605397 0.954339 0.173824
H15   H     H_    0.636757 0.151897 0.054413 0.197773
H16   H     H_    0.371017 0.117616 0.950045 0.186880
H17   H     H_    0.876798 0.887424 0.061826 0.177503
H18   H     H_    0.176448 0.855317 0.952764 0.191408
H19   H     H_    0.356339 0.364893 0.055329 0.192579
H20   H     H_    0.629573 0.368513 0.942855 0.172320
H21   H     H_    0.402275 0.507641 0.080443 0.133985
H22   H     H_    0.635864 0.531763 0.920190 0.140521
H23   H     H_    0.887221 0.054813 0.075000 0.141081
H24   H     H_    0.101719 0.955384 0.925701 0.142624
H25   H     H_    0.417357 0.555489 0.950798 0.128174
H26   H     H_    0.613213 0.581693 0.047302 0.138315
H27   H     H_    0.902202 0.076129 0.944707 0.160186
H28   H     H_    0.081391 0.010969 0.047749 0.125214
C73   C     C_R   0.492901 0.829661 0.420185 0.018654
C74   C     C_R   0.480988 0.830360 0.569265 0.020801
C75   C     C_R   0.998969 0.327857 0.423246 0.017583
C76   C     C_R   0.990024 0.331094 0.572647 0.026720
C77   C     C_R   0.481363 0.721885 0.457609 0.004852
C78   C     C_R   0.476568 0.722933 0.530276 0.011095
C79   C     C_R   0.997181 0.220106 0.462539 0.016932
C80   C     C_R   0.992931 0.222322 0.535343 0.022252
C81   C     C_R   0.478416 0.940702 0.531440 -0.164557
C82   C     C_R   0.483699 0.940281 0.456699 -0.167210
C83   C     C_R   0.984664 0.439771 0.533821 -0.166176
C84   C     C_R   0.987252 0.437990 0.459062 -0.175528
C85   C     C_3   0.520672 0.604162 0.459114 -0.225247
C86   C     C_3   0.515942 0.607318 0.539447 -0.258635
C87   C     C_3   0.049534 0.118922 0.465327 -0.247025
C88   C     C_3   0.044414 0.122347 0.545359 -0.269666
H29   H     H_    0.474648 0.026474 0.559423 0.133068
H30   H     H_    0.486101 0.025729 0.428644 0.152568
H31   H     H_    0.980899 0.525438 0.561385 0.138479
H32   H     H_    0.985740 0.522674 0.430140 0.154641
H33   H     H_    0.101768 0.148837 0.446589 0.168878
H34   H     H_    0.020238 0.039586 0.567759 0.212323
H35   H     H_    0.575275 0.613330 0.440509 0.179990
H36   H     H_    0.483502 0.532599 0.561167 0.166243
H37   H     H_    0.489688 0.529529 0.433860 0.193232
H38   H     H_    0.567499 0.621287 0.566837 0.150455
H39   H     H_    0.028677 0.033844 0.440883 0.207644
H40   H     H_    0.093701 0.152929 0.572605 0.161706
C89   C     C_R   0.250393 0.605889 0.418219 0.010894
C90   C     C_R   0.747123 0.590160 0.578916 0.002774
C91   C     C_R   0.750935 0.109485 0.417138 0.003982
C92   C     C_R   0.265418 0.051991 0.567670 0.057820
C93   C     C_R   0.200125 0.672907 0.455664 0.041944
C94   C     C_R   0.782035 0.686368 0.547449 0.041883
C95   C     C_R   0.700549 0.175889 0.454819 0.042697
C96   C     C_R   0.320715 0.104408 0.531318 0.017090
C97   C     C_R   0.204826 0.680298 0.528117 -0.044684
C98   C     C_R   0.779521 0.700290 0.475042 -0.030798
C99   C     C_R   0.705756 0.183638 0.527140 -0.040263
C100  C     C_R   0.317478 0.117309 0.459260 -0.015873
C101  C     C_R   0.317245 0.581373 0.527181 -0.099935
C102  C     C_R   0.701352 0.528099 0.463310 -0.170588
C103  C     C_R   0.820541 0.093983 0.525086 -0.125404
C104  C     C_R   0.210122 0.999980 0.454567 -0.158637
C105  C     C_R   0.312791 0.571495 0.453107 -0.160659
C106  C     C_R   0.701274 0.517537 0.537061 -0.171051
C107  C     C_R   0.815002 0.081690 0.450982 -0.167910
C108  C     C_R   0.212920 0.989393 0.528661 -0.163090
C109  C     C_3   0.121330 0.656710 0.459761 0.108706
C110  C     C_3   0.857985 0.722060 0.551386 0.117244
C111  C     C_3   0.621770 0.160996 0.459400 0.108721
C112  C     C_3   0.356358 0.223810 0.543629 0.088269
C113  C     C_3   0.128020 0.668060 0.539866 -0.235584
C114  C     C_3   0.854256 0.742444 0.471850 -0.205150
C115  C     C_3   0.629162 0.170560 0.539671 -0.243783
C116  C     C_3   0.351881 0.240695 0.463738 -0.233346
C117  C     C_R   0.259398 0.625045 0.565259 0.060393
C118  C     C_R   0.744550 0.614817 0.431882 0.007756
C119  C     C_R   0.761559 0.131716 0.563873 0.027346
C120  C     C_R   0.258456 0.075865 0.420811 0.028535
H41   H     H_    0.363469 0.548370 0.554616 0.166093
H42   H     H_    0.669508 0.467118 0.430990 0.193525
H43   H     H_    0.868961 0.068974 0.551750 0.200814
H44   H     H_    0.166014 0.961715 0.425403 0.191726
H45   H     H_    0.354218 0.525567 0.424713 0.130898
H46   H     H_    0.671310 0.444315 0.560103 0.158135
H47   H     H_    0.857539 0.040783 0.421710 0.142903
H48   H     H_    0.172448 0.938315 0.555268 0.148140
H49   H     H_    0.103160 0.565982 0.441737 0.131853
H50   H     H_    0.893653 0.647639 0.566351 0.128679
H51   H     H_    0.602524 0.071172 0.440829 0.124796
H52   H     H_    0.410926 0.215420 0.564898 0.130050
H53   H     H_    0.105155 0.752032 0.562883 0.185528
H54   H     H_    0.858506 0.838828 0.456038 0.172684
H55   H     H_    0.606651 0.253688 0.564001 0.178342
H56   H     H_    0.316494 0.315644 0.447240 0.188269
H57   H     H_    0.114374 0.583042 0.568299 0.133784
H58   H     H_    0.888000 0.679169 0.441265 0.148180
H59   H     H_    0.615958 0.084622 0.567405 0.117705
H60   H     H_    0.403867 0.240969 0.437727 0.170264
N1    N     N_R   0.373398 0.838620 0.996260 0.042036
O53   O     O_R   0.336545 0.827090 0.937908 -0.395290
O54   O     O_R   0.342584 0.832464 0.057463 -0.321971
N2    N     N_R   0.662001 0.807370 0.993076 0.040081
O55   O     O_R   0.697943 0.801714 0.051971 -0.410375
O56   O     O_R   0.692858 0.789934 0.932462 -0.334009
N3    N     N_R   0.877209 0.304028 0.998228 0.032391
O57   O     O_R   0.841040 0.285083 0.940338 -0.424488
O58   O     O_R   0.846857 0.296704 0.059761 -0.368512
N4    N     N_R   0.165269 0.338110 0.992581 0.041362
O59   O     O_R   0.201750 0.325734 0.050803 -0.423594
O60   O     O_R   0.196102 0.332149 0.931265 -0.333114
N5    N     N_R   0.082102 0.756633 0.427297 0.054728
O61   O     O_R   0.096352 0.790318 0.362700 -0.313918
O62   O     O_R   0.022855 0.790338 0.454838 -0.390472
N6    N     N_R   0.870769 0.832135 0.593163 0.077234
O63   O     O_R   0.824466 0.869826 0.638615 -0.313551
O64   O     O_R   0.934364 0.875093 0.597318 -0.364817
N7    N     N_R   0.583826 0.262977 0.427631 0.060109
O65   O     O_R   0.594515 0.291733 0.361476 -0.308306
O66   O     O_R   0.530387 0.309780 0.460221 -0.438657
N8    N     N_R   0.313061 0.309082 0.583941 0.070697
O67   O     O_R   0.247784 0.328794 0.565837 -0.375626
O68   O     O_R   0.338063 0.356975 0.642543 -0.314750
N9    N     N_R   0.381590 0.377306 0.920026 0.080442
O69   O     O_R   0.439616 0.315462 0.923158 -0.344752
O70   O     O_R   0.335678 0.352287 0.870010 -0.273352
N10   N     N_R   0.600734 0.394391 0.075710 0.063824
O71   O     O_R   0.537415 0.362559 0.056326 -0.347550
O72   O     O_R   0.625830 0.356326 0.136459 -0.305133
N11   N     N_R   0.895898 0.883706 0.926376 0.072756
O73   O     O_R   0.958512 0.842722 0.940662 -0.381472
O74   O     O_R   0.859708 0.835416 0.874064 -0.266868
N12   N     N_R   0.147915 0.871256 0.089342 0.069727
O75   O     O_R   0.096262 0.827686 0.126150 -0.329751
O76   O     O_R   0.211764 0.840526 0.106460 -0.300191

loop_
_geom_bond_atom_site_label_1
_geom_bond_atom_site_label_2
_geom_bond_distance
_ccdc_geom_bond_type
C76   C83   1.407954 A    
O4    C12   1.269940 A    
C61   C65   1.547526 S    
O39   C19   1.274806 A    
C59   H15   1.081405 S    
C64   C68   1.525919 S    
C45   C61   1.486408 S    
Cr7   O51   1.985349 S    
C66   N10   1.461413 S    
C63   C67   1.535666 S    
C78   C86   1.489553 S    
O25   C21   1.266029 A    
C108  H48   1.081309 S    
C24   C120  1.436139 S    
O21   C9    1.274809 A    
C84   H32   1.081970 S    
C115  H55   1.110710 S    
C18   C73   1.456971 S    
C1    O9    1.262445 A    
O44   Cr12  2.072262 S    
N4    O60   1.299522 A    
C3    O11   1.296440 A    
C7    C35   1.461562 S    
C4    O12   1.265381 A    
N10   O71   1.300610 A    
C102  H42   1.081250 S    
C86   H36   1.109715 S    
O2    C10   1.267809 A    
N1    O53   1.297565 A    
O17   Cr9   2.085752 S    
C42   C58   1.406123 A    
C109  H49   1.106160 S    
N2    O56   1.300201 A    
C73   C77   1.400664 A    
C63   H23   1.105669 S    
O16   Cr8   1.959382 S    
C68   N12   1.462358 S    
N7    O65   1.300780 A    
C23   C119  1.435071 S    
C29   C33   1.526051 S    
C65   N9    1.460864 S    
C75   C79   1.401131 A    
C17   C74   1.452265 S    
O13   C5    1.269184 A    
O28   Cr4   2.089473 S    
O12   Cr8   2.079268 S    
O22   Cr10  1.952164 S    
O15   C7    1.273882 A    
O46   Cr10  1.970056 S    
C83   C84   1.403817 A    
O14   Cr6   1.959382 S    
C66   H26   1.105185 S    
C55   C71   1.405916 A    
C56   C72   1.402840 A    
C112  N8    1.465350 S    
C29   N1    1.448633 S    
C94   C98   1.367858 A    
C32   C36   1.533165 S    
C2    O10   1.269211 A    
C60   H16   1.081436 S    
C114  H54   1.106911 S    
C94   C110  1.497510 S    
O31   Cr3   1.960264 S    
C83   H31   1.076614 S    
N7    O66   1.300226 A    
C1    C44   1.450281 S    
Cr12  O52   1.985500 S    
C17   O41   1.269749 A    
C47   C51   1.378300 A    
C19   O43   1.270965 A    
C20   O44   1.263169 A    
C88   H34   1.107156 S    
C12   C72   1.443341 S    
C32   N4    1.443644 S    
Cr8   O52   1.991665 S    
C65   H25   1.108766 S    
O46   C22   1.276353 A    
C21   C117  1.433595 S    
C55   C59   1.386958 A    
C31   C40   1.523079 S    
C92   C108  1.406989 A    
C53   C57   1.388172 A    
C16   O36   1.259891 A    
C87   H39   1.110881 S    
C30   C34   1.534191 S    
O27   C23   1.266254 A    
C116  H56   1.110012 S    
C35   C39   1.535040 S    
N5    O62   1.300938 A    
O31   C15   1.264064 A    
O32   C16   1.282307 A    
C103  C119  1.408472 A    
C26   C30   1.538382 S    
C16   C89   1.435848 S    
C97   C117  1.387263 A    
C82   H30   1.082015 S    
C57   H13   1.081483 S    
O39   Cr7   1.954686 S    
C95   C111  1.511387 S    
O24   C12   1.274992 A    
C51   C67   1.499784 S    
O8    Cr4   1.968422 S    
N5    O61   1.300875 A    
C46   C50   1.391504 A    
C49   C65   1.495272 S    
O32   Cr4   1.950193 S    
O11   Cr7   2.075086 S    
C53   C69   1.403710 A    
C58   H14   1.083041 S    
C39   C40   1.547304 S    
O27   Cr3   2.076975 S    
O3    Cr3   2.080160 S    
C46   C62   1.484423 S    
C96   C100  1.360440 A    
C13   C92   1.430960 S    
Cr5   O49   1.985349 S    
C103  C107  1.398404 A    
C67   N11   1.461837 S    
C77   C85   1.499583 S    
C104  C108  1.395668 A    
C31   C35   1.531699 S    
C91   C95   1.404061 A    
C20   C75   1.453983 S    
O22   C10   1.290939 A    
C110  C114  1.510678 S    
C27   C28   1.564106 S    
C9    C69   1.440996 S    
C73   C82   1.407183 A    
C44   C48   1.393452 A    
O5    C1    1.278919 A    
C29   C38   1.522671 S    
C90   C106  1.409972 A    
C102  C106  1.388913 A    
C44   C60   1.409524 A    
O3    C11   1.272338 A    
O8    C4    1.282589 A    
Cr1   O49   1.991375 S    
N8    O68   1.300440 A    
C41   C45   1.389759 A    
Cr3   O51   1.991375 S    
C62   H22   1.103664 S    
C74   C78   1.389437 A    
C43   C47   1.398332 A    
C113  H53   1.111220 S    
O26   Cr2   2.089473 S    
C37   H5    1.099203 S    
O29   C13   1.266678 A    
O28   C24   1.257466 A    
O14   C6    1.303442 A    
C39   H7    1.105673 S    
C8    O20   1.305558 A    
N6    O63   1.301694 A    
C104  C120  1.400642 A    
O40   Cr8   1.957675 S    
C98   C114  1.496810 S    
C67   H27   1.107404 S    
O41   Cr9   2.073762 S    
C104  H44   1.079139 S    
C90   C94   1.387592 A    
C102  C118  1.396259 A    
C96   C112  1.493280 S    
O33   Cr5   2.088137 S    
C61   H21   1.102491 S    
C114  H58   1.111698 S    
O5    Cr1   1.957143 S    
O35   Cr7   2.088137 S    
O29   Cr1   1.960264 S    
C64   H24   1.109807 S    
N10   O72   1.301777 A    
N12   O75   1.300703 A    
C27   H3    1.109490 S    
C30   N2    1.445981 S    
Cr9   O49   1.991426 S    
C18   O42   1.265220 A    
Cr11  O51   1.991426 S    
O26   C22   1.259514 A    
C30   C37   1.528641 S    
O20   Cr12  2.091168 S    
N11   O73   1.300922 A    
N3    O57   1.293559 A    
O47   Cr11  1.963066 S    
C107  H47   1.082384 S    
C100  C116  1.508068 S    
C38   H6    1.096614 S    
C86   H38   1.111426 S    
C54   C58   1.396613 A    
O30   C14   1.284587 A    
C5    O17   1.263964 A    
C62   H20   1.106741 S    
C101  H41   1.078540 S    
C80   C88   1.487661 S    
O42   Cr10  2.072262 S    
C81   H29   1.081390 S    
O18   Cr10  2.091168 S    
N9    O69   1.300449 A    
C95   C99   1.361064 A    
C110  H50   1.101374 S    
O34   Cr6   2.077068 S    
O6    Cr2   1.968422 S    
O24   Cr12  1.952164 S    
O30   Cr2   1.950193 S    
O48   Cr12  1.970056 S    
C111  N7    1.462944 S    
C50   C66   1.492883 S    
C31   N3    1.446701 S    
O37   C17   1.274785 A    
C56   H12   1.083551 S    
C15   O35   1.271091 A    
Cr10  O50   1.985500 S    
C54   C70   1.414304 A    
C47   C63   1.481312 S    
C40   H8    1.100944 S    
O43   Cr11  2.073762 S    
C48   C64   1.493388 S    
O37   Cr5   1.954686 S    
O21   Cr9   1.954124 S    
N4    O59   1.294447 A    
C111  C115  1.513450 S    
C64   H18   1.103738 S    
O45   Cr9   1.963066 S    
C13   O33   1.264656 A    
O13   Cr5   1.968747 S    
C106  H46   1.081559 S    
C99   C119  1.385291 A    
O15   Cr7   1.968747 S    
C103  H43   1.080004 S    
C32   C39   1.529585 S    
N1    O54   1.298025 A    
C112  H52   1.111957 S    
O23   C11   1.282091 A    
C68   H28   1.106932 S    
C36   C40   1.538139 S    
C93   C109  1.512670 S    
N2    O55   1.293568 A    
C10   C70   1.475615 S    
C74   C81   1.411419 A    
C109  N5    1.463151 S    
C52   C68   1.495849 S    
C63   H17   1.112020 S    
O6    C2    1.284326 A    
C87   H33   1.108477 S    
C37   C38   1.543329 S    
C85   H35   1.105104 S    
O1    Cr1   2.080160 S    
C79   C87   1.498292 S    
O19   Cr11  2.085752 S    
O45   C21   1.273322 A    
C22   C118  1.428445 S    
O47   C23   1.272273 A    
C113  H57   1.111939 S    
C87   C88   1.505903 S    
O40   C20   1.283915 A    
C76   C80   1.385874 A    
C85   C86   1.510931 S    
C6    O18   1.306275 A    
C53   H9    1.082159 S    
C25   C26   1.566899 S    
O36   Cr8   2.077068 S    
C19   C76   1.449373 S    
C11   C71   1.458414 S    
O38   Cr6   1.957675 S    
C79   C80   1.369152 A    
C25   C34   1.549722 S    
C77   C78   1.367280 A    
C98   C118  1.399274 A    
C15   C90   1.432133 S    
C28   C32   1.540358 S    
C27   C36   1.545678 S    
C92   C96   1.387482 A    
C54   H10   1.082756 S    
O1    C9    1.271066 A    
C14   C91   1.439161 S    
C43   C59   1.408535 A    
C81   C82   1.406857 A    
O7    C3    1.307917 A    
C116  H60   1.108967 S    
C41   C57   1.414749 A    
N11   O74   1.301592 A    
N3    O58   1.300260 A    
O23   Cr11  1.954124 S    
C3    C42   1.473003 S    
C45   C49   1.356659 A    
C28   C35   1.537241 S    
O16   C8    1.307942 A    
C93   C97   1.362760 A    
C7    O19   1.264169 A    
Cr4   O52   1.991249 S    
O2    Cr2   2.070458 S    
O48   C24   1.282101 A    
C5    C33   1.452911 S    
Cr6   O50   1.991665 S    
C100  C120  1.400693 A    
C25   C29   1.534293 S    
C110  N6    1.458110 S    
C56   C60   1.383698 A    
C33   C37   1.529931 S    
O9    Cr5   2.075086 S    
C85   H37   1.110428 S    
C111  H51   1.106761 S    
N6    O64   1.299293 A    
C88   H40   1.112607 S    
C109  C113  1.510725 S    
O7    Cr3   1.957143 S    
C27   C31   1.529895 S    
C25   H1    1.110043 S    
C8    C36   1.475853 S    
C26   C33   1.535256 S    
C91   C107  1.402792 A    
C89   C105  1.402660 A    
C101  C105  1.394527 A    
C49   C69   1.393687 A    
C105  H45   1.082701 S    
Cr2   O50   1.991249 S    
C42   C46   1.403349 A    
N12   O76   1.299294 A    
C50   C70   1.399210 A    
C28   H4    1.105275 S    
C4    C41   1.447260 S    
O38   C18   1.284091 A    
O25   Cr1   2.076975 S    
C61   H19   1.110900 S    
C62   C66   1.528745 S    
C14   O34   1.259226 A    
C6    C34   1.476762 S    
C99   C115  1.486313 S    
N9    O70   1.301356 A    
C97   C113  1.486998 S    
C89   C93   1.403798 A    
C101  C117  1.405144 A    
C115  H59   1.112265 S    
C34   C38   1.536206 S    
O10   Cr6   2.079268 S    
O4    Cr4   2.070458 S    
N8    O67   1.302889 A    
C51   C71   1.401122 A    
C52   C72   1.401387 A    
C112  C116  1.512371 S    
C26   H2    1.104550 S    
C2    C43   1.459004 S    
C48   C52   1.379712 A    
C55   H11   1.080586 S    
C75   C84   1.403510 A    
