data_mof_unit_32308.cif
_audit_creation_date              2012-12-10T19:04:14-0500
_audit_creation_method            fapswitch 2.2
_symmetry_space_group_name_H-M    P1
_symmetry_Int_Tables_number       1
_space_group_crystal_system       triclinic
_cell_length_a                    10.676779
_cell_length_b                    10.838504
_cell_length_c                    9.649159
_cell_angle_alpha                 91.569537
_cell_angle_beta                  91.461713
_cell_angle_gamma                 92.524289
_cell_volume                      1114.70258865

loop_
_atom_site_label
_atom_site_type_symbol
_atom_type_description
_atom_site_fract_x
_atom_site_fract_y
_atom_site_fract_z
_atom_type_partial_charge
C1    C     C_R   0.497330 0.262590 0.498699 0.801549
C2    C     C_3   0.959623 0.600493 0.436105 -0.253704
C3    C     C_3   0.034610 0.498439 0.366428 0.042698
C4    C     C_3   0.123620 0.499382 0.493606 -0.128076
C5    C     C_R   0.494744 0.068044 0.623435 0.084560
C6    C     C_R   0.485112 0.128924 0.498435 -0.098941
C7    C     C_R   0.458560 0.058829 0.376234 -0.176977
C8    C     C_R   0.455304 0.930050 0.378512 -0.168692
C9    C     C_R   0.484081 0.870168 0.502200 -0.095874
C10   C     C_R   0.496280 0.940871 0.625164 0.106040
C11   C     C_3   0.596583 0.946435 0.736759 -0.072725
C12   C     C_R   0.259975 0.499285 0.498002 0.833532
C13   C     C_3   0.592368 0.086377 0.736358 -0.443532
C14   C     C_R   0.546002 0.600574 0.077480 0.191178
C15   C     C_R   0.439579 0.406877 0.066495 0.037514
C16   C     C_R   0.441620 0.407878 0.918997 -0.069016
C17   C     C_R   0.546271 0.600101 0.930942 0.221412
C18   C     C_3   0.675580 0.656771 0.928693 -0.557862
C19   C     C_3   0.675046 0.661056 0.087068 0.047245
C20   C     C_R   0.497235 0.737346 0.501219 0.837428
C21   C     C_R   0.740516 0.499555 0.501512 0.834887
C22   C     C_3   0.041897 0.397515 0.559179 -0.210730
C23   C     C_3   0.950873 0.396677 0.430981 -0.168522
C24   C     C_3   0.877747 0.498640 0.503371 -0.099800
C25   C     C_3   0.967555 0.499162 0.630106 -0.002484
C26   C     C_3   0.049918 0.600117 0.563977 -0.054189
Cu1   Cu    Cu3+1 0.499990 0.499980 0.640670 0.998972
Cu2   Cu    Cu3+1 0.500010 0.500020 0.359330 1.023051
H1    H     H_    0.908143 0.313169 0.376108 0.172336
H2    H     H_    0.553366 0.126153 0.832625 0.230403
H3    H     H_    0.679494 0.134976 0.701494 0.208003
H4    H     H_    0.394644 0.333950 0.857283 0.179369
H5    H     H_    0.740656 0.592006 0.882837 0.236062
H6    H     H_    0.679800 0.747823 0.881568 0.220375
H7    H     H_    0.077603 0.314589 0.609475 0.172618
H8    H     H_    0.925439 0.684276 0.386743 0.223285
H9    H     H_    0.446128 0.102841 0.278622 0.200279
H10   H     H_    0.436440 0.878094 0.282346 0.204571
H11   H     H_    0.563976 0.906017 0.834518 0.210897
N1    N     N_R   0.500800 0.500930 0.147930 -0.223887
N2    N     N_R   0.500800 0.500890 0.852020 -0.187135
O1    O     O_R   0.500000 0.319640 0.618810 -0.589932
O2    O     O_R   0.500010 0.319680 0.381230 -0.577125
O3    O     O_R   0.316850 0.499950 0.618770 -0.560187
O4    O     O_R   0.316860 0.499990 0.381190 -0.528199
O5    O     O_R   0.499990 0.680320 0.618770 -0.564103
O6    O     O_R   0.500000 0.680360 0.381190 -0.584463
O7    O     O_R   0.683140 0.500010 0.618810 -0.577262
O8    O     O_R   0.683150 0.500050 0.381230 -0.545336
N3    N     N_3   0.715762 0.900456 0.689038 -0.565394
H12   H     H_    0.741218 0.942661 0.596955 0.247238
H13   H     H_    0.785152 0.926440 0.763903 0.257868
C27   C     C_2   0.366994 0.300590 0.122224 0.857655
O9    O     O_2   0.298617 0.313652 0.220094 -0.549863
O10   O     O_R   0.366666 0.185999 0.051519 -0.805502
H14   H     H_    0.304876 0.122843 0.090000 0.340740
N4    N     N_3   0.768218 0.583226 0.149809 -0.526981
H15   H     H_    0.855982 0.629084 0.145914 0.220781
H16   H     H_    0.771795 0.498899 0.094825 0.249614
C28   C     C_2   0.676427 0.789708 0.152833 0.895366
O11   O     O_2   0.614282 0.869514 0.100954 -0.647318
O12   O     O_R   0.747871 0.817074 0.274099 -0.759779
H17   H     H_    0.740195 0.905488 0.308814 0.330774
C29   C     C_2   0.938962 0.493983 0.779911 0.851234
O13   O     O_2   0.879431 0.405025 0.823724 -0.584158
O14   O     O_R   0.984428 0.589509 0.869507 -0.748926
H18   H     H_    0.965397 0.572883 0.969007 0.336259
C30   C     C_2   0.107816 0.715567 0.633193 0.897416
O15   O     O_2   0.078316 0.816692 0.593622 -0.592833
O16   O     O_R   0.195958 0.706863 0.741633 -0.716335
H19   H     H_    0.229353 0.790737 0.778577 0.333059
C31   C     C_2   0.075999 0.497670 0.219487 0.867855
O17   O     O_2   0.045247 0.410371 0.141279 -0.570908
O18   O     O_R   0.151633 0.596020 0.173593 -0.749049
H20   H     H_    0.179296 0.582480 0.074820 0.351676

loop_
_geom_bond_atom_site_label_1
_geom_bond_atom_site_label_2
_ccdc_geom_bond_type
Cu1   O7    S    
O10   H14   S    
Cu2   O6    S    
C3    C23   S    
C21   O8    A    
C7    C8    A    
C27   O9    D    
C19   N4    S    
C22   H7    S    
C15   C27   S    
C5    C6    A    
N4    H16   S    
Cu2   N1    S    
C15   C16   A    
C28   O12   S    
C18   C19   S    
C30   O15   D    
Cu1   O3    S    
C1    O2    A    
C8    C9    A    
C22   C25   S    
N3    H13   S    
C23   C24   S    
O16   H19   S    
C4    C12   S    
C9    C10   A    
C5    C13   S    
C21   O7    A    
O14   H18   S    
C14   C17   A    
C8    H10   S    
N3    H12   S    
C27   O10   S    
Cu2   O4    S    
O18   H20   S    
C1    C6    S    
C13   H2    S    
C24   C25   S    
C31   O18   S    
C31   O17   D    
C25   C26   S    
C28   O11   D    
C25   C29   S    
C29   O14   S    
O12   H17   S    
C4    C22   S    
Cu2   O8    S    
Cu1   N2    S    
C9    C20   S    
C17   C18   S    
C7    H9    S    
C2    C26   S    
C11   H11   S    
C18   H6    S    
Cu1   O5    S    
C2    C24   S    
C3    C4    S    
C23   H1    S    
C2    H8    S    
C14   C19   S    
C13   H3    S    
C12   O4    A    
C4    C26   S    
C6    C7    A    
C19   C28   S    
C16   H4    S    
Cu2   O2    S    
C26   C30   S    
C29   O13   D    
C2    C3    S    
C5    C10   A    
C12   O3    A    
C11   N3    S    
C11   C13   S    
Cu1   O1    S    
N4    H15   S    
C3    C31   S    
C18   H5    S    
C17   N2    A    
C15   N1    A    
C20   O6    A    
C10   C11   S    
C14   N1    A    
C1    O1    A    
C30   O16   S    
C21   C24   S    
Cu1   Cu2   S    
C22   C23   S    
C16   N2    A    
C20   O5    A    
