data_mof_unit_28189.cif
_audit_creation_date              2013-03-05T16:34:23-0500
_audit_creation_method            fapswitch 2.2
_symmetry_space_group_name_H-M    P1
_symmetry_Int_Tables_number       1
_space_group_crystal_system       triclinic
_cell_length_a                    10.999567
_cell_length_b                    9.096587
_cell_length_c                    7.790928
_cell_angle_alpha                 89.996564
_cell_angle_beta                  89.980716
_cell_angle_gamma                 90.050219
_cell_volume                      779.548365905

loop_
_atom_site_label
_atom_site_type_symbol
_atom_site_description
_atom_site_fract_x
_atom_site_fract_y
_atom_site_fract_z
_atom_type_partial_charge
O1    O     O_R   0.500000 0.288390 0.642760 -0.581135
O2    O     O_R   0.500000 0.711610 0.642760 -0.581013
O3    O     O_R   0.500000 0.288370 0.357190 -0.564325
O4    O     O_R   0.500000 0.711630 0.357190 -0.564431
C1    C     C_R   0.500049 0.220038 0.499979 0.860197
C2    C     C_R   0.499953 0.779962 0.499973 0.859667
O5    O     O_R   0.321940 0.500000 0.642750 -0.576901
O6    O     O_R   0.678060 0.500000 0.642750 -0.576784
O7    O     O_R   0.321930 0.500000 0.357180 -0.563387
O8    O     O_R   0.678070 0.500000 0.357180 -0.563632
C3    C     C_R   0.265100 0.495626 0.499904 0.781904
C4    C     C_R   0.734887 0.504209 0.499834 0.782571
Cu1   Cu    Cu3+1 0.500000 0.500000 0.669080 1.077697
Cu2   Cu    Cu3+1 0.500000 0.500000 0.330920 1.104833
C5    C     C_2   0.935866 0.477465 0.371364 0.271497
C6    C     C_2   0.064112 0.520307 0.370949 0.271687
C7    C     C_2   0.865244 0.531091 0.498612 0.197330
C8    C     C_2   0.134770 0.468267 0.498969 0.197132
C9    C     C_1   0.500020 0.065370 0.499978 -0.110846
C10   C     C_1   0.499984 0.934630 0.499969 -0.111214
N1    N     N_1   0.500000 0.500000 0.076820 -0.015910
N2    N     N_1   0.500000 0.500000 0.923180 -0.022523
N3    N     N_R   0.894918 0.367451 0.250799 0.118246
O9    O     O_R   0.822696 0.262385 0.300851 -0.333502
O10   O     O_R   0.949721 0.353721 0.103661 -0.264583
N4    N     N_R   0.104995 0.628977 0.248696 0.117827
O11   O     O_R   0.175779 0.735811 0.297698 -0.332309
O12   O     O_R   0.051398 0.639530 0.100324 -0.264297
O13   O     O_3   0.916344 0.623265 0.620980 -0.664910
H1    H     H_    0.851440 0.661438 0.697123 0.357579
O14   O     O_3   0.083727 0.377276 0.622658 -0.664672
H2    H     H_    0.148618 0.339963 0.699337 0.358207

loop_
_geom_bond_atom_site_label_1
_geom_bond_atom_site_label_2
_geom_bond_distance
_ccdc_geom_bond_type
C4    C7    1.454398 S    
O7    Cu2   1.969281 S    
C3    C8    1.454830 S    
O13   H1    0.991136 S    
C1    C9    1.406946 S    
C7    O13   1.388336 S    
N4    O12   1.301366 A    
C9    C10   1.189296 T    
O6    C4    1.277275 A    
N3    O9    1.301931 A    
C5    N3    1.444399 S    
N1    N2    1.196999 T    
O5    C3    1.277282 A    
O7    C3    1.276032 A    
N4    O11   1.302041 A    
O2    C2    1.274382 A    
O3    Cu2   1.935949 S    
O8    C4    1.275812 A    
O1    C1    1.274404 A    
Cu2   N1    1.979674 S    
C6    C8    1.350577 D    
Cu1   N2    1.979674 S    
N3    O10   1.301062 A    
O4    Cu2   1.935972 S    
O1    Cu1   1.935833 S    
C5    C6    1.463158 S    
O6    Cu1   1.969228 S    
O5    Cu1   1.969366 S    
C2    C10   1.406948 S    
O4    C2    1.274327 A    
O8    Cu2   1.969417 S    
C5    C7    1.350713 D    
O2    Cu1   1.935808 S    
C8    O14   1.388404 S    
Cu1   Cu2   2.634581 S    
O14   H2    0.991093 S    
O3    C1    1.274305 A    
C6    N4    1.444097 S    
