data_mof_unit_65421.cif
_audit_creation_date              2012-12-10T16:57:09-0500
_audit_creation_method            fapswitch 2.2
_symmetry_space_group_name_H-M    P1
_symmetry_Int_Tables_number       1
_space_group_crystal_system       triclinic
_cell_length_a                    20.877864
_cell_length_b                    15.976801
_cell_length_c                    13.144953
_cell_angle_alpha                 90.106076
_cell_angle_beta                  90.605546
_cell_angle_gamma                 89.919866
_cell_volume                      4384.3933951

loop_
_atom_site_label
_atom_site_type_symbol
_atom_type_description
_atom_site_fract_x
_atom_site_fract_y
_atom_site_fract_z
_atom_type_partial_charge
C1    C     C_R   0.620949 0.840219 0.469011 0.514248
C2    C     C_2   0.991175 0.531486 0.945616 0.213908
C3    C     C_R   0.379558 0.159936 0.531056 0.509886
C4    C     C_R   0.379529 0.840058 0.530939 0.507676
C5    C     C_R   0.879558 0.659936 0.531056 0.509885
C6    C     C_R   0.879528 0.340058 0.530939 0.507676
C7    C     C_R   0.529742 0.002259 0.772437 0.538226
C8    C     C_R   0.029742 0.502259 0.772437 0.538226
C9    C     C_R   0.470334 0.999789 0.228154 0.506337
C10   C     C_R   0.970334 0.499789 0.228154 0.506337
C11   C     C_2   0.330450 0.776788 0.543461 -0.078009
C12   C     C_R   0.620950 0.159715 0.469069 0.514266
C13   C     C_2   0.330354 0.223156 0.543665 -0.077098
C14   C     C_2   0.830449 0.276788 0.543462 -0.078013
C15   C     C_2   0.830354 0.723156 0.543666 -0.077098
C16   C     C_2   0.278416 0.777454 0.483837 -0.147505
C17   C     C_2   0.278542 0.222554 0.483604 -0.148272
C18   C     C_2   0.778422 0.277443 0.483823 -0.147508
C19   C     C_2   0.778543 0.722557 0.483601 -0.148272
C20   C     C_2   0.670860 0.222496 0.452635 -0.103160
C21   C     C_2   0.670904 0.777359 0.452404 -0.102764
C22   C     C_2   0.170858 0.722500 0.452641 -0.103160
C23   C     C_R   0.120949 0.340219 0.469011 0.514248
C24   C     C_2   0.170903 0.277358 0.452405 -0.102763
C25   C     C_2   0.727354 0.216502 0.500933 -0.149638
C26   C     C_2   0.727338 0.783432 0.500794 -0.149515
C27   C     C_2   0.227351 0.716507 0.500939 -0.149637
C28   C     C_2   0.227338 0.283431 0.500796 -0.149515
C29   C     C_2   0.460265 0.998668 0.118660 -0.103331
C30   C     C_2   0.960265 0.498667 0.118660 -0.103332
C31   C     C_R   0.120949 0.659715 0.469070 0.514266
C32   C     C_2   0.502456 0.034302 0.056470 -0.160525
C33   C     C_2   0.002456 0.534302 0.056470 -0.160525
C34   C     C_2   0.539701 0.010940 0.883147 -0.037178
C35   C     C_2   0.039701 0.510940 0.883147 -0.037178
C36   C     C_2   0.491175 0.031486 0.945616 0.213908
H1    H     H_    0.736164 0.166107 0.554851 0.161967
H2    H     H_    0.661756 0.726365 0.399377 0.110764
H3    H     H_    0.161595 0.773449 0.399781 0.110428
H4    H     H_    0.161755 0.226363 0.399380 0.110764
H5    H     H_    0.335038 0.732905 0.606194 0.095217
H6    H     H_    0.334620 0.266865 0.606815 0.097538
H7    H     H_    0.835028 0.232922 0.606214 0.095222
H8    H     H_    0.834618 0.766861 0.606820 0.097539
H9    H     H_    0.546314 0.061941 0.086555 0.116556
H10   H     H_    0.046314 0.561941 0.086555 0.116556
H11   H     H_    0.587476 0.000368 0.914232 0.054099
H12   H     H_    0.736005 0.833867 0.554902 0.162186
H13   H     H_    0.087476 0.500368 0.914232 0.054099
H14   H     H_    0.420066 0.963117 0.088120 0.118851
H15   H     H_    0.920066 0.463117 0.088120 0.118850
H16   H     H_    0.403483 0.070886 0.961250 0.324591
H17   H     H_    0.903483 0.570886 0.961250 0.324590
H18   H     H_    0.236164 0.666108 0.554850 0.161967
H19   H     H_    0.236005 0.333867 0.554902 0.162186
H20   H     H_    0.273065 0.824252 0.424296 0.131391
H21   H     H_    0.273473 0.175861 0.423692 0.131539
H22   H     H_    0.773077 0.324229 0.424266 0.131395
H23   H     H_    0.773476 0.675866 0.423685 0.131540
H24   H     H_    0.661599 0.273441 0.399769 0.110428
O1    O     O_3   0.500000 0.000000 0.500000 -0.448683
O2    O     O_R   0.880760 0.402800 0.590320 -0.530307
O3    O     O_R   0.577210 0.000000 0.711160 -0.556782
O4    O     O_R   0.077210 0.500000 0.711160 -0.556782
O5    O     O_R   0.475030 0.069050 0.275760 -0.531682
O6    O     O_R   0.475030 0.930950 0.275760 -0.534865
O7    O     O_R   0.975030 0.569050 0.275760 -0.531682
O8    O     O_R   0.975030 0.430950 0.275760 -0.534866
O9    O     O_R   0.632300 0.097230 0.527310 -0.540853
O10   O     O_R   0.632300 0.902770 0.527310 -0.540972
O11   O     O_R   0.132300 0.597230 0.527310 -0.540853
O12   O     O_3   1.000000 0.500000 0.500000 -0.448683
O13   O     O_R   0.132300 0.402770 0.527310 -0.540972
O14   O     O_R   0.419940 0.833680 0.459580 -0.533426
O15   O     O_R   0.419940 0.166320 0.459580 -0.533550
O16   O     O_R   0.919940 0.333680 0.459580 -0.533425
O17   O     O_R   0.919940 0.666320 0.459580 -0.533550
O18   O     O_R   0.472710 0.000000 0.737340 -0.464481
O19   O     O_R   0.972710 0.500000 0.737340 -0.464482
O20   O     O_3   0.430675 0.048258 0.906259 -0.655766
O21   O     O_3   0.930675 0.548258 0.906259 -0.655766
O22   O     O_R   0.566980 0.833700 0.422750 -0.536060
O23   O     O_R   0.566980 0.166300 0.422750 -0.536862
O24   O     O_R   0.066980 0.333700 0.422750 -0.536059
O25   O     O_R   0.066980 0.666300 0.422750 -0.536862
O26   O     O_R   0.380760 0.097200 0.590320 -0.522988
O27   O     O_R   0.380760 0.902800 0.590320 -0.530305
O28   O     O_R   0.880760 0.597200 0.590320 -0.522989
Zn1   Zn    Zn3+2 0.434690 0.000000 0.602700 0.981882
Zn2   Zn    Zn3+2 0.934690 0.500000 0.602700 0.981882
Zn3   Zn    Zn3+2 0.584000 0.000000 0.565300 0.934548
Zn4   Zn    Zn3+2 0.084000 0.500000 0.565300 0.934549
Zn5   Zn    Zn3+2 0.490640 0.098690 0.416020 0.944399
Zn6   Zn    Zn3+2 0.490640 0.901310 0.416020 0.943769
Zn7   Zn    Zn3+2 0.990640 0.598690 0.416020 0.944399
Zn8   Zn    Zn3+2 0.990640 0.401310 0.416020 0.943769

loop_
_geom_bond_atom_site_label_1
_geom_bond_atom_site_label_2
_ccdc_geom_bond_type
C2    C35   D    
C30   H15   S    
C1    C21   S    
O22   Zn6   S    
C32   H9    S    
O14   Zn6   S    
O10   Zn3   S    
C21   C26   D    
C27   H18   S    
C4    O27   A    
C10   O7    A    
C15   C19   D    
O8    Zn8   S    
C31   O25   A    
C32   C36   S    
C15   H8    S    
C29   C32   D    
O12   Zn4   S    
O1    Zn5   S    
C20   C25   D    
O23   Zn5   S    
H17   O21   S    
O24   Zn8   S    
C19   C26   S    
C14   C18   D    
C9    O6    A    
O19   Zn2   S    
C25   H1    S    
C5    O28   A    
C18   H22   S    
C21   H2    S    
C35   H13   S    
C8    O19   A    
C23   C24   S    
C20   H24   S    
C3    O15   A    
C4    O14   A    
C3    C13   S    
C26   H12   S    
O6    Zn6   S    
C16   C27   S    
C31   O11   A    
C3    O26   A    
O7    Zn7   S    
C33   H10   S    
O12   Zn7   S    
C18   C25   S    
C23   O13   A    
C13   H6    S    
C28   H19   S    
O1    Zn1   S    
C29   H14   S    
O18   Zn1   S    
C22   C31   S    
O11   Zn4   S    
C36   O20   S    
O1    Zn6   S    
C23   O24   A    
C19   H23   S    
C1    O22   A    
O17   Zn7   S    
C12   O23   A    
C8    C35   S    
C16   H20   S    
C6    C14   S    
O12   Zn2   S    
C11   C16   D    
C10   C30   S    
C12   C20   S    
C4    C11   S    
C7    O3    A    
C8    O4    A    
C7    O18   A    
C2    C33   S    
C12   O9    A    
O28   Zn2   S    
C22   C27   D    
O27   Zn1   S    
C7    C34   S    
O4    Zn4   S    
C5    O17   A    
O15   Zn5   S    
C30   C33   D    
C17   C28   S    
C24   C28   D    
O13   Zn4   S    
O26   Zn1   S    
C6    O16   A    
C10   O8    A    
C1    O10   A    
C13   C17   D    
C6    O2    A    
H16   O20   S    
O16   Zn8   S    
C9    C29   S    
O25   Zn7   S    
C22   H3    S    
O2    Zn2   S    
O5    Zn5   S    
C24   H4    S    
C11   H5    S    
C34   C36   D    
C9    O5    A    
C5    C15   S    
O12   Zn8   S    
O3    Zn3   S    
C2    O21   S    
C34   H11   S    
O9    Zn3   S    
O1    Zn3   S    
C17   H21   S    
C14   H7    S    
