data_mof_unit_5814.cif
_audit_creation_date              2012-12-10T21:18:26-0500
_audit_creation_method            fapswitch 2.2
_symmetry_space_group_name_H-M    P1
_symmetry_Int_Tables_number       1
_space_group_crystal_system       triclinic
_cell_length_a                    17.460695
_cell_length_b                    16.725732
_cell_length_c                    10.515829
_cell_angle_alpha                 91.186811
_cell_angle_beta                  91.874624
_cell_angle_gamma                 91.038075
_cell_volume                      3068.22830716

loop_
_atom_site_label
_atom_site_type_symbol
_atom_type_description
_atom_site_fract_x
_atom_site_fract_y
_atom_site_fract_z
_atom_type_partial_charge
C1    C     C_R   0.352549 0.499313 0.504370 0.941425
C2    C     C_R   0.558918 0.251425 0.553487 -0.145082
C3    C     C_R   0.551005 0.752918 0.571588 -0.122569
C4    C     C_R   0.439215 0.252765 0.442739 -0.085583
C5    C     C_R   0.492150 0.874872 0.494655 -0.054326
C6    C     C_R   0.494572 0.124216 0.494996 -0.078824
C7    C     C_1   0.490789 0.962912 0.492198 0.105694
C8    C     C_1   0.491735 0.036114 0.492893 0.092079
C9    C     C_R   0.500633 0.499252 0.257230 1.056978
C10   C     C_R   0.502341 0.500597 0.742997 0.987645
C11   C     C_3   0.434283 0.523239 0.036971 0.237956
C12   C     C_R   0.647179 0.500836 0.499830 0.955204
C13   C     C_3   0.572466 0.474531 0.963593 0.292033
C14   C     C_3   0.490996 0.574515 0.963957 0.286322
C15   C     C_3   0.516807 0.423637 0.039035 0.314233
C16   C     C_3   0.448026 0.448630 0.953085 0.226858
C17   C     C_3   0.559086 0.548443 0.048601 0.312200
C18   C     C_3   0.504566 0.500646 0.877377 -0.377838
C19   C     C_3   0.502633 0.497863 0.123369 -0.323233
C20   C     C_R   0.846696 0.557483 0.612789 -0.294407
C21   C     C_R   0.154439 0.425332 0.585079 -0.300453
C22   C     C_R   0.152579 0.569037 0.566490 -0.264439
C23   C     C_1   0.967018 0.492963 0.584486 -0.006692
C24   C     C_R   0.851159 0.436330 0.483121 -0.311032
C25   C     C_R   0.768904 0.564315 0.582789 0.401826
C26   C     C_R   0.230904 0.423893 0.548730 0.437593
C27   C     C_R   0.230222 0.570808 0.541013 0.417375
C28   C     C_R   0.771679 0.439038 0.457005 0.422125
C29   C     C_R   0.730631 0.502343 0.511428 -0.236831
C30   C     C_R   0.269913 0.497835 0.528754 -0.255945
C31   C     C_R   0.886833 0.493765 0.563910 0.028700
C32   C     C_R   0.115637 0.496813 0.588788 0.013923
C33   C     C_3   0.330313 0.380590 0.955751 0.120023
C34   C     C_1   0.035019 0.494422 0.592979 -0.009927
C35   C     C_3   0.295925 0.299785 0.911301 -0.347966
C36   C     C_3   0.227282 0.276297 0.989479 -1.004661
C37   C     C_3   0.671125 0.624930 0.029352 0.143355
C38   C     C_3   0.749044 0.592634 0.072000 -0.278797
C39   C     C_3   0.810868 0.614530 0.978888 -0.994570
C40   C     C_3   0.317091 0.583464 0.001128 0.113197
C41   C     C_3   0.234325 0.577865 0.044178 -0.365790
C42   C     C_3   0.177621 0.604221 0.940477 -0.985092
C43   C     C_3   0.645362 0.392043 0.835245 0.170938
C44   C     C_3   0.716455 0.340307 0.847579 -0.377493
C45   C     C_R   0.437399 0.827019 0.424142 0.345982
C46   C     C_3   0.790570 0.388693 0.835147 -0.799823
C47   C     C_3   0.484372 0.710634 0.005465 0.114260
C48   C     C_3   0.446435 0.786138 0.956275 -0.390770
C49   C     C_3   0.470274 0.859539 0.037355 -0.980578
C50   C     C_3   0.496753 0.285725 0.044702 0.160805
C51   C     C_3   0.530203 0.207797 0.093717 -0.387041
C52   C     C_3   0.612330 0.195906 0.053414 -0.807866
C53   C     C_3   0.756471 0.700933 0.574376 0.103631
C54   C     C_3   0.781202 0.760916 0.680141 -0.344803
C55   C     C_3   0.810709 0.839047 0.625407 -0.950872
C56   C     C_R   0.558550 0.166588 0.549493 0.344502
C57   C     C_3   0.228361 0.290021 0.476733 0.077125
C58   C     C_3   0.212217 0.222015 0.567889 -0.319187
C59   C     C_3   0.168152 0.152840 0.500839 -0.934354
C60   C     C_3   0.283772 0.685423 0.633673 0.113807
C61   C     C_3   0.234742 0.760094 0.645158 -0.375328
C62   C     C_3   0.263991 0.815431 0.753931 -0.952098
C63   C     C_3   0.762258 0.310930 0.356914 0.114569
C64   C     C_3   0.806858 0.303145 0.234374 -0.340600
C65   C     C_3   0.832879 0.217627 0.211817 -0.997278
C66   C     C_3   0.326011 0.814250 0.290917 0.065289
C67   C     C_R   0.549105 0.837182 0.569053 0.312346
C68   C     C_3   0.266537 0.863138 0.218961 -0.327872
C69   C     C_3   0.208216 0.809017 0.146286 -0.970232
C70   C     C_3   0.685659 0.138140 0.538189 0.068757
C71   C     C_3   0.744966 0.076702 0.578189 -0.320418
C72   C     C_3   0.818808 0.086861 0.506173 -0.985634
C73   C     C_3   0.595926 0.892276 0.757128 0.079309
C74   C     C_3   0.654004 0.954496 0.811783 -0.316126
C75   C     C_3   0.649786 0.965483 0.955484 -0.999596
C76   C     C_3   0.375003 0.124268 0.255879 0.070266
C77   C     C_3   0.299985 0.089744 0.197776 -0.307554
C78   C     C_R   0.434664 0.168387 0.439515 0.310821
C79   C     C_3   0.307433 0.068518 0.056937 -0.988880
C80   C     C_R   0.444480 0.742032 0.427632 -0.169137
H1    H     H_    0.876095 0.603017 0.671876 0.161554
H2    H     H_    0.343094 0.379683 0.060325 0.140352
H3    H     H_    0.422782 0.084072 0.231141 0.156894
H4    H     H_    0.384549 0.184196 0.214295 0.105355
H5    H     H_    0.283383 0.035325 0.249449 0.238367
H6    H     H_    0.254021 0.134258 0.208322 0.204909
H7    H     H_    0.324235 0.122216 0.003615 0.268740
H8    H     H_    0.251648 0.044945 0.017040 0.269539
H9    H     H_    0.351332 0.022073 0.044463 0.263651
H10   H     H_    0.277325 0.303145 0.809559 0.254723
H11   H     H_    0.340021 0.253061 0.919471 0.206501
H12   H     H_    0.245111 0.270762 0.091263 0.261748
H13   H     H_    0.203250 0.217783 0.953998 0.276494
H14   H     H_    0.182007 0.321864 0.980792 0.269707
H15   H     H_    0.674779 0.691245 0.036198 0.116141
H16   H     H_    0.658459 0.609393 0.926922 0.171510
H17   H     H_    0.765431 0.617992 0.167823 0.207886
H18   H     H_    0.745412 0.526590 0.079588 0.267268
H19   H     H_    0.123817 0.370408 0.605242 0.153631
H20   H     H_    0.796064 0.588584 0.882988 0.295758
H21   H     H_    0.866614 0.590274 0.012200 0.264364
H22   H     H_    0.816791 0.680545 0.972539 0.259709
H23   H     H_    0.320721 0.555784 0.904154 0.147923
H24   H     H_    0.333363 0.647602 0.995671 0.155862
H25   H     H_    0.219995 0.515263 0.069217 0.225821
H26   H     H_    0.228272 0.616139 0.130839 0.235726
H27   H     H_    0.190039 0.666844 0.913942 0.265874
H28   H     H_    0.118477 0.600560 0.975864 0.275861
H29   H     H_    0.180873 0.564536 0.854892 0.269989
H30   H     H_    0.120630 0.623950 0.565725 0.158305
H31   H     H_    0.645291 0.420959 0.741447 0.134568
H32   H     H_    0.594398 0.351386 0.838662 0.116310
H33   H     H_    0.717626 0.310957 0.940968 0.227484
H34   H     H_    0.713286 0.292731 0.772129 0.168471
H35   H     H_    0.840097 0.347998 0.838093 0.232525
H36   H     H_    0.797987 0.433157 0.914541 0.284213
H37   H     H_    0.789726 0.419947 0.743430 0.251759
H38   H     H_    0.546114 0.723965 0.024158 0.166658
H39   H     H_    0.457589 0.693808 0.096229 0.154415
H40   H     H_    0.462925 0.796058 0.856568 0.228671
H41   H     H_    0.886172 0.391213 0.440108 0.149914
H42   H     H_    0.383257 0.778469 0.957185 0.214644
H43   H     H_    0.451038 0.853557 0.135830 0.297960
H44   H     H_    0.444833 0.913806 0.995686 0.263840
H45   H     H_    0.533386 0.866495 0.041056 0.268094
H46   H     H_    0.495721 0.283844 0.938793 0.150801
H47   H     H_    0.437600 0.288770 0.078962 0.094528
H48   H     H_    0.529002 0.207840 0.199353 0.210996
H49   H     H_    0.494146 0.156735 0.055714 0.169294
H50   H     H_    0.615546 0.197277 0.948144 0.251035
H51   H     H_    0.632557 0.137094 0.086451 0.232061
H52   H     H_    0.405695 0.702068 0.374329 0.170681
H53   H     H_    0.650358 0.243182 0.097767 0.282939
H54   H     H_    0.708957 0.726404 0.516443 0.172131
H55   H     H_    0.804773 0.693138 0.508242 0.122113
H56   H     H_    0.731846 0.773406 0.741107 0.229570
H57   H     H_    0.827468 0.734949 0.740418 0.214651
H58   H     H_    0.860443 0.827732 0.564760 0.258873
H59   H     H_    0.829581 0.880823 0.704131 0.256024
H60   H     H_    0.764730 0.867480 0.567675 0.291952
H61   H     H_    0.264212 0.266593 0.399760 0.164321
H62   H     H_    0.174430 0.309185 0.427486 0.115006
H63   H     H_    0.606398 0.284263 0.599300 0.130000
H64   H     H_    0.267428 0.199738 0.607698 0.246768
H65   H     H_    0.178252 0.244505 0.648138 0.204892
H66   H     H_    0.112544 0.173608 0.460592 0.252377
H67   H     H_    0.156673 0.105244 0.570144 0.263718
H68   H     H_    0.202253 0.127145 0.423316 0.281590
H69   H     H_    0.344986 0.704413 0.631645 0.187420
H70   H     H_    0.278282 0.648705 0.720551 0.116266
H71   H     H_    0.235614 0.793627 0.555226 0.237185
H72   H     H_    0.174520 0.742139 0.662414 0.211872
H73   H     H_    0.261891 0.784066 0.845617 0.251935
H74   H     H_    0.594037 0.723916 0.629587 0.175528
H75   H     H_    0.227256 0.868802 0.759460 0.272271
H76   H     H_    0.323789 0.835665 0.737800 0.265283
H77   H     H_    0.712335 0.268835 0.348668 0.157831
H78   H     H_    0.796537 0.291990 0.441872 0.103677
H79   H     H_    0.769596 0.320949 0.152676 0.240873
H80   H     H_    0.857753 0.343907 0.238431 0.212978
H81   H     H_    0.872695 0.199797 0.290274 0.271978
H82   H     H_    0.863260 0.213707 0.120840 0.272041
H83   H     H_    0.782714 0.175733 0.205870 0.263108
H84   H     H_    0.295835 0.777024 0.360661 0.175906
H85   H     H_    0.393930 0.286665 0.398807 0.160940
H86   H     H_    0.354343 0.775307 0.220152 0.138036
H87   H     H_    0.236100 0.901711 0.287395 0.223022
H88   H     H_    0.295933 0.901526 0.150041 0.241927
H89   H     H_    0.237584 0.770417 0.076738 0.259816
H90   H     H_    0.166220 0.846160 0.093785 0.268944
H91   H     H_    0.176947 0.770711 0.213156 0.272859
H92   H     H_    0.709597 0.198883 0.561892 0.123390
H93   H     H_    0.674749 0.131703 0.433187 0.135629
H94   H     H_    0.758326 0.083687 0.681948 0.216646
H95   H     H_    0.721019 0.015476 0.558790 0.249339
H96   H     H_    0.286671 0.426180 0.935861 0.163975
H97   H     H_    0.807219 0.077547 0.402404 0.270676
H98   H     H_    0.860818 0.041967 0.538695 0.271660
H99   H     H_    0.844057 0.147629 0.524334 0.261377
H100  H     H_    0.604386 0.834563 0.806141 0.137549
H101  H     H_    0.537147 0.914352 0.774160 0.148174
H102  H     H_    0.712810 0.936187 0.788818 0.226121
H103  H     H_    0.642790 0.012793 0.767248 0.268739
H104  H     H_    0.592708 0.988064 0.980719 0.276559
H105  H     H_    0.694056 0.010081 0.989660 0.266647
H106  H     H_    0.661090 0.908118 0.003341 0.263097
N1    N     N_R   0.500000 0.707230 0.500000 -0.121651
N2    N     N_R   0.500000 0.292770 0.500000 -0.114593
O1    O     O_R   0.389110 0.566570 0.499990 -0.602043
O2    O     O_3   0.614607 0.598334 0.113040 -0.640955
O3    O     O_3   0.365089 0.546249 0.092014 -0.657398
O4    O     O_3   0.647224 0.451827 0.931942 -0.613805
O5    O     O_3   0.476043 0.649746 0.911068 -0.638261
O6    O     O_3   0.540044 0.351372 0.095096 -0.573144
O7    O     O_3   0.729363 0.629246 0.629033 -0.644305
O8    O     O_3   0.270348 0.352279 0.543056 -0.622128
O9    O     O_3   0.265232 0.643733 0.517526 -0.646169
O10   O     O_3   0.732620 0.388749 0.368129 -0.615571
O11   O     O_3   0.380299 0.866350 0.354150 -0.638923
O12   O     O_R   0.610890 0.433430 0.500010 -0.618731
O13   O     O_3   0.617973 0.124660 0.605223 -0.649795
O14   O     O_3   0.608300 0.882474 0.625852 -0.647112
O15   O     O_3   0.369449 0.129954 0.389275 -0.631294
O16   O     O_R   0.610890 0.566570 0.500010 -0.588635
O17   O     O_R   0.389110 0.433430 0.499990 -0.573988
O18   O     O_R   0.499980 0.566530 0.313950 -0.607609
O19   O     O_R   0.500020 0.433470 0.686050 -0.619965
O20   O     O_R   0.500020 0.566530 0.686050 -0.589823
O21   O     O_R   0.499980 0.433470 0.313950 -0.598179
O22   O     O_3   0.395610 0.397099 0.884630 -0.628893
Zn1   Zn    Zn3+2 0.500000 0.588860 0.500000 0.985586
Zn2   Zn    Zn3+2 0.500000 0.411140 0.500000 0.988544

loop_
_geom_bond_atom_site_label_1
_geom_bond_atom_site_label_2
_ccdc_geom_bond_type
C66   C68   S    
C21   C26   A    
C80   H52   S    
C12   C29   S    
N2    Zn2   S    
C41   C42   S    
C14   C18   S    
C35   C36   S    
C27   O9    S    
C72   H98   S    
C5    C67   A    
C26   O8    S    
C76   H4    S    
C79   H7    S    
C51   H49   S    
C58   H65   S    
C7    C8    T    
C48   H40   S    
C35   H11   S    
C53   C54   S    
C62   H75   S    
C15   C19   S    
C11   C19   S    
O12   Zn2   S    
C13   O4    S    
C22   C32   A    
C13   C18   S    
C51   H48   S    
C28   C29   A    
C42   H29   S    
C77   H6    S    
C9    O18   A    
C48   H42   S    
C38   C39   S    
C21   H19   S    
C11   C14   S    
C6    C78   A    
C54   H57   S    
C20   C25   A    
C15   C16   S    
C49   H43   S    
O21   Zn2   S    
C55   H59   S    
C4    H85   S    
C37   H15   S    
C69   H91   S    
C39   H20   S    
C33   H96   S    
C10   O20   A    
C24   H41   S    
C70   H92   S    
C77   H5    S    
C33   C35   S    
C73   H100  S    
C36   H13   S    
C9    C19   S    
C47   H38   S    
C9    O21   A    
C68   C69   S    
C22   H30   S    
C53   H55   S    
C65   H82   S    
C64   H79   S    
C70   C71   S    
C50   H46   S    
C1    O17   A    
C33   H2    S    
C66   O11   S    
C25   O7    S    
C38   H18   S    
C60   H69   S    
C59   H68   S    
C36   H12   S    
C70   O13   S    
C47   H39   S    
C37   O2    S    
C44   H34   S    
C20   H1    S    
C27   C30   A    
C52   H53   S    
C15   O6    S    
C14   C17   S    
C64   H80   S    
C75   H105  S    
C43   H31   S    
C72   H97   S    
C38   H17   S    
C75   H104  S    
O18   Zn1   S    
C76   H3    S    
C79   H8    S    
C70   H93   S    
C44   C46   S    
C39   H21   S    
C77   C79   S    
C73   C74   S    
C25   C29   A    
C21   C32   A    
C76   O15   S    
C74   C75   S    
C66   H86   S    
C57   O8    S    
C51   C52   S    
C62   H76   S    
C59   H66   S    
C76   C77   S    
O1    Zn1   S    
C57   H61   S    
C5    C7    S    
C69   H89   S    
C56   O13   S    
O17   Zn2   S    
C58   C59   S    
C49   H44   S    
C5    C45   A    
C3    H74   S    
C28   O10   S    
C55   H60   S    
C46   H37   S    
C60   C61   S    
C23   C31   S    
C10   O19   A    
C35   H10   S    
C4    C78   A    
C37   C38   S    
C36   H14   S    
C40   H24   S    
C73   H101  S    
C11   C16   S    
C47   C48   S    
C23   C34   T    
C54   H56   S    
C65   H83   S    
C50   C51   S    
C12   O12   A    
C66   H84   S    
C60   H70   S    
C78   O15   S    
C61   H71   S    
C41   H25   S    
C60   O9    S    
C59   H67   S    
C46   H35   S    
C40   C41   S    
C33   O22   S    
N1    Zn1   S    
C44   H33   S    
C26   C30   A    
C22   C27   A    
C13   C15   S    
C43   C44   S    
O19   Zn2   S    
C53   O7    S    
C41   H26   S    
C75   H106  S    
C43   H32   S    
C63   H77   S    
C68   H88   S    
C39   H22   S    
C42   H27   S    
C54   C55   S    
C48   C49   S    
C2    H63   S    
C57   H62   S    
C52   H51   S    
C47   O5    S    
C3    C67   A    
C53   H54   S    
C24   C28   A    
C6    C56   A    
C3    N1    A    
C43   O4    S    
C6    C8    S    
C63   O10   S    
C74   H102  S    
C46   H36   S    
C17   O2    S    
C45   O11   S    
C49   H45   S    
C73   O14   S    
C72   H99   S    
C62   H73   S    
C13   C17   S    
C52   H50   S    
C64   C65   S    
C4    N2    A    
C16   O22   S    
C24   C31   A    
C71   C72   S    
C74   H103  S    
C67   O14   S    
C2    C56   A    
C40   H23   S    
C50   O6    S    
C57   C58   S    
C40   O3    S    
C10   C18   S    
O20   Zn1   S    
O16   Zn1   S    
C1    C30   S    
C17   C19   S    
C80   N1    A    
C71   H95   S    
C45   C80   A    
C11   O3    S    
C69   H90   S    
C12   O16   A    
C61   C62   S    
C61   H72   S    
C2    N2    A    
C79   H9    S    
C55   H58   S    
C63   C64   S    
C68   H87   S    
C58   H64   S    
C37   H16   S    
C16   C18   S    
C65   H81   S    
C50   H47   S    
C63   H78   S    
C42   H28   S    
C71   H94   S    
C32   C34   S    
C14   O5    S    
C20   C31   A    
C1    O1    A    
