data_mof_unit_21727.cif
_audit_creation_date              2012-12-11T14:59:34-0500
_audit_creation_method            fapswitch 2.2
_symmetry_space_group_name_H-M    P1
_symmetry_Int_Tables_number       1
_space_group_crystal_system       triclinic
_cell_length_a                    8.244669
_cell_length_b                    15.036366
_cell_length_c                    18.756762
_cell_angle_alpha                 100.074461
_cell_angle_beta                  91.008415
_cell_angle_gamma                 99.475855
_cell_volume                      2255.6026512

loop_
_atom_site_label
_atom_site_type_symbol
_atom_type_description
_atom_site_fract_x
_atom_site_fract_y
_atom_site_fract_z
_atom_type_partial_charge
Ba1   Ba    Ba6+2 0.854120 0.540280 0.465540 1.662682
Ba2   Ba    Ba6+2 0.335710 0.459790 0.534460 1.636328
C1    C     C_3   0.704388 0.863387 0.270529 -0.210988
C2    C     C_R   0.902322 0.404636 0.094901 -0.083949
C3    C     C_R   0.768658 0.421366 0.952516 -0.097518
C4    C     C_3   0.145855 0.723158 0.271626 0.385570
C5    C     C_R   0.933264 0.458007 0.976681 0.020383
C6    C     C_R   0.711758 0.420984 0.882262 -0.082415
C7    C     C_R   0.815844 0.456971 0.832274 -0.029626
C8    C     C_R   0.978309 0.500366 0.856019 -0.003837
C9    C     C_R   0.037021 0.501684 0.928693 0.022799
C10   C     C_R   0.762050 0.451418 0.759307 0.000512
C11   C     C_R   0.870580 0.485934 0.710567 -0.289065
C12   C     C_3   0.618218 0.766017 0.272935 0.265314
C13   C     C_R   0.027418 0.534134 0.733344 0.043213
C14   C     C_R   0.081206 0.543437 0.807404 -0.045400
C15   C     C_R   0.156736 0.499555 0.071709 0.025230
C16   C     C_3   0.149218 0.749683 0.197006 -0.356231
C17   C     C_R   0.215357 0.500615 0.144358 0.003063
C18   C     C_R   0.112406 0.456969 0.192737 -0.031427
C19   C     C_R   0.960389 0.405181 0.165135 0.009880
C20   C     C_R   0.233601 0.595031 0.834788 -0.021746
C21   C     C_R   0.291825 0.595861 0.905090 -0.086007
C22   C     C_R   0.198912 0.546509 0.952634 0.010105
C23   C     C_3   0.403236 0.271586 0.306015 0.270134
C24   C     C_R   0.260503 0.543408 0.023766 0.020074
C25   C     C_R   0.424804 0.580659 0.048190 -0.093594
C26   C     C_R   0.377700 0.544327 0.168220 -0.035290
C27   C     C_R   0.481560 0.581026 0.118486 -0.099711
C28   C     C_3   0.220872 0.751011 0.628657 0.280826
C29   C     C_R   0.431655 0.549828 0.241098 -0.025993
C30   C     C_R   0.322755 0.514049 0.289650 -0.285547
C31   C     C_R   0.165498 0.465703 0.266774 0.046057
C32   C     C_R   0.764448 0.235656 0.524826 -0.299155
C33   C     C_R   0.858979 0.176713 0.548007 0.036906
C34   C     C_3   0.501202 0.329338 0.256908 -0.330155
C35   C     C_R   0.796504 0.082541 0.539153 -0.108625
C36   C     C_R   0.637984 0.045845 0.505111 -0.000146
C37   C     C_R   0.549315 0.108021 0.479732 -0.111660
C38   C     C_R   0.612941 0.201055 0.488863 0.044812
C39   C     C_R   0.411331 0.908851 0.457281 -0.105260
C40   C     C_3   0.173301 0.845929 0.649055 0.166581
C41   C     C_R   0.344271 0.816037 0.448859 0.032158
C42   C     C_R   0.582828 0.788581 0.512237 0.076420
C43   C     C_R   0.649668 0.881967 0.522226 -0.122410
C44   C     C_R   0.567009 0.944590 0.493953 -0.012032
C45   C     C_3   0.098586 0.294630 0.730533 0.381248
C46   C     C_R   0.432431 0.755657 0.474176 -0.271146
C47   C     C_3   0.942446 0.256056 0.374430 0.293986
C48   C     C_3   0.889805 0.152925 0.350781 -0.349919
C49   C     C_3   0.733506 0.671175 0.684334 0.306858
C50   C     C_3   0.747573 0.701322 0.766318 -0.383382
C51   C     C_2   0.582952 0.928042 0.275530 0.424172
C52   C     C_2   0.290201 0.192341 0.260673 0.503527
C53   C     C_2   0.687949 0.219387 0.699899 0.531974
C54   C     C_3   0.113803 0.280092 0.808551 -0.320630
C55   C     C_3   0.507202 0.221713 0.698085 0.265025
C56   C     C_3   0.412542 0.131698 0.715133 -0.295837
C57   C     C_R   0.994992 0.454594 0.047672 0.009313
H1    H     H_    0.567866 0.764909 0.327553 -0.027124
H2    H     H_    0.635956 0.609650 0.670802 0.076071
H3    H     H_    0.796887 0.886924 0.316621 0.092963
H4    H     H_    0.847903 0.761240 0.781511 0.122463
H5    H     H_    0.775286 0.644984 0.792947 0.059950
H6    H     H_    0.629687 0.720524 0.786149 0.125253
H7    H     H_    0.516928 0.746282 0.230380 -0.004808
H8    H     H_    0.327742 0.315296 0.340242 0.010922
H9    H     H_    0.589125 0.290542 0.226142 0.122532
H10   H     H_    0.418515 0.349967 0.217755 0.081040
H11   H     H_    0.570635 0.392161 0.290809 0.130166
H12   H     H_    0.237765 0.882583 0.701325 0.050030
H13   H     H_    0.769860 0.863785 0.219195 0.134503
H14   H     H_    0.181757 0.693290 0.156306 0.070955
H15   H     H_    0.212380 0.336312 0.717285 0.114757
H16   H     H_    0.998841 0.334282 0.726513 -0.027675
H17   H     H_    0.158977 0.346683 0.844642 0.073209
H18   H     H_    0.992110 0.250533 0.826290 0.146990
H19   H     H_    0.201962 0.233081 0.813852 0.141092
H20   H     H_    0.466373 0.226964 0.642475 0.045810
H21   H     H_    0.439609 0.125779 0.772203 0.136051
H22   H     H_    0.447685 0.072293 0.678355 0.082689
H23   H     H_    0.038879 0.838148 0.657006 0.110447
H24   H     H_    0.052432 0.660278 0.269445 0.093694
H25   H     H_    0.278675 0.127425 0.707071 0.159263
H26   H     H_    0.829064 0.479223 0.654539 0.070429
H27   H     H_    0.584337 0.391800 0.868066 0.120996
H28   H     H_    0.882967 0.364399 0.197402 0.105037
H29   H     H_    0.311410 0.635314 0.802299 0.105482
H30   H     H_    0.608421 0.611347 0.133233 0.101000
H31   H     H_    0.364453 0.519514 0.345499 0.077862
H32   H     H_    0.678450 0.393666 0.987216 0.076199
H33   H     H_    0.784306 0.362432 0.078805 0.068311
H34   H     H_    0.836666 0.286515 0.396196 0.024870
H35   H     H_    0.410303 0.637662 0.920894 0.063736
H36   H     H_    0.269001 0.708381 0.285435 -0.125131
H37   H     H_    0.514780 0.609169 0.013779 0.073599
H38   H     H_    0.335779 0.950794 0.436020 0.074228
H39   H     H_    0.874770 0.040258 0.558454 0.100309
H40   H     H_    0.763734 0.903845 0.554065 0.096765
H41   H     H_    0.432557 0.086781 0.450229 0.068948
H42   H     H_    0.379222 0.683855 0.468227 0.065136
H43   H     H_    0.812679 0.308190 0.531353 0.069041
H44   H     H_    0.026321 0.763156 0.181220 0.141198
H45   H     H_    0.042982 0.269167 0.416896 0.045970
H46   H     H_    0.242269 0.812288 0.197555 0.134942
H47   H     H_    0.353572 0.758540 0.617946 -0.019529
H48   H     H_    0.147561 0.714082 0.579028 0.070970
H49   H     H_    0.328072 0.925199 0.602476 0.290779
H50   H     H_    0.510873 0.938476 0.323022 -0.011143
H51   H     H_    0.290694 0.123044 0.269825 0.025975
H52   H     H_    0.765889 0.268177 0.674439 -0.141708
H53   H     H_    0.784126 0.138449 0.310546 0.172756
H54   H     H_    0.853021 0.120193 0.397680 0.043419
H55   H     H_    0.993325 0.121968 0.325962 0.119115
H56   H     H_    0.852755 0.654377 0.665329 -0.007402
O1    O     O_2   0.871030 0.438240 0.324420 -0.465961
O2    O     O_2   0.202104 0.183254 0.556559 -0.492436
O3    O     O_3   0.067821 0.209547 0.683149 -0.585283
O4    O     O_3   0.120590 0.445310 0.413740 -0.496742
O5    O     O_3   0.582100 0.611510 0.537680 -0.489580
O6    O     O_2   0.334040 0.276520 0.462890 -0.480851
O7    O     O_3   0.515239 0.235516 0.345584 -0.672609
O8    O     O_2   0.434281 0.467021 0.758399 -0.504659
O9    O     O_3   0.472756 0.296058 0.749316 -0.643144
O10   O     O_3   0.663040 0.605930 0.370050 -0.460622
O11   O     O_2   0.765169 0.535588 0.243730 -0.496209
O12   O     O_3   0.694479 0.743423 0.653173 -0.636074
O13   O     O_3   0.996049 0.292632 0.313886 -0.605605
O14   O     O_3   0.732597 0.706334 0.258616 -0.582899
O15   O     O_2   0.855660 0.723510 0.537160 -0.464699
O16   O     O_3   0.086340 0.654970 0.406630 -0.495448
O17   O     O_2   0.006253 0.818889 0.454444 -0.431308
O18   O     O_3   0.210097 0.897290 0.594293 -0.734855
O19   O     O_2   0.564806 0.969588 0.226387 -0.558762
O20   O     O_2   0.194918 0.204802 0.214261 -0.579102
O21   O     O_2   0.746968 0.164281 0.728617 -0.582265
O22   O     O_3   0.104221 0.795420 0.322222 -0.594605
O23   O     O_2   0.318670 0.561790 0.675630 -0.460007
O24   O     O_3   0.069120 0.554770 0.586270 -0.498491
O25   O     O_3   0.526680 0.394150 0.629950 -0.483746
O26   O     O_3   0.193884 0.707591 0.688664 -0.672324
O27   O     O_3   0.607620 0.388570 0.462320 -0.460710
O28   O     O_3   0.103380 0.345110 0.593380 -0.501201
P1    P     P_3+3 0.038110 0.412300 0.335300 0.993791
P2    P     P_3+3 0.679950 0.711710 0.558590 0.993405
P3    P     P_3+3 0.134962 0.772748 0.409350 1.002430
P4    P     P_3+3 0.151600 0.587780 0.664700 0.965042
P5    P     P_3+3 0.060674 0.227367 0.593280 0.970378
P6    P     P_3+3 0.645489 0.598793 0.276594 0.951758
P7    P     P_3+3 0.515275 0.273823 0.439555 0.944183
P8    P     P_3+3 0.549873 0.402160 0.723862 0.899363

loop_
_geom_bond_atom_site_label_1
_geom_bond_atom_site_label_2
_ccdc_geom_bond_type
C19   H28   S    
C54   H17   S    
C28   H48   S    
C25   C27   A    
C55   H20   S    
Ba1   P2    S    
C17   C18   A    
C23   H8    S    
C47   H45   S    
C27   H30   S    
C55   C56   S    
C43   C44   A    
C42   C43   A    
C5    C9    A    
O24   P4    S    
C24   C25   A    
C32   H43   S    
C28   O26   S    
C40   O18   S    
C32   C38   A    
Ba2   O24   S    
O7    P7    S    
C26   C27   A    
C33   C35   A    
Ba1   O10   S    
C32   C33   A    
C36   C37   A    
C29   P6    S    
O11   P6    D    
C1    H3    S    
C46   H42   S    
C13   C14   A    
C9    C22   A    
C54   H19   S    
O6    P7    D    
C52   H51   S    
O16   P3    S    
Ba1   Ba2   S    
Ba1   O4    S    
Ba1   O27   S    
O1    P1    D    
C45   O3    S    
C30   H31   S    
C6    C7    A    
C40   H23   S    
C21   C22   A    
Ba1   O1    S    
C20   H29   S    
C23   O7    S    
Ba1   O24   S    
C56   H21   S    
C16   H44   S    
O5    P2    S    
C28   H47   S    
O15   P2    D    
Ba2   O28   S    
C39   C41   A    
C10   P8    S    
C25   H37   S    
C5    C57   A    
C35   H39   S    
C34   H11   S    
C31   P1    S    
O28   P5    S    
C4    C16   S    
O8    P8    D    
C49   C50   S    
Ba2   O23   S    
O22   P3    S    
C23   C52   S    
Ba1   O15   S    
C50   H5    S    
C56   H22   S    
C37   C38   A    
C3    C5    A    
Ba2   O5    S    
Ba2   P4    S    
C49   H56   S    
C54   H18   S    
C48   H55   S    
Ba1   O5    S    
O14   P6    S    
C35   C36   A    
C56   H25   S    
C29   C30   A    
C11   C13   A    
O23   P4    D    
C39   C44   A    
C41   C46   A    
C48   H53   S    
C42   P2    S    
C12   H7    S    
C38   P7    S    
C10   C11   A    
C2    C19   A    
C17   C26   A    
O13   P1    S    
O25   P8    S    
C3    H32   S    
C1    C12   S    
O10   P6    S    
C15   C57   A    
C18   C31   A    
O9    P8    S    
O12   P2    S    
C53   O21   D    
C47   C48   S    
C16   H14   S    
O2    P5    D    
C43   H40   S    
Ba2   O27   S    
C39   H38   S    
C15   C24   A    
O4    P1    S    
C34   H10   S    
C7    C8    A    
Ba2   O6    S    
C51   H50   S    
C47   O13   S    
C14   C20   A    
C4    H24   S    
C53   H52   S    
C26   C29   A    
C51   O19   D    
C45   H15   S    
C22   C24   A    
Ba1   O16   S    
C50   H4    S    
C3    C6    A    
Ba2   O4    S    
C34   H9    S    
C12   H1    S    
C21   H35   S    
C48   H54   S    
O17   P3    D    
C30   C31   A    
O27   P7    S    
C4    O22   S    
C53   C55   S    
C1    H13   S    
C16   H46   S    
C49   O12   S    
H49   O18   S    
Ba1   P1    S    
C8    C14   A    
C55   O9    S    
C13   P4    S    
C49   H2    S    
C1    C51   S    
C37   H41   S    
C52   O20   D    
C2    C57   A    
O3    P5    S    
C40   H12   S    
C15   C17   A    
C6    H27   S    
C33   P5    S    
C7    C10   A    
C36   C44   S    
C8    C9    A    
O26   P4    S    
C23   C34   S    
C45   H16   S    
C18   C19   A    
C4    H36   S    
C11   H26   S    
C41   P3    S    
C20   C21   A    
C28   C40   S    
Ba2   O25   S    
C47   H34   S    
C50   H6    S    
C42   C46   A    
C45   C54   S    
C2    H33   S    
C12   O14   S    
