data_mof_unit_39199.cif
_audit_creation_date              2012-12-11T13:59:58-0500
_audit_creation_method            fapswitch 2.2
_symmetry_space_group_name_H-M    P1
_symmetry_Int_Tables_number       1
_space_group_crystal_system       triclinic
_cell_length_a                    11.19239
_cell_length_b                    11.227246
_cell_length_c                    18.746622
_cell_angle_alpha                 90.278098
_cell_angle_beta                  90.165868
_cell_angle_gamma                 119.522222
_cell_volume                      2049.78069542

loop_
_atom_site_label
_atom_site_type_symbol
_atom_type_description
_atom_site_fract_x
_atom_site_fract_y
_atom_site_fract_z
_atom_type_partial_charge
C1    C     C_R   0.543102 0.478501 0.852650 0.556517
C2    C     C_R   0.478636 0.546735 0.353365 0.550491
C3    C     C_R   0.060953 0.519898 0.350616 0.554237
C4    C     C_R   0.419107 0.869337 0.359783 0.567627
C5    C     C_2   0.973717 0.479685 0.572908 -0.091411
C6    C     C_2   0.487965 0.505575 0.584231 -0.104942
C7    C     C_2   0.486693 0.969419 0.587676 -0.109570
C8    C     C_2   0.446992 0.905417 0.434640 -0.106199
C9    C     C_2   0.493581 0.521348 0.427543 -0.091426
C10   C     C_2   0.984490 0.496030 0.416056 -0.106786
C11   C     C_2   0.948569 0.381835 0.452456 -0.157555
C12   C     C_R   0.520561 0.061585 0.851806 0.573673
C13   C     C_2   0.544527 0.629726 0.472359 -0.153727
C14   C     C_2   0.343086 0.866870 0.480540 -0.163291
C15   C     C_2   0.365098 0.918869 0.554119 -0.150634
C16   C     C_2   0.565185 0.619835 0.547974 -0.160972
C17   C     C_2   0.917139 0.371715 0.527837 -0.147876
C18   C     C_2   0.989354 0.499560 0.925489 -0.087680
C19   C     C_2   0.494503 0.503888 0.918798 -0.111653
C20   C     C_2   0.488305 0.972891 0.913357 -0.075022
C21   C     C_2   0.454161 0.920243 0.065012 -0.077612
C22   C     C_2   0.490506 0.497666 0.076122 -0.100834
C23   C     C_R   0.932607 0.455988 0.854265 0.573165
C24   C     C_2   0.988914 0.496425 0.080706 -0.110366
C25   C     C_2   0.990288 0.598207 0.041904 0.056671
C26   C     C_2   0.381741 0.436033 0.030853 0.110129
C27   C     C_2   0.550246 0.909321 0.026445 0.055257
C28   C     C_2   0.585602 0.969493 0.954438 0.062910
C29   C     C_2   0.402262 0.402429 0.959934 0.109622
C30   C     C_2   0.950602 0.573991 0.967002 0.103653
C31   C     C_R   0.476239 0.544103 0.145971 0.560546
C32   C     C_R   0.061874 0.520800 0.147889 0.545251
C33   C     C_R   0.420753 0.872765 0.138157 0.579372
C34   C     C_R   0.541103 0.480547 0.649496 0.556911
C35   C     C_R   0.518328 0.059083 0.649623 0.553547
C36   C     C_R   0.932605 0.453698 0.646845 0.551362
Cr1   Cr    Cr6+3 0.464030 0.233680 0.750360 1.015924
Cr2   Cr    Cr6+3 0.766320 0.230350 0.750360 1.043650
Cr3   Cr    Cr6+3 0.769650 0.535970 0.750360 1.041875
Cr4   Cr    Cr6+3 0.233680 0.464030 0.249640 1.014374
Cr5   Cr    Cr6+3 0.230350 0.766320 0.249640 1.008677
Cr6   Cr    Cr6+3 0.535970 0.769650 0.249640 1.037925
H1    H     H_    0.951072 0.295075 0.428074 0.158131
H2    H     H_    0.568681 0.954903 0.566353 0.092266
H3    H     H_    0.394895 0.422247 0.561152 0.109693
H4    H     H_    0.039046 0.583882 0.554981 0.086953
H5    H     H_    0.948787 0.394798 0.057453 0.091040
H6    H     H_    0.592849 0.523339 0.058573 0.064302
H7    H     H_    0.400376 0.970236 0.043129 0.077512
H8    H     H_    0.381219 0.918571 0.929188 0.069485
H9    H     H_    0.547730 0.608220 0.938982 0.065840
H10   H     H_    0.051706 0.458468 0.947054 0.085819
H11   H     H_    0.969446 0.719396 0.116995 0.254019
H12   H     H_    0.582237 0.732797 0.452364 0.146829
H13   H     H_    0.131094 0.786242 0.080682 0.261479
H14   H     H_    0.249429 0.499347 0.062585 0.235845
H15   H     H_    0.203598 0.333307 0.086478 0.278285
H16   H     H_    0.625718 0.778829 0.021567 0.211887
H17   H     H_    0.730216 0.929408 0.062424 0.235762
H18   H     H_    0.755455 0.957032 0.929845 0.225484
H19   H     H_    0.787232 0.106292 0.969073 0.231573
H20   H     H_    0.385641 0.220470 0.929543 0.258760
H21   H     H_    0.264968 0.254969 0.892213 0.255525
H22   H     H_    0.783289 0.598352 0.971428 0.221234
H23   H     H_    0.237715 0.808227 0.461480 0.133503
H24   H     H_    0.928000 0.738310 0.944007 0.250642
H25   H     H_    0.281171 0.926495 0.578519 0.153836
H26   H     H_    0.653695 0.706321 0.572531 0.153709
H27   H     H_    0.851328 0.268631 0.547457 0.153643
H28   H     H_    0.974655 0.579824 0.439009 0.102224
H29   H     H_    0.454535 0.417154 0.445813 0.101027
H30   H     H_    0.553440 0.966756 0.451130 0.101417
N1    N     N_3   0.025678 0.730681 0.070623 -0.628837
N2    N     N_3   0.245306 0.407988 0.047004 -0.598126
N3    N     N_3   0.628143 0.851810 0.057021 -0.574713
N4    N     N_3   0.725925 0.031985 0.931386 -0.578519
N5    N     N_3   0.321212 0.261724 0.938154 -0.587672
N6    N     N_3   0.870328 0.631749 0.939567 -0.552018
O1    O     O_R   0.434100 0.092480 0.829780 -0.541378
O2    O     O_R   0.362730 0.477510 0.175360 -0.507876
O3    O     O_R   0.114780 0.637270 0.175360 -0.520395
O4    O     O_R   0.522490 0.885220 0.175360 -0.443152
O5    O     O_R   0.432250 0.092620 0.670380 -0.512400
O6    O     O_R   0.907380 0.339630 0.670380 -0.519529
O7    O     O_R   0.660370 0.567750 0.670380 -0.515290
O8    O     O_R   0.092620 0.432250 0.329620 -0.506991
O9    O     O_R   0.339630 0.907380 0.329620 -0.490284
O10   O     O_R   0.567750 0.660370 0.329620 -0.523603
O11   O     O_R   0.475790 0.362860 0.676880 -0.499429
O12   O     O_R   0.907520 0.341620 0.829780 -0.508554
O13   O     O_R   0.637140 0.112930 0.676880 -0.509103
O14   O     O_R   0.887070 0.524210 0.676880 -0.499216
O15   O     O_R   0.362860 0.475790 0.323120 -0.492320
O16   O     O_R   0.112930 0.637140 0.323120 -0.520979
O17   O     O_R   0.524210 0.887070 0.323120 -0.497380
O18   O     O_3   0.666667 0.333333 0.749450 -0.257367
O19   O     O_3   0.333333 0.666667 0.250550 -0.297058
O20   O     O_R   0.658380 0.565900 0.829780 -0.497024
O21   O     O_R   0.092480 0.434100 0.170220 -0.525081
O22   O     O_R   0.341620 0.907520 0.170220 -0.522198
O23   O     O_R   0.565900 0.658380 0.170220 -0.493724
O24   O     O_R   0.477510 0.362730 0.824640 -0.512629
O25   O     O_R   0.637270 0.114780 0.824640 -0.451934
O26   O     O_R   0.885220 0.522490 0.824640 -0.458756

loop_
_geom_bond_atom_site_label_1
_geom_bond_atom_site_label_2
_ccdc_geom_bond_type
C22   H6    S    
C12   O1    A    
C17   H27   S    
C6    H3    S    
H20   N5    S    
Cr6   O4    S    
Cr4   O15   S    
C4    C8    S    
Cr4   O21   S    
C21   H7    S    
C18   H10   S    
Cr3   O26   S    
C4    O9    A    
C32   O3    A    
Cr1   O1    S    
C31   O23   A    
Cr1   O24   S    
C21   C33   S    
C5    C36   S    
Cr5   O9    S    
Cr4   O8    S    
C9    C13   D    
C20   H8    S    
C23   O26   A    
Cr4   O2    S    
C11   H1    S    
C18   C30   D    
C33   O4    A    
C36   O14   A    
C7    C15   D    
C21   C27   D    
C15   H25   S    
C3    O8    A    
H22   N6    S    
C27   N3    S    
H16   N3    S    
H19   N4    S    
H24   N6    S    
C1    C19   S    
H14   N2    S    
C22   C31   S    
Cr6   O17   S    
C31   O2    A    
C24   C25   D    
C12   O25   A    
Cr6   O19   S    
Cr4   O19   S    
C35   O5    A    
Cr3   O20   S    
C20   C28   D    
Cr2   O13   S    
H18   N4    S    
C18   C23   S    
Cr1   O18   S    
C34   O7    A    
C30   N6    S    
H15   N2    S    
C24   C32   S    
Cr2   O25   S    
C19   H9    S    
C4    O17   A    
Cr5   O16   S    
Cr5   O3    S    
C12   C20   S    
Cr5   O22   S    
C7    H2    S    
C5    C17   D    
C2    O10   A    
C16   H26   S    
C10   H28   S    
C8    H30   S    
Cr5   O19   S    
Cr6   O10   S    
Cr3   O7    S    
C19   C29   D    
Cr6   O23   S    
H17   N3    S    
Cr3   O14   S    
C13   H12   S    
H21   N5    S    
C25   C30   S    
C11   C17   S    
C8    C14   D    
Cr2   O6    S    
C24   H5    S    
C7    C35   S    
C2    O15   A    
H11   N1    S    
C9    H29   S    
C1    O20   A    
C5    H4    S    
Cr2   O12   S    
C32   O21   A    
Cr1   O11   S    
C33   O22   A    
C34   O11   A    
C3    C10   S    
C23   O12   A    
C36   O6    A    
C26   N2    S    
C14   H23   S    
C3    O16   A    
C25   N1    S    
Cr3   O18   S    
C10   C11   D    
C6    C16   D    
H13   N1    S    
C6    C34   S    
C29   N5    S    
C26   C29   S    
C22   C26   D    
C13   C16   S    
Cr2   O18   S    
C27   C28   S    
C14   C15   S    
Cr1   O5    S    
C2    C9    S    
C1    O24   A    
C35   O13   A    
C28   N4    S    
