data_mof_unit_49992.cif
_audit_creation_date              2012-12-10T20:42:36-0500
_audit_creation_method            fapswitch 2.2
_symmetry_space_group_name_H-M    P1
_symmetry_Int_Tables_number       1
_space_group_crystal_system       triclinic
_cell_length_a                    8.906226
_cell_length_b                    10.702251
_cell_length_c                    9.885818
_cell_angle_alpha                 90.153341
_cell_angle_beta                  90.018065
_cell_angle_gamma                 89.999709
_cell_volume                      942.279792131

loop_
_atom_site_label
_atom_site_type_symbol
_atom_type_description
_atom_site_fract_x
_atom_site_fract_y
_atom_site_fract_z
_atom_type_partial_charge
C1    C     C_R   0.502046 0.260205 0.499407 0.928157
C2    C     C_R   0.571344 0.933276 0.391842 -0.365739
C3    C     C_R   0.499860 0.871083 0.497985 -0.133374
C4    C     C_R   0.414343 0.936513 0.591452 0.089820
C5    C     C_3   0.407629 0.932613 0.742977 -0.063257
C6    C     C_3   0.401156 0.074823 0.739250 -0.520354
C7    C     C_R   0.368390 0.493242 0.071173 0.218922
C8    C     C_R   0.629016 0.518223 0.071903 -0.147966
C9    C     C_R   0.629063 0.517955 0.928226 -0.133743
C10   C     C_R   0.368326 0.493540 0.928843 0.226603
C11   C     C_3   0.255970 0.390535 0.923126 -0.523728
C12   C     C_R   0.218774 0.499862 0.499971 0.925824
C13   C     C_3   0.256128 0.390198 0.076732 -0.511683
C14   C     C_R   0.501836 0.739506 0.500095 0.902871
C15   C     C_R   0.781235 0.499923 0.500028 0.939451
C16   C     C_1   0.065426 0.499769 0.499975 -0.208478
C17   C     C_1   0.934594 0.499795 0.500022 -0.205086
C18   C     C_R   0.411821 0.063855 0.588712 0.012780
C19   C     C_R   0.498980 0.127961 0.494907 -0.184933
C20   C     C_R   0.570484 0.063716 0.387659 0.467341
H1    H     H_    0.303288 0.304071 0.878293 0.212284
H2    H     H_    0.147748 0.421472 0.121123 0.208762
H3    H     H_    0.302910 0.303065 0.121057 0.217135
H4    H     H_    0.634898 0.880285 0.318066 0.159740
H5    H     H_    0.304047 0.887334 0.782115 0.156935
H6    H     H_    0.289959 0.111400 0.771115 0.186025
H7    H     H_    0.499350 0.122877 0.785176 0.212859
H8    H     H_    0.733751 0.530735 0.125494 0.158775
H9    H     H_    0.733812 0.530401 0.874773 0.157358
H10   H     H_    0.147441 0.421596 0.878977 0.208387
N1    N     N_R   0.499010 0.499140 0.142800 -0.105763
N2    N     N_R   0.499010 0.499180 0.857150 -0.104708
O1    O     O_R   0.500020 0.316790 0.614690 -0.629095
O2    O     O_R   0.500000 0.316760 0.385350 -0.571828
O3    O     O_R   0.285350 0.500020 0.614650 -0.620041
O4    O     O_R   0.285340 0.499980 0.385310 -0.620910
O5    O     O_R   0.500000 0.683240 0.614650 -0.596869
O6    O     O_R   0.499980 0.683210 0.385310 -0.629104
O7    O     O_R   0.714660 0.500020 0.614690 -0.629461
O8    O     O_R   0.714650 0.499980 0.385350 -0.617815
Zn1   Zn    Zn3+2 0.500010 0.500020 0.653130 0.944858
Zn2   Zn    Zn3+2 0.499990 0.499980 0.346870 0.957671
O9    O     O_3   0.655004 0.130528 0.293671 -0.592232
C21   C     C_3   0.645343 0.078865 0.162079 0.100844
H11   H     H_    0.530915 0.042021 0.139060 0.126963
H12   H     H_    0.729747 0.003083 0.150431 0.138966
C22   C     C_3   0.681127 0.179724 0.058952 -0.803650
H13   H     H_    0.789003 0.226210 0.084591 0.262024
H14   H     H_    0.690941 0.137429 0.956744 0.188176
H15   H     H_    0.589896 0.250283 0.057733 0.257156
N3    N     N_3   0.545508 0.884315 0.804772 -0.416753
H16   H     H_    0.540301 0.902903 0.908535 0.172562
H17   H     H_    0.639233 0.931745 0.766862 0.197323

loop_
_geom_bond_atom_site_label_1
_geom_bond_atom_site_label_2
_ccdc_geom_bond_type
C13   H2    S    
C7    C10   A    
N2    Zn1   S    
N1    Zn2   S    
C14   O6    A    
O4    Zn2   S    
C19   C20   A    
O2    Zn2   S    
C21   C22   S    
C9    H9    S    
O9    C21   S    
O1    Zn1   S    
O8    Zn2   S    
C2    C3    A    
C1    O1    A    
O7    Zn1   S    
C12   O3    A    
C2    H4    S    
C11   C13   S    
C15   O7    A    
C6    H7    S    
C6    H6    S    
C3    C14   S    
O3    Zn1   S    
C21   H12   S    
C1    O2    A    
O6    Zn2   S    
C22   H15   S    
O5    Zn1   S    
C5    C6    S    
C8    H8    S    
C6    C18   S    
C5    H5    S    
C15   O8    A    
C1    C19   S    
C12   O4    A    
C10   C11   S    
C2    C20   A    
N3    H16   S    
C16   C17   T    
C10   N2    A    
C7    C13   S    
C20   O9    S    
C7    N1    A    
C21   H11   S    
C13   H3    S    
C22   H14   S    
C18   C19   A    
C15   C17   S    
C4    C5    S    
C14   O5    A    
C12   C16   S    
C9    N2    A    
C8    N1    A    
C4    C18   A    
C11   H1    S    
C5    N3    S    
C3    C4    A    
C22   H13   S    
C11   H10   S    
C8    C9    A    
N3    H17   S    
