data_mof_unit_65429.cif
_audit_creation_date              2012-12-10T16:48:55-0500
_audit_creation_method            fapswitch 2.2
_symmetry_space_group_name_H-M    P1
_symmetry_Int_Tables_number       1
_space_group_crystal_system       triclinic
_cell_length_a                    18.413501
_cell_length_b                    18.422478
_cell_length_c                    18.420551
_cell_angle_alpha                 119.776572
_cell_angle_beta                  119.670422
_cell_angle_gamma                 90.475209
_cell_volume                      4436.9364282

loop_
_atom_site_label
_atom_site_type_symbol
_atom_type_description
_atom_site_fract_x
_atom_site_fract_y
_atom_site_fract_z
_atom_type_partial_charge
C1    C     C_R   0.138431 0.361428 0.999732 0.507253
C2    C     C_2   0.829254 0.714635 0.021977 0.018209
C3    C     C_2   0.722896 0.281216 0.443948 -0.161788
C4    C     C_R   0.864073 0.641089 0.002618 0.510003
C5    C     C_2   0.690258 0.192345 0.387801 -0.096748
C6    C     C_2   0.775972 0.337295 0.556304 -0.165172
C7    C     C_2   0.809743 0.304641 0.612255 -0.101572
C8    C     C_2   0.337330 0.281119 0.056846 -0.163504
C9    C     C_2   0.304627 0.192287 0.001221 -0.096924
C10   C     C_2   0.281128 0.337336 0.059480 -0.163492
C11   C     C_2   0.192245 0.304490 0.995846 -0.105160
C12   C     C_3   0.703110 0.253613 0.897567 -0.115046
C13   C     C_2   0.217261 0.780358 0.941964 -0.161751
C14   C     C_2   0.304941 0.797591 0.993049 -0.089716
C15   C     C_2   0.161552 0.720226 0.937492 -0.161623
C16   C     C_R   0.138513 0.638170 0.276988 0.509598
C17   C     C_2   0.195474 0.702560 0.007544 -0.090122
C18   C     C_2   0.218873 0.777014 0.556257 -0.161513
C19   C     C_2   0.307742 0.809441 0.612237 -0.097267
C20   C     C_2   0.162641 0.723567 0.443870 -0.163067
C21   C     C_2   0.195308 0.690850 0.387714 -0.095124
C22   C     C_R   0.638088 0.138407 0.277018 0.511379
C23   C     C_3   0.800159 0.300460 0.998776 0.051723
C24   C     C_R   0.361641 0.861899 0.722993 0.508659
C25   C     C_R   0.637133 0.860097 0.998641 0.510248
C26   C     C_R   0.361473 0.138389 0.000161 0.509593
C27   C     C_R   0.359461 0.858449 0.998975 0.515923
C28   C     C_R   0.861908 0.361427 0.723006 0.510914
C29   C     C_R   0.641798 0.141298 0.000561 0.502081
C30   C     C_R   0.140506 0.641554 0.001009 0.514667
C31   C     C_R   0.858154 0.358695 0.999456 0.516092
C32   C     C_3   0.840707 0.229251 0.011258 -0.109203
C33   C     C_3   0.782728 0.172840 0.016824 -0.247582
C34   C     C_3   0.698134 0.198804 0.999254 0.058904
C35   C     C_3   0.790104 0.357688 0.087947 -0.248741
C36   C     C_R   0.939697 0.266949 0.097755 0.027556
C37   C     C_R   0.970972 0.312306 0.201310 -0.094560
C38   C     C_R   0.062016 0.347975 0.278198 -0.111745
C39   C     C_R   0.123152 0.338734 0.253175 -0.103510
C40   C     C_R   0.093388 0.293238 0.151077 -0.110780
C41   C     C_R   0.002470 0.257264 0.073879 -0.083755
C42   C     C_3   0.547505 0.177229 0.840650 -0.265047
C43   C     C_3   0.525390 0.253801 0.904017 -0.298619
C44   C     C_3   0.429682 0.247273 0.837879 -0.453016
C45   C     C_3   0.731694 0.298467 0.088825 -0.236312
C46   C     C_3   0.864097 0.786306 0.132874 -0.250334
C47   C     C_3   0.966052 0.826020 0.201904 -0.291735
C48   C     C_3   0.000219 0.899260 0.311891 -0.455217
C49   C     C_R   0.696500 0.215739 0.798272 0.032420
C50   C     C_R   0.674838 0.262785 0.753221 -0.084238
C51   C     C_R   0.668177 0.230771 0.662920 -0.093005
C52   C     C_R   0.683051 0.151428 0.616021 -0.087995
C53   C     C_R   0.704473 0.103865 0.659259 -0.099550
C54   C     C_R   0.711023 0.135359 0.749452 -0.080119
C55   C     C_3   0.647228 0.184800 0.892578 -0.100942
C56   C     C_2   0.726941 0.782497 0.947007 -0.171129
C57   C     C_2   0.685200 0.797802 0.992635 -0.110347
C58   C     C_2   0.775006 0.719183 0.942457 -0.149709
H1    H     H_    0.759065 0.407028 0.079344 0.121800
H2    H     H_    0.801239 0.234853 0.578063 0.102448
H3    H     H_    0.408425 0.314893 0.103738 0.151849
H4    H     H_    0.234640 0.156190 0.955647 0.103442
H5    H     H_    0.314963 0.408584 0.115387 0.155594
H6    H     H_    0.156031 0.234313 0.937290 0.102704
H7    H     H_    0.184914 0.809736 0.901078 0.156959
H8    H     H_    0.338462 0.765413 0.029467 0.104065
H9    H     H_    0.091212 0.691140 0.875998 0.157287
H10   H     H_    0.264155 0.734495 0.073068 0.104124
H11   H     H_    0.185087 0.790768 0.593680 0.154169
H12   H     H_    0.676543 0.322924 0.086783 0.128336
H13   H     H_    0.763828 0.101190 0.957579 0.117680
H14   H     H_    0.343771 0.799681 0.578158 0.103880
H15   H     H_    0.091589 0.709970 0.406608 0.152031
H16   H     H_    0.265241 0.700656 0.421654 0.105395
H17   H     H_    0.819981 0.180493 0.090944 0.116194
H18   H     H_    0.855620 0.397638 0.162833 0.137806
H19   H     H_    0.771142 0.306249 0.163064 0.120385
H20   H     H_    0.673221 0.306948 0.905935 0.109153
H21   H     H_    0.643752 0.117533 0.839224 0.125798
H22   H     H_    0.925619 0.319928 0.223461 0.093402
H23   H     H_    0.720668 0.811460 0.906108 0.156001
H24   H     H_    0.085193 0.382813 0.357398 0.106988
H25   H     H_    0.193588 0.366586 0.312891 0.110087
H26   H     H_    0.140801 0.285922 0.131649 0.111144
H27   H     H_    0.981210 0.222668 0.995316 0.122639
H28   H     H_    0.419719 0.253243 0.776714 0.151048
H29   H     H_    0.382982 0.182839 0.802605 0.154869
H30   H     H_    0.414731 0.301890 0.885956 0.147527
H31   H     H_    0.532207 0.250141 0.965268 0.184286
H32   H     H_    0.569979 0.319159 0.938878 0.151478
H33   H     H_    0.523662 0.170535 0.768367 0.147547
H34   H     H_    0.687121 0.764140 0.027796 0.110659
H35   H     H_    0.508483 0.114359 0.817808 0.148232
H36   H     H_    0.974231 0.954246 0.315263 0.153395
H37   H     H_    0.979373 0.872367 0.343437 0.155836
H38   H     H_    0.073867 0.926150 0.359812 0.145258
H39   H     H_    0.995970 0.774019 0.202364 0.181505
H40   H     H_    0.988586 0.854267 0.172465 0.160178
H41   H     H_    0.839681 0.842718 0.141181 0.151590
H42   H     H_    0.841402 0.756596 0.161019 0.148835
H43   H     H_    0.663546 0.324896 0.788298 0.081143
H44   H     H_    0.651721 0.267749 0.629445 0.103721
H45   H     H_    0.762139 0.671623 0.868161 0.140573
H46   H     H_    0.677815 0.126701 0.546050 0.098138
H47   H     H_    0.715600 0.042092 0.622498 0.101826
H48   H     H_    0.726055 0.095433 0.778945 0.077912
H49   H     H_    0.709432 0.315076 0.406714 0.153096
H50   H     H_    0.699548 0.156424 0.421887 0.098204
H51   H     H_    0.788483 0.408260 0.593723 0.153935
H52   H     H_    0.835541 0.182760 0.940043 0.115348
O1    O     O_3   0.000000 0.500000 0.000000 -0.438684
O2    O     O_R   0.324760 0.053850 0.939900 -0.543542
O3    O     O_R   0.443270 0.883090 0.060070 -0.543355
O4    O     O_R   0.053940 0.324750 0.939940 -0.550007
O5    O     O_R   0.616890 0.176890 0.060090 -0.558283
O6    O     O_R   0.323100 0.883090 0.939900 -0.544096
O7    O     O_R   0.616910 0.056740 0.939940 -0.555281
O8    O     O_R   0.615250 0.885990 0.939940 -0.539783
O9    O     O_R   0.446110 0.175200 0.060060 -0.545578
O10   O     O_R   0.614030 0.053850 0.229160 -0.541982
O11   O     O_R   0.324790 0.884790 0.770830 -0.541640
O12   O     O_R   0.053880 0.613970 0.229150 -0.545385
O13   O     O_R   0.884790 0.613970 0.060060 -0.551239
O14   O     O_R   0.175250 0.615170 0.229170 -0.542406
O15   O     O_R   0.886020 0.446110 0.770840 -0.543495
O16   O     O_R   0.176940 0.616860 0.060100 -0.543986
O17   O     O_R   0.883150 0.323060 0.939910 -0.539662
O18   O     O_R   0.056770 0.616860 0.939930 -0.544746
O19   O     O_R   0.883130 0.443210 0.060060 -0.551731
O20   O     O_R   0.884840 0.324750 0.770840 -0.533613
O21   O     O_R   0.175280 0.446110 0.060100 -0.537998
O22   O     O_R   0.885990 0.615170 0.939900 -0.549359
O23   O     O_3   0.500040 0.999960 0.000000 -0.437035
O24   O     O_R   0.615200 0.175200 0.229160 -0.542567
O25   O     O_R   0.446160 0.885990 0.770850 -0.545505
O26   O     O_R   0.614060 0.884790 0.060100 -0.542756
Zn1   Zn    Zn3+2 0.956210 0.542060 0.085830 0.918076
Zn2   Zn    Zn3+2 0.129620 0.543770 0.085850 0.934850
Zn3   Zn    Zn3+2 0.957930 0.543770 0.914160 0.923646
Zn4   Zn    Zn3+2 0.956240 0.370390 0.914160 0.936825
Zn5   Zn    Zn3+2 0.543830 0.957900 0.914170 0.921306
Zn6   Zn    Zn3+2 0.542120 0.956180 0.085840 0.936347
Zn7   Zn    Zn3+2 0.370430 0.956180 0.914150 0.930426
Zn8   Zn    Zn3+2 0.543800 0.129560 0.085840 0.916287

loop_
_geom_bond_atom_site_label_1
_geom_bond_atom_site_label_2
_ccdc_geom_bond_type
C46   H41   S    
C30   O16   A    
C16   C21   S    
O9    Zn8   S    
C57   H34   S    
C42   H35   S    
C40   H26   S    
C2    C4    S    
C10   H5    S    
C1    C11   S    
C31   O17   A    
C28   O15   A    
C3    C6    S    
O20   Zn4   S    
C25   O8    A    
C12   C49   S    
C36   C41   A    
O1    Zn3   S    
C56   H23   S    
C4    O22   A    
C13   H7    S    
C53   C54   A    
O15   Zn3   S    
O22   Zn3   S    
C22   O10   A    
C12   C23   S    
O23   Zn6   S    
C43   H31   S    
C47   H40   S    
C32   H52   S    
C22   O24   A    
C32   C36   S    
O2    Zn7   S    
O14   Zn2   S    
C36   C37   A    
C48   H37   S    
O18   Zn3   S    
C18   C19   D    
C38   C39   A    
O3    Zn6   S    
C49   C54   A    
C56   C57   D    
C35   H1    S    
C42   H33   S    
C25   O26   A    
O11   Zn7   S    
O26   Zn6   S    
C46   C47   S    
C33   H17   S    
O16   Zn2   S    
C5    C22   S    
C8    C9    D    
C17   H10   S    
C12   H20   S    
O1    Zn4   S    
O4    Zn4   S    
C14   C27   S    
C44   H29   S    
C18   C20   S    
C8    H3    S    
C27   O6    A    
O8    Zn5   S    
C18   H11   S    
C29   O5    A    
C34   C55   S    
C13   C14   D    
C38   H24   S    
C17   C30   S    
C19   H14   S    
C25   C57   S    
C44   H28   S    
C9    C26   S    
C50   C51   A    
C37   H22   S    
C30   O18   A    
C35   H18   S    
O23   Zn7   S    
C43   H32   S    
C54   H48   S    
C51   C52   A    
O10   Zn6   S    
C26   O9    A    
C11   H6    S    
C1    O4    A    
C39   C40   A    
C3    C5    D    
C29   O7    A    
C21   H16   S    
C2    C46   S    
C7    C28   S    
C9    H4    S    
C4    O13   A    
C51   H44   S    
C23   C31   S    
O7    Zn5   S    
C43   C44   S    
C37   C38   A    
C42   C55   S    
O6    Zn7   S    
C55   H21   S    
C47   C48   S    
C15   H9    S    
C33   C34   S    
C14   H8    S    
C34   C45   S    
C16   O12   A    
C48   H36   S    
C27   O3    A    
C24   O25   A    
C40   C41   A    
C23   C35   S    
C13   C15   S    
C6    H51   S    
O17   Zn4   S    
C35   C45   S    
C26   O2    A    
C7    H2    S    
C52   C53   A    
O1    Zn1   S    
C15   C17   D    
C46   H42   S    
O5    Zn8   S    
C52   H46   S    
O23   Zn8   S    
C48   H38   S    
C45   H12   S    
O12   Zn1   S    
C1    O21   A    
C2    C58   D    
C6    C7    D    
C41   H27   S    
O13   Zn1   S    
O23   Zn5   S    
C47   H39   S    
C3    H49   S    
C23   C32   S    
C19   C24   S    
C16   O14   A    
C39   H25   S    
C31   O19   A    
O21   Zn2   S    
C32   C33   S    
C29   C34   S    
C24   O11   A    
C56   C58   S    
C20   H15   S    
C28   O20   A    
C12   C55   S    
C10   C11   D    
C33   H13   S    
O24   Zn8   S    
C53   H47   S    
O25   Zn5   S    
O19   Zn1   S    
C20   C21   D    
C50   H43   S    
C8    C10   S    
C49   C50   A    
C42   C43   S    
C45   H19   S    
C58   H45   S    
C44   H30   S    
O1    Zn2   S    
C5    H50   S    
