data_mof_unit_15998.cif
_audit_creation_date              2012-12-11T16:08:24-0500
_audit_creation_method            fapswitch 2.2
_symmetry_space_group_name_H-M    P1
_symmetry_Int_Tables_number       1
_space_group_crystal_system       triclinic
_cell_length_a                    19.973946
_cell_length_b                    20.073556
_cell_length_c                    19.843667
_cell_angle_alpha                 110.673484
_cell_angle_beta                  107.025553
_cell_angle_gamma                 110.956548
_cell_volume                      6099.76206445

loop_
_atom_site_label
_atom_site_type_symbol
_atom_type_description
_atom_site_fract_x
_atom_site_fract_y
_atom_site_fract_z
_atom_type_partial_charge
C1    C     C_R   0.668298 0.932410 0.967843 0.600221
C2    C     C_R   0.336542 0.066399 0.063563 0.623218
C3    C     C_R   0.456435 0.998761 0.231512 -0.183326
C4    C     C_R   0.468802 0.998971 0.757114 -0.171595
C5    C     C_R   0.746152 0.227779 0.243327 -0.127059
C6    C     C_R   0.267484 0.724595 0.771492 -0.143856
C7    C     C_R   0.448056 0.721992 0.947807 -0.345611
C8    C     C_R   0.540385 0.271572 0.037761 -0.307609
C9    C     C_3   0.537802 0.528103 0.042838 0.333157
C10   C     C_3   0.409391 0.429952 0.890787 0.345355
C11   C     C_3   0.535235 0.535752 0.967763 0.283524
C12   C     C_3   0.412069 0.422031 0.966078 0.261240
C13   C     C_1   0.433189 0.642770 0.932133 0.159098
C14   C     C_1   0.535149 0.336335 0.029503 0.129749
C15   C     C_3   0.452312 0.516801 0.019758 0.260891
C16   C     C_3   0.495105 0.440990 0.914151 0.312361
C17   C     C_3   0.449443 0.524373 0.944419 -0.519379
C18   C     C_3   0.497914 0.433790 0.989519 -0.522724
C19   C     C_1   0.432790 0.583052 0.930098 0.381361
C20   C     C_1   0.522074 0.383663 0.014202 0.392269
C21   C     C_3   0.474206 0.027053 0.531481 0.304862
C22   C     C_3   0.323197 0.965704 0.420985 0.345089
C23   C     C_R   0.493631 0.067724 0.226366 0.560119
C24   C     C_R   0.461315 0.930219 0.762744 0.484896
C25   C     C_3   0.427955 0.949358 0.446274 0.275229
C26   C     C_3   0.369876 0.043919 0.507763 0.271674
C27   C     C_1   0.427869 0.996169 0.288584 0.155593
C28   C     C_1   0.436623 0.999476 0.683563 0.134190
C29   C     C_3   0.446205 0.074676 0.496121 0.305513
C30   C     C_3   0.351755 0.918277 0.457401 0.316902
C31   C     C_3   0.399233 0.996592 0.409665 -0.430592
C32   C     C_3   0.398635 0.996351 0.543754 -0.426797
C33   C     C_1   0.409579 0.995871 0.340524 0.376253
C34   C     C_1   0.414083 0.998341 0.620327 0.391071
C35   C     C_3   0.989259 0.457613 0.484875 0.446145
C36   C     C_3   0.058697 0.399682 0.565093 0.467442
C37   C     C_3   0.002502 0.474019 0.569849 0.452199
C38   C     C_3   0.044300 0.382370 0.478535 0.464747
C39   C     C_1   0.208760 0.639214 0.716542 0.027850
C40   C     C_1   0.820992 0.269236 0.315556 0.018398
C41   C     C_3   0.076566 0.475142 0.506813 -0.491435
C42   C     C_3   0.969986 0.381334 0.541930 -0.473091
C43   C     C_3   0.089927 0.491775 0.593703 -0.099659
C44   C     C_3   0.957099 0.365151 0.455260 -0.112268
C45   C     C_R   0.737043 0.205455 0.166241 -0.095079
C46   C     C_R   0.269841 0.773444 0.841613 -0.069081
C47   C     C_1   0.157179 0.569388 0.664710 0.210294
C48   C     C_1   0.883210 0.307959 0.378091 0.218725
C49   C     C_3   0.057365 0.994607 0.151693 0.308693
C50   C     C_3   0.984641 0.005617 0.022665 0.287719
C51   C     C_3   0.043528 0.067098 0.156662 0.288890
C52   C     C_3   0.997306 0.933372 0.017576 0.311739
C53   C     C_1   0.819689 0.005379 0.050346 0.043290
C54   C     C_1   0.203936 0.992977 0.058779 0.067681
C55   C     C_3   0.968482 0.931123 0.081126 0.324826
C56   C     C_3   0.072291 0.069010 0.092902 0.277006
C57   C     C_3   0.955455 0.003527 0.086194 -0.503619
C58   C     C_3   0.085548 0.996623 0.087652 -0.507930
C59   C     C_1   0.881863 0.005719 0.072559 0.381009
C60   C     C_1   0.152402 0.993444 0.076738 0.383478
C61   C     C_R   0.424655 0.768234 0.993860 0.496324
C62   C     C_R   0.570349 0.228102 0.999594 0.442498
C63   C     C_R   0.669178 0.198773 0.236694 0.566971
C64   C     C_R   0.341433 0.767361 0.775011 0.568998
C65   C     C_R   0.492796 0.768471 0.923556 0.589313
C66   C     C_R   0.498054 0.227259 0.065689 0.552230
C67   C     C_R   0.433571 0.930633 0.160898 -0.078662
C68   C     C_R   0.521611 0.068461 0.833921 -0.074540
C69   C     C_R   0.736947 0.070562 0.032677 -0.086666
C70   C     C_R   0.269059 0.928036 0.994392 -0.100617
C71   C     C_R   0.745265 0.002665 0.017934 -0.157739
C72   C     C_R   0.263553 0.995637 0.033906 -0.154015
H1    H     H_    0.926713 0.343149 0.556024 0.220686
H2    H     H_    0.119556 0.513184 0.492353 0.220737
H3    H     H_    0.785520 0.225905 0.151589 0.168879
H4    H     H_    0.227348 0.753958 0.863696 0.194453
H5    H     H_    0.392089 0.868074 0.141978 0.234663
H6    H     H_    0.540511 0.131241 0.848600 0.202037
H7    H     H_    0.786122 0.133379 0.062035 0.166716
H8    H     H_    0.227920 0.864394 0.974789 0.188195
N1    N     N_R   0.613530 0.956740 0.956480 -0.085864
N2    N     N_R   0.386470 0.043260 0.043520 -0.102368
N3    N     N_R   0.499750 0.043260 0.156770 -0.128546
N4    N     N_R   0.500250 0.956740 0.843230 -0.111440
N5    N     N_R   0.656790 0.157020 0.113500 -0.086189
N6    N     N_R   0.343210 0.842980 0.886500 -0.095421
N7    N     N_R   0.456490 0.842980 0.999750 -0.150503
N8    N     N_R   0.543510 0.157020 0.000250 -0.150990
N9    N     N_R   0.613500 0.157010 0.156770 -0.093292
N10   N     N_R   0.386500 0.842990 0.843230 -0.113951
N11   N     N_R   0.499770 0.842990 0.956480 -0.127119
N12   N     N_R   0.500230 0.157010 0.043520 -0.119346
N13   N     N_R   0.456470 0.956710 0.113500 -0.091529
N14   N     N_R   0.543530 0.043290 0.886500 -0.066962
N15   N     N_R   0.656800 0.043290 0.999750 -0.078412
N16   N     N_R   0.343200 0.956710 0.000250 -0.090692
Ni1   Ni    Ni4+2 0.500010 0.900760 0.900750 0.351396
Ni2   Ni    Ni4+2 0.499990 0.099240 0.099250 0.345056
Ni3   Ni    Ni4+2 0.599260 0.099260 0.000000 0.297909
Ni4   Ni    Ni4+2 0.400740 0.900740 0.000000 0.254520
O1    O     O_3   0.649917 0.851551 0.931951 -0.653196
H9    H     H_    0.701663 0.851411 0.949299 0.359887
O2    O     O_3   0.361141 0.145993 0.118707 -0.616079
H10   H     H_    0.313350 0.146504 0.123522 0.360038
S1    S     S_3+6 0.623434 0.590682 0.143450 0.112943
O3    O     O_2   0.600760 0.563563 0.199023 -0.203361
O4    O     O_2   0.693473 0.580399 0.139954 -0.193947
O5    O     O_3   0.650714 0.690847 0.179433 -0.420851
H11   H     H_    0.698783 0.721653 0.234449 0.394170
S2    S     S_3+6 0.324312 0.368247 0.789971 0.116381
O6    O     O_2   0.251401 0.371005 0.794216 -0.180447
O7    O     O_2   0.344835 0.402244 0.737705 -0.219815
O8    O     O_3   0.303315 0.269635 0.749145 -0.409153
H12   H     H_    0.260821 0.240897 0.691353 0.399614
S3    S     S_3+6 0.524593 0.388738 0.845990 0.120425
O9    O     O_2   0.614687 0.422314 0.890928 -0.189771
O10   O     O_2   0.478379 0.297397 0.815402 -0.194289
O11   O     O_3   0.503133 0.404093 0.766249 -0.422124
H13   H     H_    0.515936 0.369176 0.728786 0.393412
S4    S     S_3+6 0.423261 0.568923 0.088620 0.109970
O12   O     O_2   0.478958 0.661183 0.130492 -0.155578
O13   O     O_2   0.336940 0.546648 0.041181 -0.236975
O14   O     O_3   0.430666 0.541116 0.159921 -0.412307
H14   H     H_    0.373831 0.501613 0.143484 0.379969
S5    S     S_3+6 0.469537 0.888680 0.408161 0.080227
O15   O     O_2   0.405576 0.815264 0.324031 -0.185375
O16   O     O_2   0.541866 0.941001 0.403557 -0.268279
O17   O     O_3   0.499275 0.855689 0.471909 -0.403989
H15   H     H_    0.519084 0.820603 0.445918 0.399258
S6    S     S_3+6 0.327182 0.102490 0.547046 0.077061
O18   O     O_2   0.256330 0.048526 0.552299 -0.220537
O19   O     O_2   0.390507 0.175913 0.631377 -0.193623
O20   O     O_3   0.293991 0.134949 0.483986 -0.444547
H16   H     H_    0.340275 0.190889 0.506074 0.392710
O21   O     O_3   0.553803 0.059238 0.590601 -0.613280
H17   H     H_    0.588452 0.071720 0.564678 0.379098
O22   O     O_3   0.244164 0.933708 0.361105 -0.582552
H18   H     H_    0.208693 0.919945 0.385944 0.371036
S7    S     S_3+6 0.286141 0.814870 0.430471 0.081920
O23   O     O_2   0.336094 0.784144 0.467811 -0.183589
O24   O     O_2   0.226213 0.813940 0.462062 -0.250916
O25   O     O_3   0.235529 0.753408 0.327743 -0.430133
H19   H     H_    0.201291 0.697195 0.317121 0.391920
S8    S     S_3+6 0.511793 0.178356 0.523709 0.064946
O26   O     O_2   0.582749 0.183391 0.509252 -0.230925
O27   O     O_2   0.465055 0.202345 0.472234 -0.228343
O28   O     O_3   0.546433 0.242874 0.623533 -0.455256
H20   H     H_    0.579194 0.299226 0.633671 0.384983
O29   O     O_3   0.981960 0.524526 0.618102 -0.682936
H21   H     H_    0.921712 0.496867 0.587035 0.353362
O30   O     O_3   0.063996 0.331506 0.429523 -0.643260
H22   H     H_    0.124170 0.358439 0.460355 0.358951
O31   O     O_3   0.950900 0.487535 0.442694 -0.680191
H23   H     H_    0.986350 0.548879 0.476413 0.354633
O32   O     O_3   0.098241 0.371415 0.608418 -0.653556
H24   H     H_    0.063900 0.309979 0.575043 0.354820
S9    S     S_3+6 0.069270 0.154603 0.247724 0.119474
O33   O     O_2   0.044923 0.209719 0.225590 -0.168225
O34   O     O_2   0.023923 0.125314 0.289569 -0.220395
O35   O     O_3   0.170510 0.208806 0.311376 -0.414486
H25   H     H_    0.178029 0.187511 0.349363 0.390583
S10   S     S_3+6 0.968247 0.844282 0.925786 0.096481
O36   O     O_2   0.007686 0.871774 0.879158 -0.221805
O37   O     O_2   0.996049 0.790988 0.947849 -0.215205
O38   O     O_3   0.866125 0.789634 0.867432 -0.413287
H26   H     H_    0.854586 0.741185 0.818622 0.392230
S11   S     S_3+6 0.110205 0.986933 0.235659 0.097465
O39   O     O_2   0.105093 0.904398 0.203296 -0.168033
O40   O     O_2   0.198296 0.055435 0.283077 -0.230644
O41   O     O_3   0.067465 0.995296 0.297330 -0.434115
H27   H     H_    0.102236 0.994626 0.344081 0.401530
S12   S     S_3+6 0.935795 0.012822 0.936406 0.076333
O42   O     O_2   0.851418 0.937528 0.879611 -0.200952
O43   O     O_2   0.929955 0.089513 0.965677 -0.258746
O44   O     O_3   0.990632 0.017938 0.886379 -0.424462
H28   H     H_    0.960801 0.022909 0.840564 0.394328
S13   S     S_3+6 0.489194 0.157528 0.275468 0.050966
O45   O     O_2   0.545698 0.203113 0.366090 -0.172521
O46   O     O_2   0.513962 0.213875 0.242720 -0.185615
O47   O     O_3   0.393347 0.128557 0.259924 -0.528773
H29   H     H_    0.395811 0.180870 0.291799 0.416976
S14   S     S_3+6 0.453551 0.845959 0.684558 0.056406
O48   O     O_2   0.490041 0.875334 0.636960 -0.196681
O49   O     O_2   0.499898 0.812212 0.721655 -0.175465
O50   O     O_3   0.354599 0.771998 0.619975 -0.503139
H30   H     H_    0.355234 0.725163 0.581107 0.402532
S15   S     S_3+6 0.143631 0.160776 0.101962 0.101706
O51   O     O_2   0.222252 0.205853 0.180108 -0.187105
O52   O     O_2   0.160237 0.137320 0.030457 -0.244119
O53   O     O_3   0.105586 0.223488 0.104033 -0.407339
H31   H     H_    0.091220 0.220278 0.050346 0.394024
S16   S     S_3+6 0.897088 0.841123 0.074168 0.093834
O54   O     O_2   0.886806 0.866842 0.149576 -0.199942
O55   O     O_2   0.816212 0.798874 0.999434 -0.234423
O56   O     O_3   0.932028 0.775536 0.067151 -0.418218
H32   H     H_    0.894701 0.732219 0.072884 0.386470
S17   S     S_3+6 0.337018 0.721589 0.003234 -0.010664
O57   O     O_2   0.362560 0.721905 0.082549 -0.195513
O58   O     O_2   0.291855 0.767306 0.001459 -0.357251
O59   O     O_3   0.274332 0.622674 0.924877 -0.493616
H33   H     H_    0.229729 0.598924 0.936979 0.410530
S18   S     S_3+6 0.659055 0.275234 0.992169 0.003821
O60   O     O_2   0.719565 0.358632 0.068999 -0.212031
O61   O     O_2   0.696415 0.221744 0.981902 -0.298166
O62   O     O_3   0.634467 0.288532 0.911261 -0.471353
H34   H     H_    0.686577 0.314831 0.910654 0.409936
O63   O     O_3   0.651682 0.206993 0.299906 -0.703106
H35   H     H_    0.703661 0.240300 0.352029 0.334004
O64   O     O_3   0.375914 0.730097 0.736730 -0.650787
H36   H     H_    0.332715 0.672472 0.692201 0.327215
O65   O     O_3   0.502795 0.736818 0.855778 -0.599393
H37   H     H_    0.486668 0.678138 0.837587 0.348851
O66   O     O_3   0.474327 0.257416 0.122124 -0.607013
H38   H     H_    0.484960 0.313233 0.132689 0.356155
S19   S     S_3+6 0.615714 0.612296 0.967335 0.102613
O67   O     O_2   0.588879 0.597602 0.881757 -0.216649
O68   O     O_2   0.634944 0.697420 0.024313 -0.220315
O69   O     O_3   0.699412 0.605235 0.998582 -0.413745
H39   H     H_    0.736984 0.640712 0.986194 0.397263
S20   S     S_3+6 0.332356 0.343814 0.965526 0.086185
O70   O     O_2   0.310358 0.259549 0.903217 -0.173534
O71   O     O_2   0.361400 0.352597 0.048838 -0.269651
O72   O     O_3   0.249409 0.353093 0.940870 -0.411234
H40   H     H_    0.249267 0.379930 0.993324 0.377273

loop_
_geom_bond_atom_site_label_1
_geom_bond_atom_site_label_2
_ccdc_geom_bond_type
C25   C31   S    
C26   C32   S    
O53   H31   S    
N7    N11   A    
N2    Ni2   S    
C36   C42   S    
O72   H40   S    
C67   H5    S    
C64   N10   A    
O17   H15   S    
C46   H4    S    
C53   C59   T    
N12   Ni2   S    
O14   H14   S    
S11   O40   D    
C54   C60   T    
O66   H38   S    
O5    H11   S    
C8    C66   A    
S1    O4    D    
C22   O22   S    
O38   H26   S    
S18   O61   D    
N4    Ni1   S    
C2    O2    S    
C35   C37   S    
C49   S11   S    
S19   O68   D    
C6    C46   A    
C4    C24   A    
S7    O25   S    
N15   Ni3   S    
C57   C59   S    
O41   H27   S    
C10   C17   S    
C9    S1    S    
S3    O9    D    
N3    N13   A    
O2    H10   S    
C15   S4    S    
C5    C63   A    
C40   C48   T    
C51   C56   S    
C23   N3    A    
C6    C64   A    
C37   C42   S    
C69   C71   A    
C25   S5    S    
S14   O48   D    
C62   S18   S    
S15   O53   S    
C21   C25   S    
C61   N7    A    
O28   H20   S    
C41   H2    S    
O11   H13   S    
C3    C23   A    
S9    O33   D    
C7    C61   A    
N8    N12   A    
S12   O43   D    
O59   H33   S    
C49   C51   S    
S18   O62   S    
S5    O17   S    
C50   C52   S    
O30   H22   S    
C56   S15   S    
S6    O19   D    
C51   C57   S    
N6    Ni4   S    
N10   Ni1   S    
C26   S6    S    
C52   C55   S    
S3    O11   S    
C11   S19   S    
C28   C34   T    
S9    O34   D    
C63   O63   S    
C41   C43   S    
C42   C44   S    
S8    O28   S    
C2    C72   A    
S20   O71   D    
S20   O70   D    
C4    C28   S    
S4    O13   D    
S11   O41   S    
S10   O37   D    
C56   C58   S    
C68   H6    S    
C52   C58   S    
S1    O5    S    
N2    N16   A    
S18   O60   D    
C13   C19   T    
C24   S14   S    
O63   H35   S    
O1    H9    S    
C14   C20   T    
O21   H17   S    
C38   C41   S    
S8    O27   D    
C22   C31   S    
S19   O69   S    
C61   S17   S    
S11   O39   D    
C4    C68   A    
N5    N9    A    
C66   N12   A    
S3    O10   D    
C49   C55   S    
C29   S8    S    
C70   H8    S    
N3    Ni2   S    
C50   C56   S    
C49   C58   S    
S2    O6    D    
S14   O50   S    
C32   C34   S    
C37   C43   S    
S17   O59   S    
C70   N16   A    
S19   O67   D    
S16   O56   S    
C38   C44   S    
N5    Ni3   S    
C7    C65   A    
S10   O38   S    
C11   C16   S    
C51   S9    S    
O65   H37   S    
N13   Ni4   S    
C12   C15   S    
C58   C60   S    
S13   O47   S    
O69   H39   S    
C63   N9    A    
C31   C33   S    
O64   H36   S    
C1    N1    A    
N4    N14   A    
N11   Ni1   S    
S17   O58   D    
S5    O16   D    
C35   C44   S    
C9    C11   S    
S2    O8    S    
O8    H12   S    
C10   C12   S    
S9    O35   S    
C55   C57   S    
N6    N10   A    
S5    O15   D    
C64   O64   S    
C69   H7    S    
S6    O20   S    
C62   N8    A    
C12   C18   S    
S15   O52   D    
C53   C71   S    
C16   S3    S    
C1    O1    S    
C38   O30   S    
O32   H24   S    
S12   O42   D    
S12   O44   S    
C39   C47   T    
N7    Ni4   S    
S1    O3    D    
C25   C30   S    
C65   N11   A    
O62   H34   S    
C11   C17   S    
C42   H1    S    
C8    C14   S    
C30   S7    S    
C22   C30   S    
S14   O49   D    
O25   H19   S    
C50   C57   S    
C3    C67   A    
C35   O31   S    
C37   O29   S    
S8    O26   D    
C69   N15   A    
C21   C29   S    
C70   C72   A    
S7    O23   D    
S4    O14   S    
C15   C17   S    
C6    C39   S    
C65   O65   S    
S10   O36   D    
C68   N14   A    
O22   H18   S    
N9    Ni2   S    
C45   N5    A    
C45   H3    S    
C55   S16   S    
C66   O66   S    
C3    C27   S    
S6    O18   D    
C24   N4    A    
S15   O51   D    
C29   C31   S    
O44   H28   S    
C10   C16   S    
O29   H21   S    
S16   O54   D    
C30   C32   S    
S7    O24   D    
O50   H30   S    
O20   H16   S    
C12   S20   S    
C5    C45   A    
N14   Ni3   S    
C1    C71   A    
N1    N15   A    
N16   Ni4   S    
C36   C38   S    
C17   C19   S    
S13   O46   D    
C10   S2    S    
C18   C20   S    
C9    C15   S    
S17   O57   D    
C35   C41   S    
O35   H25   S    
S2    O7    D    
C23   S13   S    
N8    Ni3   S    
C2    N2    A    
O56   H32   S    
C21   C32   S    
C9    C18   S    
C7    C13   S    
C54   C72   S    
C26   C29   S    
C16   C18   S    
S13   O45   D    
C22   C26   S    
C5    C40   S    
C8    C62   A    
C27   C33   T    
C67   N13   A    
N1    Ni1   S    
S4    O12   D    
C36   C43   S    
C50   S12   S    
O31   H23   S    
C43   C47   S    
C21   O21   S    
S20   O72   S    
O47   H29   S    
C44   C48   S    
C36   O32   S    
C52   S10   S    
C46   N6    A    
S16   O55   D    
