data_mof_unit_61891.cif
_audit_creation_date              2013-03-05T16:25:28-0500
_audit_creation_method            fapswitch 2.2
_symmetry_space_group_name_H-M    P1
_symmetry_Int_Tables_number       1
_space_group_crystal_system       triclinic
_cell_length_a                    16.50822
_cell_length_b                    16.799355
_cell_length_c                    23.134678
_cell_angle_alpha                 91.591074
_cell_angle_beta                  92.175251
_cell_angle_gamma                 85.68846
_cell_volume                      6391.11584088

loop_
_atom_site_label
_atom_site_type_symbol
_atom_site_description
_atom_site_fract_x
_atom_site_fract_y
_atom_site_fract_z
_atom_type_partial_charge
O1    O     O_R   0.422340 0.612130 0.497340 -0.599659
O2    O     O_R   0.577660 0.387870 0.502660 -0.617088
O3    O     O_R   0.561240 0.618700 0.502080 -0.570381
O4    O     O_R   0.438760 0.381300 0.497920 -0.556501
C1    C     C_R   0.487322 0.650804 0.491196 0.938946
C2    C     C_R   0.512511 0.348342 0.502491 0.954425
O5    O     O_R   0.430530 0.496740 0.581480 -0.576076
O6    O     O_R   0.569470 0.503260 0.418520 -0.605747
O7    O     O_R   0.569440 0.503310 0.586210 -0.622268
O8    O     O_R   0.430560 0.496690 0.413790 -0.587999
C3    C     C_R   0.500498 0.500115 0.610804 0.958630
C4    C     C_R   0.500954 0.500663 0.389253 0.974723
Zn1   Zn    Zn3+2 0.407250 0.495610 0.496840 1.071535
Zn2   Zn    Zn3+2 0.592750 0.504390 0.503160 1.039269
C5    C     C_R   0.596712 0.447097 0.126073 0.632336
C6    C     C_R   0.582839 0.563645 0.879349 0.633716
N1    N     N_R   0.570301 0.518875 0.151195 -0.327719
N2    N     N_R   0.571188 0.490794 0.853296 -0.326464
C7    C     C_R   0.560008 0.587006 0.119584 0.601088
C8    C     C_R   0.575083 0.422569 0.884833 0.599127
C9    C     C_R   0.575029 0.583809 0.060396 -0.027606
C10   C     C_R   0.590167 0.426603 0.944732 -0.027070
C11   C     C_R   0.589634 0.508535 0.033035 -0.010811
C12   C     C_R   0.589717 0.502255 0.972409 -0.011418
C13   C     C_R   0.600273 0.439276 0.065969 -0.039247
C14   C     C_R   0.585499 0.571675 0.939612 -0.037266
C15   C     C_R   0.571550 0.653046 0.027470 -0.105739
C16   C     C_R   0.601519 0.357574 0.977835 -0.103770
C17   C     C_R   0.579491 0.647046 0.967647 -0.095961
C18   C     C_R   0.609277 0.363986 0.038009 -0.095350
O9    O     O_2   0.615794 0.382888 0.159089 -0.476337
O10   O     O_2   0.588437 0.628457 0.846921 -0.490492
O11   O     O_2   0.533587 0.656966 0.144967 -0.521067
O12   O     O_2   0.562741 0.351565 0.858557 -0.519281
H1    H     H_    0.562121 0.711757 0.047713 0.206497
H2    H     H_    0.603869 0.298674 0.957427 0.207379
H3    H     H_    0.575927 0.701347 0.943212 0.210239
H4    H     H_    0.617289 0.309799 0.062543 0.210405
C19   C     C_R   0.597062 0.441142 0.753042 -0.042553
C20   C     C_R   0.584751 0.568461 0.253037 -0.036735
C21   C     C_R   0.572062 0.439478 0.694758 -0.283070
C22   C     C_R   0.559294 0.567479 0.309847 -0.267121
H5    H     H_    0.607752 0.402655 0.664357 0.233668
H6    H     H_    0.586828 0.605532 0.342490 0.236724
C23   C     C_R   0.507727 0.491414 0.673689 -0.195344
C24   C     C_R   0.506654 0.511264 0.326895 -0.186027
C25   C     C_R   0.465448 0.543219 0.712490 0.349118
C26   C     C_R   0.474196 0.459277 0.285229 0.377181
C27   C     C_R   0.479651 0.534424 0.771942 0.396524
C28   C     C_R   0.486994 0.470065 0.226724 0.386069
C29   C     C_R   0.548906 0.487593 0.792594 0.046731
C30   C     C_R   0.546740 0.520359 0.210478 0.059170
C31   C     C_R   0.476259 0.734016 0.471220 -0.256311
C32   C     C_R   0.522036 0.263018 0.510302 -0.210974
C33   C     C_R   0.544347 0.774975 0.456979 0.443862
C34   C     C_R   0.550288 0.213639 0.464421 0.387500
C35   C     C_R   0.535955 0.856938 0.451778 -0.210753
C36   C     C_R   0.556584 0.131724 0.470407 -0.208850
C37   C     C_R   0.461989 0.899197 0.462949 -0.028845
C38   C     C_R   0.527890 0.098213 0.519664 -0.031047
C39   C     C_R   0.391106 0.858801 0.466947 0.419289
C40   C     C_R   0.501905 0.146730 0.566801 0.452565
C41   C     C_R   0.397356 0.774819 0.465764 -0.181492
C42   C     C_R   0.500133 0.229980 0.562752 -0.170357
C43   C     C_2   0.462272 0.985466 0.474231 -0.107685
C44   C     C_2   0.512946 0.013309 0.516933 -0.125361
H7    H     H_    0.575879 0.093644 0.434104 0.190701
H8    H     H_    0.589034 0.888766 0.443779 0.192371
N3    N     N_R   0.716290 0.510230 0.507380 -0.177629
N4    N     N_R   0.283710 0.489770 0.492620 -0.170275
C45   C     C_R   0.761480 0.460729 0.471077 -0.010718
C46   C     C_R   0.239426 0.531462 0.534155 -0.005419
C47   C     C_R   0.844498 0.471011 0.464058 -0.147413
C48   C     C_R   0.155196 0.524200 0.538404 -0.173895
C49   C     C_R   0.882706 0.528150 0.499304 0.035729
C50   C     C_R   0.115050 0.475352 0.498243 0.022438
C51   C     C_R   0.835218 0.578044 0.537232 -0.120351
C52   C     C_R   0.160659 0.432036 0.456007 -0.123335
C53   C     C_R   0.751395 0.567568 0.540760 0.059056
C54   C     C_R   0.245268 0.440887 0.453853 0.016634
C55   C     C_2   0.972257 0.534758 0.497627 -0.101123
C56   C     C_2   0.025525 0.469891 0.500013 -0.112543
H9    H     H_    0.003052 0.411126 0.502794 0.207601
H10   H     H_    0.994725 0.593831 0.496615 0.173504
Cl1   Cl    Cl    0.296040 0.913564 0.474871 -0.416751
Cl2   Cl    Cl    0.461130 0.103690 0.627451 -0.419249
C57   C     C_2   0.725278 0.392473 0.442066 1.047746
O13   O     O_2   0.696365 0.397996 0.392805 -0.551607
O14   O     O_R   0.733168 0.318951 0.469302 -0.744077
H11   H     H_    0.718141 0.273111 0.442740 0.385529
C58   C     C_2   0.279342 0.579849 0.578654 1.049015
O15   O     O_2   0.283668 0.557101 0.628442 -0.536800
O16   O     O_R   0.301025 0.655715 0.565651 -0.746981
H12   H     H_    0.316552 0.688837 0.600931 0.399801
C59   C     C_2   0.291671 0.395857 0.409844 1.032697
O17   O     O_2   0.291691 0.422340 0.361280 -0.503681
O18   O     O_R   0.327436 0.319830 0.421933 -0.761602
H13   H     H_    0.352532 0.291589 0.386993 0.386074
C60   C     C_2   0.703457 0.613064 0.584784 1.002782
O19   O     O_2   0.676221 0.681388 0.575629 -0.534420
O20   O     O_R   0.694095 0.579267 0.638404 -0.780074
H14   H     H_    0.660984 0.616160 0.665459 0.361045
C61   C     C_2   0.872444 0.640259 0.573869 0.919520
O21   O     O_2   0.926800 0.621390 0.609212 -0.565454
O22   O     O_R   0.843992 0.720291 0.568589 -0.715808
H15   H     H_    0.873670 0.757062 0.596142 0.374590
C62   C     C_2   0.120534 0.377378 0.414151 0.930782
O23   O     O_2   0.083021 0.323417 0.431725 -0.553619
O24   O     O_R   0.126634 0.387122 0.354713 -0.733607
H16   H     H_    0.097541 0.345846 0.330728 0.371572
C63   C     C_2   0.110761 0.563733 0.587411 0.981245
O25   O     O_2   0.072972 0.523962 0.619041 -0.506106
O26   O     O_R   0.113892 0.645831 0.597960 -0.753527
H17   H     H_    0.082993 0.665401 0.633277 0.393512
C64   C     C_2   0.889094 0.427211 0.416671 0.932011
O27   O     O_2   0.887687 0.354763 0.410722 -0.546452
O28   O     O_R   0.932833 0.469615 0.378844 -0.748386
H18   H     H_    0.959279 0.433957 0.347768 0.373307
C65   C     C_2   0.675722 0.397577 0.770053 1.054091
O29   O     O_2   0.716559 0.420971 0.811438 -0.596055
O30   O     O_R   0.704532 0.330794 0.737367 -0.743957
H19   H     H_    0.758970 0.306643 0.752762 0.373907
C66   C     C_2   0.654079 0.616392 0.240909 1.040159
O31   O     O_2   0.699310 0.596615 0.201533 -0.595376
O32   O     O_R   0.669336 0.683138 0.276025 -0.746301
H20   H     H_    0.718580 0.710387 0.264009 0.374433
Cl3   Cl    Cl    0.412477 0.631565 0.688884 -0.471496
Cl4   Cl    Cl    0.435247 0.369978 0.305013 -0.410179
Cl5   Cl    Cl    0.411738 0.585025 0.820328 -0.419828
Cl6   Cl    Cl    0.429792 0.417750 0.173940 -0.424822
Cl7   Cl    Cl    0.641068 0.727919 0.442681 -0.496524
Cl8   Cl    Cl    0.567481 0.251541 0.396048 -0.501659
C67   C     C_2   0.472346 0.280684 0.612804 0.953562
O33   O     O_2   0.415857 0.331419 0.606775 -0.571315
O34   O     O_R   0.508497 0.267269 0.667646 -0.711654
H21   H     H_    0.481837 0.302488 0.698912 0.370770
C68   C     C_2   0.323471 0.731574 0.450902 1.072990
O35   O     O_2   0.326726 0.677967 0.413979 -0.600609
O36   O     O_R   0.249799 0.753331 0.477039 -0.672091
H22   H     H_    0.204607 0.719248 0.462770 0.361081
C69   C     C_2   0.557127 0.960700 0.560697 1.039515
O37   O     O_2   0.622550 0.978752 0.581732 -0.547376
O38   O     O_R   0.522872 0.892625 0.579371 -0.745567
H23   H     H_    0.558879 0.862378 0.609115 0.381892
C70   C     C_2   0.410603 0.039221 0.435101 1.030330
O39   O     O_2   0.396233 0.017756 0.385043 -0.550942
O40   O     O_R   0.376200 0.112624 0.455894 -0.738653
H24   H     H_    0.341989 0.142869 0.425209 0.380439

loop_
_geom_bond_atom_site_label_1
_geom_bond_atom_site_label_2
_geom_bond_distance
_ccdc_geom_bond_type
C19   C29   1.414381 A    
C57   O13   1.221943 D    
O20   H14   1.013995 S    
C15   C17   1.395268 A    
C41   C68   1.490364 S    
C31   C33   1.415066 A    
C59   O17   1.219849 D    
C27   C29   1.413672 A    
C70   O39   1.223213 D    
C66   O31   1.222837 D    
C19   C21   1.395232 A    
C44   C69   1.494936 S    
O5    C3    1.321287 A    
C68   O36   1.398238 S    
O16   H12   1.010867 S    
C48   C50   1.403075 A    
O1    C1    1.309416 A    
C1    C31   1.480582 S    
C7    C9    1.399658 A    
C12   C14   1.404815 A    
C69   O38   1.399114 S    
C52   C54   1.418592 A    
C66   O32   1.398944 S    
C26   Cl4   1.754680 S    
Zn1   N4    2.047645 S    
C36   C38   1.398776 A    
O38   H23   1.013894 S    
C18   H4    1.083143 S    
C38   C40   1.403964 A    
C65   O29   1.222925 D    
C22   C24   1.404504 A    
C23   C25   1.401128 A    
O4    Zn1   1.952017 S    
N3    C45   1.367072 A    
C6    O10   1.350041 S    
C40   C42   1.402307 A    
C28   Cl6   1.770013 S    
O40   H24   1.013661 S    
C63   O26   1.398374 S    
C63   O25   1.222893 D    
C64   O28   1.398061 S    
C28   C30   1.413853 A    
C11   C12   1.403650 A    
O24   H16   1.013821 S    
C8    O12   1.349351 S    
C26   C28   1.396608 A    
C9    C15   1.404370 A    
C38   C44   1.464926 S    
C10   C16   1.404315 A    
C21   H5    1.084879 S    
O2    C2    1.305598 A    
C22   H6    1.084616 S    
C2    C32   1.445804 S    
O8    C4    1.319457 A    
N1    C30   1.438758 S    
C70   O40   1.398951 S    
N2    C29   1.438693 S    
O18   H13   1.012273 S    
C24   C26   1.401222 A    
C65   O30   1.398793 S    
C6    C14   1.396277 A    
C32   C34   1.401005 A    
C37   C39   1.403370 A    
N4    C54   1.369563 A    
C51   C61   1.481986 S    
O34   H21   1.014022 S    
C46   C48   1.412269 A    
C7    O11   1.349219 S    
C50   C56   1.489777 S    
C48   C63   1.487501 S    
C45   C47   1.410133 A    
C46   C58   1.461974 S    
C49   C55   1.492822 S    
C15   H1    1.083121 S    
C20   C30   1.414681 A    
C27   Cl5   1.769655 S    
C55   C56   1.348858 D    
C52   C62   1.487579 S    
C4    C24   1.465898 S    
O7    Zn2   1.974598 S    
C62   O24   1.397607 S    
C58   O16   1.393220 S    
O7    C3    1.296904 A    
C60   O19   1.221931 D    
O6    C4    1.298959 A    
C39   C41   1.406431 A    
C51   C53   1.413648 A    
C61   O22   1.397482 S    
C54   C59   1.457732 S    
C25   Cl3   1.754781 S    
C49   C51   1.414089 A    
O30   H19   1.013891 S    
C34   Cl8   1.762172 S    
O3    Zn2   1.952017 S    
C39   Cl1   1.771529 S    
C14   C17   1.405044 A    
C45   C57   1.467073 S    
O4    C2    1.300824 A    
C60   O20   1.397104 S    
C8    C10   1.399278 A    
C56   H9    1.084792 S    
C33   Cl7   1.766228 S    
C9    C11   1.406838 A    
C67   O33   1.221774 D    
Zn2   N3    2.047645 S    
C10   C12   1.406772 A    
N3    C53   1.367000 A    
O1    Zn1   1.991403 S    
C47   C49   1.411610 A    
C62   O23   1.222513 D    
C43   C70   1.494488 S    
C58   O15   1.221436 D    
C55   H10   1.086395 S    
C40   Cl2   1.773632 S    
O26   H17   1.013593 S    
C68   O35   1.223540 D    
C53   C60   1.474708 S    
C13   C18   1.404944 A    
C5    N1    1.372290 A    
C20   C66   1.487417 S    
C42   C67   1.484439 S    
O6    Zn2   1.980960 S    
C50   C52   1.408964 A    
C20   C22   1.395837 A    
O3    C1    1.314755 A    
O8    Zn1   1.974600 S    
O36   H22   1.014099 S    
C59   O18   1.397126 S    
C5    O9    1.350033 S    
C25   C27   1.396477 A    
O22   H15   1.013847 S    
C47   C64   1.490070 S    
C33   C35   1.381604 A    
O28   H18   1.013348 S    
C37   C43   1.465754 S    
C31   C41   1.428469 A    
O32   H20   1.013840 S    
C32   C42   1.418463 A    
C3    C23   1.465644 S    
C19   C65   1.486953 S    
C16   C18   1.395071 A    
N1    C7    1.371668 A    
C34   C36   1.382621 A    
N2    C8    1.371826 A    
C11   C13   1.404805 A    
O2    Zn2   1.991403 S    
C35   C37   1.394692 A    
C36   H7    1.084393 S    
O5    Zn1   1.980957 S    
C16   H2    1.083125 S    
C5    C13   1.396082 A    
C6    N2    1.372478 A    
C43   C44   1.365643 D    
C17   H3    1.083146 S    
C61   O21   1.220722 D    
C67   O34   1.398152 S    
C57   O14   1.397248 S    
C21   C23   1.404193 A    
N4    C46   1.373785 A    
C35   H8    1.084524 S    
O14   H11   1.011454 S    
C69   O37   1.223257 D    
C64   O27   1.222887 D    
