data_mof_unit_6610.cif
_audit_creation_date              2012-12-10T20:37:26-0500
_audit_creation_method            fapswitch 2.2
_symmetry_space_group_name_H-M    P1
_symmetry_Int_Tables_number       1
_space_group_crystal_system       triclinic
_cell_length_a                    15.697648
_cell_length_b                    10.675141
_cell_length_c                    9.9433
_cell_angle_alpha                 89.891298
_cell_angle_beta                  91.536949
_cell_angle_gamma                 90.668908
_cell_volume                      1665.52952114

loop_
_atom_site_label
_atom_site_type_symbol
_atom_type_description
_atom_site_fract_x
_atom_site_fract_y
_atom_site_fract_z
_atom_type_partial_charge
C1    C     C_R   0.503871 0.260237 0.500342 0.875759
C2    C     C_3   0.083178 0.500584 0.496570 0.021021
C3    C     C_3   0.972527 0.619899 0.486954 -0.300215
C4    C     C_3   0.916987 0.501375 0.503103 0.099853
C5    C     C_3   0.024769 0.548628 0.382835 0.452430
C6    C     C_3   0.968414 0.431376 0.399014 0.110867
C7    C     C_1   0.173929 0.500551 0.494270 0.098132
C8    C     C_1   0.826117 0.501387 0.505483 -0.014814
C9    C     C_R   0.528408 0.064075 0.622369 0.065715
C10   C     C_R   0.520258 0.129274 0.501088 -0.119994
C11   C     C_R   0.530153 0.065567 0.379240 -0.206127
C12   C     C_R   0.338146 0.500044 0.498339 0.905731
C13   C     C_R   0.528953 0.936033 0.378851 -0.174345
C14   C     C_R   0.517891 0.871598 0.500349 -0.154560
C15   C     C_R   0.526064 0.935955 0.621823 0.061529
C16   C     C_3   0.474464 0.928583 0.746063 0.252018
C17   C     C_3   0.479313 0.071867 0.749221 -0.124325
C18   C     C_R   0.425445 0.487837 0.067359 0.144752
C19   C     C_R   0.571469 0.527955 0.076725 -0.103289
C20   C     C_R   0.572125 0.529962 0.933829 0.230382
C21   C     C_R   0.425353 0.488647 0.925753 0.101162
C22   C     C_3   0.359539 0.386534 0.915393 0.139488
C23   C     C_R   0.502881 0.739937 0.499992 0.879701
C24   C     C_3   0.358785 0.385653 0.070052 0.419484
C25   C     C_R   0.661876 0.500275 0.501613 0.896268
C26   C     C_3   0.975810 0.453486 0.616464 0.208031
C27   C     C_3   0.028037 0.381700 0.512752 -0.207363
C28   C     C_1   0.249239 0.500396 0.494819 -0.046266
C29   C     C_1   0.750796 0.500925 0.504971 -0.183284
C30   C     C_3   0.032569 0.571472 0.602012 -0.177405
H1    H     H_    0.052220 0.284756 0.523355 0.172473
H2    H     H_    0.415991 0.116099 0.733858 0.151254
H3    H     H_    0.629065 0.548697 0.134933 0.164053
H4    H     H_    0.384669 0.300360 0.869315 0.097872
H5    H     H_    0.948278 0.716745 0.475837 0.183044
H6    H     H_    0.060865 0.627983 0.685913 0.198552
H7    H     H_    0.532104 0.114402 0.283862 0.179113
H8    H     H_    0.530140 0.887704 0.283214 0.202974
H9    H     H_    0.408914 0.891549 0.725340 0.105376
N1    N     N_R   0.499430 0.499140 0.142800 -0.140585
N2    N     N_R   0.499430 0.499180 0.857150 -0.129914
O1    O     O_R   0.500010 0.316790 0.614690 -0.623404
O2    O     O_R   0.500000 0.316760 0.385350 -0.632438
O3    O     O_R   0.376780 0.500010 0.614650 -0.574905
O4    O     O_R   0.376770 0.499970 0.385310 -0.574773
O5    O     O_R   0.500000 0.683240 0.614650 -0.583257
O6    O     O_R   0.499990 0.683210 0.385310 -0.606904
O7    O     O_R   0.623230 0.500030 0.614690 -0.631453
O8    O     O_R   0.623220 0.499990 0.385350 -0.623996
Zn1   Zn    Zn3+2 0.500010 0.500020 0.653130 0.984638
Zn2   Zn    Zn3+2 0.499990 0.499980 0.346870 0.980313
Cl1   Cl    Cl    0.529277 0.847809 0.879985 -0.627065
C31   C     C_3   0.532887 0.129630 0.865191 -0.754196
H10   H     H_    0.599457 0.095235 0.866225 0.270744
H11   H     H_    0.534864 0.233073 0.855616 0.225657
H12   H     H_    0.503790 0.104861 0.962108 0.250428
C32   C     C_3   0.654393 0.569039 0.872287 -0.731251
H13   H     H_    0.642902 0.643203 0.795997 0.289266
H14   H     H_    0.699654 0.610606 0.948059 0.199712
H15   H     H_    0.686335 0.485795 0.831415 0.226036
Cl2   Cl    Cl    0.262609 0.438047 0.834992 -0.525612
Cl3   Cl    Cl    0.262200 0.438730 0.142781 -0.463264
C33   C     C_3   0.388402 0.261533 0.131648 -0.886754
H16   H     H_    0.457445 0.247895 0.116993 0.201524
H17   H     H_    0.375646 0.259628 0.240683 0.286908
H18   H     H_    0.352281 0.182390 0.084263 0.249301
C34   C     C_3   0.946595 0.400072 0.749578 -0.822716
H19   H     H_    0.002941 0.373638 0.812733 0.275691
H20   H     H_    0.909476 0.471373 0.803230 0.243977
H21   H     H_    0.905889 0.315893 0.730752 0.230645
C35   C     C_3   0.930889 0.352798 0.284074 -0.813278
H22   H     H_    0.983126 0.313808 0.224495 0.271048
H23   H     H_    0.892127 0.274771 0.325211 0.232232
H24   H     H_    0.889848 0.412008 0.217964 0.250197
Cl4   Cl    Cl    0.059422 0.611734 0.227278 -0.527599

loop_
_geom_bond_atom_site_label_1
_geom_bond_atom_site_label_2
_ccdc_geom_bond_type
C33   H17   S    
C18   C21   A    
C19   C20   A    
C4    C8    S    
C20   N2    A    
C31   H10   S    
C26   C27   S    
C12   C28   S    
C18   C24   S    
C26   C34   S    
C5    C6    S    
C32   H14   S    
O4    Zn2   S    
C15   C16   S    
C11   H7    S    
C18   N1    A    
C1    O2    A    
C2    C7    S    
C16   C17   S    
O8    Zn2   S    
C2    C27   S    
C9    C10   A    
O7    Zn1   S    
C33   H18   S    
C23   O5    A    
C21   C22   S    
C31   H11   S    
C25   C29   S    
C6    C35   S    
C22   H4    S    
C23   O6    A    
C27   H1    S    
C34   H19   S    
C4    C6    S    
C10   C11   A    
C35   H23   S    
C32   H15   S    
O6    Zn2   S    
C7    C28   T    
C34   H20   S    
C14   C23   S    
C5    Cl4   S    
C3    C30   S    
C6    C27   S    
C3    H5    S    
C25   O7    A    
C13   H8    S    
O1    Zn1   S    
C21   N2    A    
C9    C17   S    
C26   C30   S    
C24   C33   S    
C19   H3    S    
C22   C24   S    
C2    C5    S    
C8    C29   T    
C3    C4    S    
C17   C31   S    
N2    Zn1   S    
C31   H12   S    
O3    Zn1   S    
C24   Cl3   S    
C1    C10   S    
C16   Cl1   S    
C12   O4    A    
C3    C5    S    
C35   H24   S    
C4    C26   S    
N1    Zn2   S    
O5    Zn1   S    
C30   H6    S    
C2    C30   S    
C34   H21   S    
C9    C15   A    
C35   H22   S    
C12   O3    A    
C22   Cl2   S    
C11   C13   A    
O2    Zn2   S    
C32   H13   S    
C25   O8    A    
C19   N1    A    
C16   H9    S    
C33   H16   S    
C1    O1    A    
C17   H2    S    
C14   C15   A    
C20   C32   S    
C13   C14   A    
