data_mof_unit_47242.cif
_audit_creation_date              2012-12-10T17:21:39-0500
_audit_creation_method            fapswitch 2.2
_symmetry_space_group_name_H-M    P1
_symmetry_Int_Tables_number       1
_space_group_crystal_system       triclinic
_cell_length_a                    10.732418
_cell_length_b                    10.890177
_cell_length_c                    9.574178
_cell_angle_alpha                 91.490691
_cell_angle_beta                  90.000241
_cell_angle_gamma                 92.897445
_cell_volume                      1117.20038965

loop_
_atom_site_label
_atom_site_type_symbol
_atom_type_description
_atom_site_fract_x
_atom_site_fract_y
_atom_site_fract_z
_atom_type_partial_charge
C1    C     C_R   0.510900 0.263172 0.497897 0.798960
C2    C     C_3   0.878146 0.500059 0.501005 0.170485
C3    C     C_3   0.934254 0.615916 0.428559 -0.396475
C4    C     C_3   0.921876 0.383783 0.422142 -0.376740
C5    C     C_R   0.617818 0.133126 0.732705 -0.152380
C6    C     C_R   0.621737 0.080836 0.863592 -0.142845
C7    C     C_R   0.563642 0.965946 0.883487 -0.091013
C8    C     C_R   0.512840 0.898269 0.769779 -0.173490
C9    C     C_R   0.519992 0.944716 0.632748 0.091024
C10   C     C_R   0.555612 0.070253 0.619223 0.094307
C11   C     C_R   0.526848 0.129471 0.493775 -0.222431
C12   C     C_R   0.259870 0.499538 0.500204 0.767095
C13   C     C_R   0.495253 0.057419 0.372021 -0.002227
C14   C     C_R   0.481684 0.930687 0.381443 -0.205719
C15   C     C_R   0.493625 0.872712 0.508886 -0.162796
C16   C     C_R   0.669634 0.661173 0.148461 -0.158067
C17   C     C_R   0.754097 0.737822 0.077991 -0.235482
C18   C     C_R   0.754173 0.737211 0.934070 -0.215168
C19   C     C_R   0.669168 0.660595 0.859886 -0.170314
C20   C     C_R   0.583311 0.579007 0.927285 0.195672
C21   C     C_R   0.583388 0.579087 0.076994 0.216256
C22   C     C_R   0.421018 0.424405 0.071751 -0.074144
C23   C     C_R   0.495458 0.737851 0.502775 0.788739
C24   C     C_R   0.421040 0.424452 0.923674 -0.052004
C25   C     C_R   0.740129 0.500262 0.500229 0.725578
C26   C     C_3   0.071287 0.499028 0.653150 -0.370563
C27   C     C_3   0.928698 0.500179 0.653160 -0.367127
C28   C     C_3   0.078086 0.616224 0.429624 -0.367590
C29   C     C_3   0.065754 0.383972 0.421326 -0.375577
C30   C     C_3   0.121833 0.499665 0.501015 0.146665
Cu1   Cu    Cu3+1 0.499990 0.499990 0.640660 0.916706
Cu2   Cu    Cu3+1 0.500010 0.500010 0.359340 0.921791
H1    H     H_    0.110193 0.581025 0.713439 0.173031
H2    H     H_    0.886947 0.380881 0.312572 0.172702
H3    H     H_    0.113180 0.619670 0.320320 0.176621
H4    H     H_    0.901072 0.617498 0.318594 0.173565
H5    H     H_    0.664900 0.222467 0.721019 0.148605
H6    H     H_    0.666425 0.131144 0.950474 0.124025
H7    H     H_    0.559930 0.927890 0.986833 0.165608
H8    H     H_    0.463966 0.812765 0.793911 0.175015
H9    H     H_    0.462367 0.876478 0.286531 0.193563
H10   H     H_    0.356380 0.362486 0.125384 0.154057
H11   H     H_    0.100488 0.415720 0.707016 0.166692
H12   H     H_    0.676403 0.670832 0.258724 0.197852
H13   H     H_    0.819175 0.799065 0.135832 0.149642
H14   H     H_    0.818833 0.798400 0.879211 0.152773
H15   H     H_    0.673332 0.671075 0.750111 0.202146
H16   H     H_    0.356373 0.362558 0.866396 0.147357
H17   H     H_    0.889636 0.418133 0.708400 0.167993
H18   H     H_    0.899803 0.583453 0.712087 0.170239
H19   H     H_    0.116726 0.700250 0.486258 0.154023
H20   H     H_    0.903123 0.700535 0.483056 0.143698
H21   H     H_    0.099490 0.382259 0.311383 0.172477
H22   H     H_    0.096555 0.299295 0.470951 0.155579
H23   H     H_    0.883018 0.299563 0.473277 0.144132
N1    N     N_R   0.501200 0.501210 0.147910 -0.205828
N2    N     N_R   0.501250 0.501290 0.852040 -0.206382
O1    O     O_R   0.499990 0.319640 0.618810 -0.570881
O2    O     O_R   0.500000 0.319660 0.381240 -0.592723
O3    O     O_R   0.317680 0.499970 0.618790 -0.586592
O4    O     O_R   0.317700 0.499990 0.381210 -0.580481
O5    O     O_R   0.500000 0.680340 0.618760 -0.610745
O6    O     O_R   0.500010 0.680360 0.381190 -0.597760
O7    O     O_R   0.682300 0.500010 0.618790 -0.609715
O8    O     O_R   0.682320 0.500030 0.381210 -0.604140
C31   C     C_2   0.481303 0.108791 0.231090 0.337964
H24   H     H_    0.545246 0.181587 0.195377 0.092530
O9    O     O_2   0.399403 0.067712 0.151788 -0.567769

loop_
_geom_bond_atom_site_label_1
_geom_bond_atom_site_label_2
_ccdc_geom_bond_type
Cu1   O3    S    
C26   H11   S    
C21   N1    A    
C31   O9    D    
C3    H20   S    
C6    H6    S    
C16   C21   A    
C5    H5    S    
C9    C10   A    
C16   H12   S    
C26   H1    S    
C2    C4    S    
C4    C29   S    
C1    C11   S    
C27   H18   S    
C22   N1    A    
C2    C27   S    
Cu1   N2    S    
C19   C20   A    
C15   C23   S    
C17   C18   A    
C9    C15   A    
C5    C10   A    
C22   H10   S    
C1    O1    A    
C12   O4    A    
C11   C13   A    
Cu1   O5    S    
C26   C27   S    
C29   C30   S    
C29   H21   S    
C3    H4    S    
C14   H9    S    
C18   H14   S    
Cu1   O1    S    
C28   C30   S    
C3    C28   S    
C17   H13   S    
Cu2   O4    S    
C26   C30   S    
C2    C25   S    
C22   C24   A    
C13   C31   S    
C1    O2    A    
C4    H23   S    
C5    C6    A    
C28   H19   S    
C4    H2    S    
C23   O6    A    
C16   C17   A    
C29   H22   S    
Cu2   O8    S    
C24   H16   S    
C7    C8    A    
C25   O8    A    
C20   C21   A    
Cu2   O6    S    
Cu1   Cu2   S    
C18   C19   A    
C10   C11   A    
C19   H15   S    
C31   H24   S    
C7    H7    S    
C14   C15   A    
C24   N2    A    
C2    C3    S    
C8    H8    S    
Cu2   O2    S    
C12   C30   S    
C20   N2    A    
C13   C14   A    
Cu1   O7    S    
Cu2   N1    S    
C23   O5    A    
C6    C7    A    
C27   H17   S    
C28   H3    S    
C8    C9    A    
C25   O7    A    
C12   O3    A    
