data_mof_unit_16459.cif
_audit_creation_date              2013-03-05T16:22:59-0500
_audit_creation_method            fapswitch 2.2
_symmetry_space_group_name_H-M    P1
_symmetry_Int_Tables_number       1
_space_group_crystal_system       triclinic
_cell_length_a                    23.481159
_cell_length_b                    10.604801
_cell_length_c                    9.778224
_cell_angle_alpha                 88.760898
_cell_angle_beta                  89.999859
_cell_angle_gamma                 89.733979
_cell_volume                      2434.30944095

loop_
_atom_site_label
_atom_site_type_symbol
_atom_site_description
_atom_site_fract_x
_atom_site_fract_y
_atom_site_fract_z
_atom_type_partial_charge
O1    O     O_R   0.500000 0.313960 0.616610 -0.614294
O2    O     O_R   0.500000 0.686040 0.383390 -0.606405
O3    O     O_R   0.500030 0.313950 0.383350 -0.562328
O4    O     O_R   0.499970 0.686050 0.616650 -0.567921
C1    C     C_R   0.499905 0.257591 0.500730 0.980742
C2    C     C_R   0.496521 0.741607 0.498631 0.953662
O5    O     O_R   0.416140 0.499970 0.616650 -0.634365
O6    O     O_R   0.583860 0.500030 0.383350 -0.602538
O7    O     O_R   0.416170 0.499960 0.383400 -0.558776
O8    O     O_R   0.583830 0.500040 0.616600 -0.599937
C3    C     C_R   0.389324 0.501506 0.499991 0.930561
C4    C     C_R   0.610462 0.503933 0.500096 0.932180
Zn1   Zn    Zn3+2 0.499980 0.500010 0.655740 1.036869
Zn2   Zn    Zn3+2 0.500020 0.499990 0.344260 1.085961
C5    C     C_R   0.878563 0.591874 0.421878 0.579762
C6    C     C_R   0.120864 0.397357 0.494962 0.594074
N1    N     N_R   0.852535 0.487674 0.477123 -0.338918
N2    N     N_R   0.146721 0.512012 0.480175 -0.332356
C7    C     C_R   0.882805 0.383774 0.520235 0.612317
C8    C     C_R   0.116253 0.619762 0.451616 0.592126
C9    C     C_R   0.942095 0.378953 0.500984 -0.137014
C10   C     C_R   0.057210 0.613709 0.429184 -0.133796
C11   C     C_R   0.969815 0.491572 0.458996 -0.040925
C12   C     C_R   0.029590 0.498092 0.459530 -0.041380
C13   C     C_R   0.937805 0.598711 0.419340 -0.073377
C14   C     C_R   0.061639 0.389389 0.493077 -0.076568
C15   C     C_R   0.974820 0.268333 0.527328 0.324946
C16   C     C_R   0.024593 0.719248 0.383142 0.317926
C17   C     C_R   0.034168 0.275167 0.523302 -0.153901
C18   C     C_R   0.965327 0.710349 0.379084 -0.164673
O9    O     O_2   0.846961 0.689854 0.373745 -0.519984
O10   O     O_2   0.152565 0.291725 0.513054 -0.514197
O11   O     O_2   0.855528 0.288106 0.585012 -0.464501
O12   O     O_2   0.143056 0.731996 0.450180 -0.456190
H1    H     H_    0.058778 0.190214 0.544135 0.240354
H2    H     H_    0.940823 0.791773 0.344384 0.240231
C19   C     C_R   0.239295 0.556199 0.375048 0.246206
C20   C     C_R   0.759452 0.405332 0.412931 0.237749
C21   C     C_R   0.298528 0.563190 0.384768 0.179027
C22   C     C_R   0.700306 0.405294 0.427111 0.153418
C23   C     C_R   0.326587 0.506496 0.498950 -0.220415
C24   C     C_R   0.672953 0.500694 0.500399 -0.230009
C25   C     C_R   0.294029 0.453794 0.608968 0.069867
C26   C     C_R   0.705500 0.590539 0.571167 0.080084
C27   C     C_R   0.235158 0.481958 0.613825 0.133344
C28   C     C_R   0.765141 0.573203 0.580383 0.156538
C29   C     C_R   0.207531 0.517903 0.490378 0.102886
C30   C     C_R   0.791863 0.488598 0.490649 0.079746
C31   C     C_3   0.508768 0.034263 0.622924 0.284862
C32   C     C_3   0.481805 0.963347 0.373591 0.282805
C33   C     C_3   0.547270 0.951360 0.533487 -0.323238
C34   C     C_3   0.443235 0.047250 0.461899 -0.346084
H3    H     H_    0.588546 0.911172 0.565925 0.210404
H4    H     H_    0.401235 0.086593 0.430573 0.236121
C35   C     C_3   0.493890 0.875576 0.496063 -0.282734
C36   C     C_3   0.497300 0.122885 0.500105 -0.311328
C37   C     C_3   0.456180 0.958043 0.585831 0.255101
C38   C     C_3   0.534222 0.039135 0.409756 0.274062
C39   C     C_3   0.467779 0.414398 0.048834 0.374133
C40   C     C_3   0.532142 0.585450 0.951750 0.387785
C41   C     C_3   0.517958 0.392372 0.953520 -0.140814
C42   C     C_3   0.481930 0.607310 0.046729 -0.074778
H5    H     H_    0.532414 0.302182 0.910366 0.248370
H6    H     H_    0.464415 0.694597 0.090204 0.246530
N3    N     N_3   0.499960 0.500030 0.863290 -0.164835
N4    N     N_3   0.500040 0.499970 0.136710 -0.159391
C43   C     C_3   0.448991 0.519741 0.950696 -0.180378
C44   C     C_3   0.550919 0.479685 0.049638 -0.160033
H7    H     H_    0.406367 0.538038 0.905636 0.199424
H8    H     H_    0.593654 0.464344 0.095765 0.221553
N5    N     N_R   0.949036 0.147109 0.549690 0.259536
O13   O     O_R   0.913255 0.104582 0.460295 -0.255082
O14   O     O_R   0.969599 0.069718 0.642439 -0.326087
N6    N     N_R   0.050538 0.833240 0.332253 0.254071
O15   O     O_R   0.087069 0.828276 0.232405 -0.258341
O16   O     O_R   0.029543 0.942158 0.365420 -0.313234
N7    N     N_R   0.431124 0.316919 0.107274 0.225066
O17   O     O_R   0.442641 0.198755 0.087704 -0.269147
O18   O     O_R   0.384167 0.347456 0.168822 -0.342832
N8    N     N_R   0.569860 0.682206 0.896284 0.229448
O19   O     O_R   0.548701 0.786230 0.844894 -0.289166
O20   O     O_R   0.624074 0.675547 0.922514 -0.408292
N9    N     N_R   0.210988 0.592465 0.249835 0.247382
O21   O     O_R   0.175545 0.515615 0.192871 -0.368978
O22   O     O_R   0.218593 0.704251 0.195586 -0.241600
N10   N     N_R   0.787010 0.317047 0.324887 0.255048
O23   O     O_R   0.823806 0.356248 0.234198 -0.344844
O24   O     O_R   0.777516 0.196702 0.339398 -0.230153
N11   N     N_R   0.329958 0.626819 0.278021 0.262765
O25   O     O_R   0.361149 0.723804 0.306619 -0.331475
O26   O     O_R   0.325966 0.591265 0.151862 -0.309101
N12   N     N_R   0.667752 0.304747 0.372921 0.248258
O27   O     O_R   0.638413 0.233624 0.456452 -0.364492
O28   O     O_R   0.668836 0.281520 0.242846 -0.273336
C45   C     C_3   0.319751 0.358150 0.711407 -0.364194
C46   C     C_3   0.344220 0.242291 0.641559 -0.690111
H9    H     H_    0.380283 0.266753 0.573703 0.214991
H10   H     H_    0.360194 0.174289 0.720671 0.289658
H11   H     H_    0.310679 0.195797 0.580670 0.288300
H12   H     H_    0.352300 0.402407 0.776117 0.232083
H13   H     H_    0.287592 0.318515 0.782588 0.229342
C47   C     C_3   0.679132 0.713013 0.619304 -0.408737
C48   C     C_3   0.695659 0.821912 0.522027 -0.701097
H14   H     H_    0.741973 0.822036 0.499535 0.291416
H15   H     H_    0.672231 0.813660 0.424004 0.281438
H16   H     H_    0.685084 0.913524 0.568735 0.282547
H17   H     H_    0.632080 0.709138 0.623818 0.230033
H18   H     H_    0.693278 0.734190 0.724277 0.271784
C49   C     C_3   0.202230 0.478759 0.748937 -0.415022
C50   C     C_3   0.175004 0.606198 0.780645 -0.656410
H19   H     H_    0.205628 0.684075 0.761028 0.288409
H20   H     H_    0.135950 0.622573 0.719450 0.239267
H21   H     H_    0.162352 0.607497 0.890101 0.290784
H22   H     H_    0.169165 0.404444 0.748770 0.242677
H23   H     H_    0.230448 0.458678 0.837409 0.238983
C51   C     C_3   0.799728 0.639363 0.689560 -0.400706
C52   C     C_3   0.788611 0.579705 0.830612 -0.700004
H24   H     H_    0.742819 0.584927 0.857963 0.278697
H25   H     H_    0.802134 0.479138 0.832011 0.282594
H26   H     H_    0.813458 0.630052 0.908967 0.272612
H27   H     H_    0.846174 0.632437 0.671722 0.217843
H28   H     H_    0.790196 0.741758 0.690891 0.242822
N13   N     N_R   0.525311 0.074349 0.758605 0.248254
O29   O     O_R   0.491293 0.057702 0.862193 -0.243166
O30   O     O_R   0.576028 0.119397 0.777952 -0.322593
N14   N     N_R   0.468988 0.924152 0.235219 0.259304
O31   O     O_R   0.510261 0.890838 0.154818 -0.295628
O32   O     O_R   0.418162 0.941192 0.185215 -0.233751
N15   N     N_R   0.413192 0.908766 0.680206 0.244183
O33   O     O_R   0.427967 0.837543 0.784209 -0.277622
O34   O     O_R   0.359449 0.927739 0.654682 -0.354692
N16   N     N_R   0.575043 0.077637 0.304956 0.299150
O35   O     O_R   0.623457 0.018320 0.296085 -0.283073
O36   O     O_R   0.559087 0.152844 0.205232 -0.259126

loop_
_geom_bond_atom_site_label_1
_geom_bond_atom_site_label_2
_geom_bond_distance
_ccdc_geom_bond_type
N4    C44   1.484583 S    
N14   O31   1.300371 A    
C15   C17   1.396306 A    
C1    C36   1.430267 S    
C45   C46   1.528378 S    
N1    C30   1.430799 S    
C2    C35   1.421453 S    
C16   N6    1.435590 S    
N2    C29   1.433117 S    
C39   N7    1.455567 S    
N13   O29   1.299524 A    
C21   C23   1.417543 A    
Zn1   N3    2.029475 S    
N7    O17   1.298945 A    
O5    C3    1.302727 A    
N6    O16   1.301255 A    
C42   C43   1.544918 S    
C20   N10   1.437244 S    
O1    C1    1.292508 A    
C37   N15   1.458624 S    
C7    C9    1.405723 A    
C12   C14   1.406564 A    
C52   H25   1.111141 S    
C39   N4    1.475064 S    
C27   C49   1.530589 S    
N13   O30   1.300541 A    
C31   N13   1.455232 S    
C46   H11   1.110935 S    
C31   C37   1.526988 S    
C51   C52   1.527907 S    
C40   C42   1.520910 S    
O4    Zn1   2.001470 S    
C41   H5    1.105679 S    
C50   H19   1.111131 S    
C42   H6    1.104628 S    
C39   C43   1.520706 S    
C26   C28   1.414226 A    
N16   O35   1.300480 A    
C31   C33   1.543046 S    
C46   H10   1.110188 S    
C25   C45   1.532094 S    
C11   C12   1.405629 A    
C47   H18   1.106816 S    
C32   N14   1.455862 S    
C19   C29   1.405713 A    
C20   C30   1.404161 A    
C8    O12   1.348765 S    
N7    O18   1.299202 A    
C9    C15   1.418282 A    
C10   C16   1.418514 A    
C23   C25   1.425509 A    
O2    C2    1.285298 A    
C24   C26   1.416341 A    
C34   H4    1.109591 S    
C27   C29   1.414570 A    
C6    C14   1.393767 A    
C28   C30   1.413299 A    
C39   C41   1.522618 S    
C51   H27   1.106840 S    
C42   N4    1.484230 S    
N10   O24   1.301308 A    
C4    C24   1.467586 S    
C32   C38   1.519024 S    
N8    O20   1.299884 A    
C7    O11   1.348688 S    
C52   H26   1.110435 S    
C38   N16   1.456419 S    
N5    O14   1.301277 A    
C26   C47   1.520131 S    
N10   O23   1.301209 A    
O6    Zn2   2.005428 S    
C33   C35   1.540440 S    
N3    C43   1.487247 S    
C33   H3    1.100870 S    
O7    Zn2   2.005744 S    
O7    C3    1.303095 A    
C32   C34   1.543784 S    
N9    O21   1.301161 A    
O5    Zn1   2.005426 S    
O6    C4    1.302836 A    
C46   H9    1.104176 S    
N12   O28   1.300980 A    
Zn2   N4    2.029474 S    
C47   H17   1.106633 S    
C48   H15   1.110430 S    
C33   C38   1.540380 S    
C22   N12   1.426203 S    
C25   C27   1.413916 A    
C50   H21   1.111096 S    
O3    Zn2   2.001470 S    
O8    C4    1.299524 A    
C49   H22   1.108890 S    
O4    C2    1.286694 A    
N9    O22   1.301296 A    
C8    C10   1.405607 A    
C40   N3    1.476513 S    
C35   C37   1.531475 S    
C10   C12   1.415497 A    
N11   O26   1.301228 A    
C15   N5    1.435996 S    
N15   O33   1.299772 A    
C51   H28   1.108034 S    
C13   C18   1.400411 A    
C5    N1    1.366326 A    
C40   N8    1.454561 S    
N14   O32   1.300075 A    
C45   H12   1.104964 S    
C6    N2    1.366448 A    
N8    O19   1.298947 A    
O3    C1    1.282547 A    
O8    Zn1   2.005746 S    
C5    O9    1.350375 S    
C28   C51   1.526166 S    
C6    O10   1.350533 S    
C31   C36   1.531961 S    
C17   H1    1.083651 S    
C45   H13   1.105280 S    
C32   C35   1.526568 S    
C18   H2    1.083744 S    
C9    C11   1.415838 A    
C16   C18   1.395895 A    
C19   C21   1.396511 A    
C52   H24   1.109442 S    
C20   C22   1.395723 A    
C41   C44   1.544023 S    
C22   C24   1.405332 A    
N12   O27   1.299540 A    
N1    C7    1.367329 A    
C36   C38   1.532241 S    
C3    C23   1.473886 S    
C48   H16   1.109535 S    
N2    C8    1.368983 A    
C11   C13   1.406850 A    
C47   C48   1.531573 S    
O2    Zn2   2.017885 S    
C50   H20   1.105981 S    
C5    C13   1.393488 A    
C34   C37   1.550366 S    
C49   H23   1.106117 S    
C41   N3    1.487425 S    
N5    O13   1.301529 A    
O1    Zn1   2.017886 S    
N6    O15   1.301398 A    
C40   C44   1.522359 S    
C14   C17   1.400874 A    
N16   O36   1.300355 A    
C48   H14   1.109530 S    
C44   H8    1.110047 S    
C19   N9    1.437371 S    
C43   H7    1.108156 S    
N11   O25   1.300709 A    
C49   C50   1.530164 S    
C21   N11   1.436553 S    
C34   C36   1.554656 S    
N15   O34   1.300304 A    
