data_mof_unit_22149.cif
_audit_creation_date              2012-12-11T14:04:23-0500
_audit_creation_method            fapswitch 2.2
_symmetry_space_group_name_H-M    P1
_symmetry_Int_Tables_number       1
_space_group_crystal_system       triclinic
_cell_length_a                    19.201894
_cell_length_b                    10.912082
_cell_length_c                    18.841287
_cell_angle_alpha                 89.838211
_cell_angle_beta                  88.658481
_cell_angle_gamma                 89.786226
_cell_volume                      3946.74030211

loop_
_atom_site_label
_atom_site_type_symbol
_atom_type_description
_atom_site_fract_x
_atom_site_fract_y
_atom_site_fract_z
_atom_type_partial_charge
Br1   Br    Br    0.320888 0.701884 0.394327 -0.572271
Br2   Br    Br    0.891914 0.980898 0.927304 -0.409822
Br3   Br    Br    0.600354 0.456658 0.088610 -0.377090
Br4   Br    Br    0.392018 0.480760 0.927090 -0.409854
Br5   Br    Br    0.672095 0.706782 0.603709 -0.593147
Br6   Br    Br    0.820889 0.201884 0.394327 -0.572263
Br7   Br    Br    0.172095 0.206782 0.603709 -0.593125
Br8   Br    Br    0.927127 0.390443 0.058904 -0.373271
Br9   Br    Br    0.061201 0.417486 0.950350 -0.401407
Br10  Br    Br    0.427197 0.890458 0.058853 -0.373230
Br11  Br    Br    0.561510 0.917905 0.950517 -0.401716
Br12  Br    Br    0.100353 0.956541 0.088637 -0.377099
C1    C     C_R   0.240733 0.466522 0.647424 0.561866
C2    C     C_R   0.042196 0.654049 0.560505 -0.040953
C3    C     C_R   0.459270 0.158588 0.438666 -0.039983
C4    C     C_R   0.542196 0.154049 0.560505 -0.040949
C5    C     C_R   0.964139 0.886519 0.442024 -0.075662
C6    C     C_R   0.067634 0.870927 0.540190 -0.075368
C7    C     C_R   0.464139 0.386520 0.442024 -0.075662
C8    C     C_R   0.567634 0.370927 0.540190 -0.075366
C9    C     C_R   0.000737 0.991165 0.459802 -0.112957
C10   C     C_R   0.054817 0.982068 0.506752 -0.118752
C11   C     C_R   0.500738 0.491165 0.459801 -0.112957
C12   C     C_R   0.759252 0.466604 0.352632 0.567351
C13   C     C_R   0.554818 0.482067 0.506752 -0.118751
C14   C     C_R   0.029875 0.765481 0.524779 0.012930
C15   C     C_R   0.983380 0.769945 0.468041 0.016495
C16   C     C_R   0.529875 0.265481 0.524779 0.012931
C17   C     C_R   0.483380 0.269945 0.468041 0.016495
C18   C     C_R   0.021797 0.543892 0.527995 0.021732
C19   C     C_R   0.971824 0.547439 0.475219 0.015890
C20   C     C_R   0.521797 0.043893 0.527995 0.021733
C21   C     C_R   0.471823 0.047440 0.475219 0.015889
C22   C     C_R   0.047997 0.428741 0.549004 -0.052110
C23   C     C_R   0.740733 0.966522 0.647424 0.561847
C24   C     C_R   0.936147 0.438247 0.460177 -0.061635
C25   C     C_R   0.547997 0.928741 0.549003 -0.052111
C26   C     C_R   0.436146 0.938248 0.460177 -0.061635
C27   C     C_R   0.013435 0.321611 0.532653 -0.102493
C28   C     C_R   0.955566 0.327141 0.490703 -0.104565
C29   C     C_R   0.513435 0.821611 0.532652 -0.102495
C30   C     C_R   0.455566 0.827141 0.490702 -0.104564
C31   C     C_2   0.237885 0.901799 0.927460 0.096057
C32   C     C_2   0.760323 0.910812 0.075768 0.133085
C33   C     C_2   0.737882 0.401788 0.927464 0.096026
C34   C     C_R   0.259252 0.966604 0.352632 0.567353
C35   C     C_2   0.260310 0.410735 0.075759 0.132609
C36   C     C_2   0.246983 0.889496 0.087504 -0.044000
C37   C     C_2   0.750459 0.889147 0.912599 -0.097289
C38   C     C_2   0.746967 0.389477 0.087514 -0.043926
C39   C     C_2   0.250468 0.389275 0.912644 -0.097412
C40   C     C_R   0.227415 0.872608 0.646965 0.557243
C41   C     C_R   0.773263 0.871032 0.353566 0.567372
C42   C     C_R   0.727415 0.372608 0.646965 0.557240
C43   C     C_R   0.273263 0.371032 0.353567 0.567378
C44   C     C_2   0.188507 0.899649 0.050230 0.153934
C45   C     C_2   0.265376 0.806126 0.529534 -0.159624
C46   C     C_2   0.806129 0.899870 0.953415 0.109238
C47   C     C_2   0.688499 0.399672 0.050230 0.153974
C48   C     C_2   0.306185 0.400052 0.953399 0.109454
C49   C     C_2   0.189118 0.864088 0.975505 -0.060626
C50   C     C_2   0.800432 0.854693 0.025764 -0.092593
C51   C     C_2   0.689109 0.364097 0.975507 -0.060582
C52   C     C_2   0.300611 0.354977 0.025774 -0.092624
C53   C     C_2   0.991309 0.651321 0.917532 -0.126208
C54   C     C_2   0.957167 0.652347 0.068523 -0.121499
C55   C     C_2   0.491319 0.151345 0.917531 -0.126119
C56   C     C_2   0.732803 0.806573 0.470701 -0.152216
C57   C     C_2   0.457198 0.152373 0.068532 -0.121538
C58   C     C_2   0.957953 0.551300 0.028181 0.150833
C59   C     C_2   0.996411 0.554136 0.961905 0.155636
C60   C     C_2   0.458009 0.051346 0.028182 0.150890
C61   C     C_2   0.496513 0.054248 0.961944 0.155704
C62   C     C_R   0.061768 0.650298 0.636736 0.515721
C63   C     C_R   0.938622 0.651107 0.363217 0.518757
C64   C     C_R   0.561767 0.150298 0.636736 0.515721
C65   C     C_R   0.438622 0.151108 0.363217 0.518762
C66   C     C_R   0.238871 0.462874 0.849503 0.576263
C67   C     C_2   0.765377 0.306126 0.529534 -0.159625
C68   C     C_R   0.760588 0.461957 0.150870 0.576641
C69   C     C_R   0.738870 0.962860 0.849498 0.576288
C70   C     C_R   0.260591 0.961961 0.150868 0.576635
C71   C     C_R   0.225804 0.872132 0.853693 0.555422
C72   C     C_R   0.773107 0.875378 0.147976 0.610509
C73   C     C_R   0.725802 0.372127 0.853696 0.555423
C74   C     C_R   0.273108 0.375364 0.147972 0.610554
C75   C     C_R   0.030231 0.650858 0.851519 0.580969
C76   C     C_R   0.937418 0.647304 0.142316 0.575016
C77   C     C_R   0.530230 0.150865 0.851516 0.581052
C78   C     C_2   0.232803 0.306573 0.470701 -0.152217
C79   C     C_R   0.437425 0.147307 0.142316 0.574957
C80   C     C_2   0.248496 0.900079 0.573960 -0.133572
C81   C     C_2   0.752652 0.898863 0.426515 -0.121210
C82   C     C_2   0.748496 0.400079 0.573960 -0.133572
C83   C     C_2   0.252652 0.398863 0.426515 -0.121211
C84   C     C_2   0.240579 0.915225 0.421312 -0.067801
C85   C     C_2   0.759522 0.912395 0.579408 -0.069306
C86   C     C_2   0.740579 0.415225 0.421312 -0.067802
C87   C     C_2   0.259522 0.412395 0.579408 -0.069307
C88   C     C_2   0.273266 0.822423 0.451980 0.088884
C89   C     C_R   0.959271 0.658587 0.438666 -0.039982
C90   C     C_2   0.724040 0.823930 0.547966 0.092681
C91   C     C_2   0.773266 0.322423 0.451980 0.088883
C92   C     C_2   0.224040 0.323929 0.547966 0.092680
Cr1   Cr    Cr6+3 0.113970 0.508630 0.747920 1.097279
Cr2   Cr    Cr6+3 0.887700 0.820070 0.250200 1.089499
Cr3   Cr    Cr6+3 0.612300 0.320070 0.749800 1.088257
Cr4   Cr    Cr6+3 0.387700 0.320070 0.250200 1.089438
Cr5   Cr    Cr6+3 0.886030 0.508630 0.252080 1.109456
Cr6   Cr    Cr6+3 0.613970 0.008630 0.747920 1.097252
Cr7   Cr    Cr6+3 0.386030 0.008630 0.252080 1.109446
Cr8   Cr    Cr6+3 0.269200 0.666740 0.749850 1.078988
Cr9   Cr    Cr6+3 0.730800 0.666740 0.250150 1.086735
Cr10  Cr    Cr6+3 0.769200 0.166740 0.749850 1.078992
Cr11  Cr    Cr6+3 0.230800 0.166740 0.250150 1.086750
Cr12  Cr    Cr6+3 0.112300 0.820070 0.749800 1.088225
H1    H     H_    0.143432 0.815343 0.957607 0.135000
H2    H     H_    0.957717 0.728960 0.929742 0.111150
H3    H     H_    0.477513 0.238944 0.048334 0.125453
H4    H     H_    0.457635 0.228881 0.929696 0.111115
H5    H     H_    0.271281 0.713674 0.550140 0.161441
H6    H     H_    0.724520 0.714976 0.450147 0.159078
H7    H     H_    0.771283 0.213675 0.550140 0.161443
H8    H     H_    0.224520 0.214976 0.450147 0.159077
H9    H     H_    0.200555 0.965603 0.450771 0.086111
H10   H     H_    0.801747 0.958102 0.550593 0.091441
H11   H     H_    0.700554 0.465601 0.450771 0.086111
H12   H     H_    0.835985 0.781803 0.040498 0.098508
H13   H     H_    0.301747 0.458102 0.550593 0.091440
H14   H     H_    0.242975 0.993145 0.555056 0.140468
H15   H     H_    0.760296 0.990665 0.445873 0.145626
H16   H     H_    0.742974 0.493145 0.555056 0.140468
H17   H     H_    0.260296 0.490665 0.445873 0.145626
H18   H     H_    0.988637 0.077947 0.435168 0.142968
H19   H     H_    0.087074 0.060326 0.516847 0.156711
H20   H     H_    0.488639 0.577947 0.435167 0.142967
H21   H     H_    0.587075 0.560325 0.516846 0.156711
H22   H     H_    0.921064 0.898586 0.408187 0.180660
H23   H     H_    0.643418 0.315376 0.957605 0.135053
H24   H     H_    0.111027 0.863565 0.573001 0.157382
H25   H     H_    0.421065 0.398587 0.408186 0.180662
H26   H     H_    0.611027 0.363565 0.573001 0.157380
H27   H     H_    0.892374 0.439623 0.426275 0.170644
H28   H     H_    0.093276 0.422153 0.581077 0.186334
H29   H     H_    0.392373 0.939624 0.426276 0.170643
H30   H     H_    0.593275 0.922154 0.581076 0.186336
H31   H     H_    0.029729 0.235203 0.554746 0.156601
H32   H     H_    0.926951 0.244546 0.481516 0.162881
H33   H     H_    0.529731 0.735203 0.554743 0.156602
H34   H     H_    0.336435 0.282551 0.040559 0.098774
H35   H     H_    0.426952 0.744546 0.481514 0.162883
H36   H     H_    0.292948 0.058457 0.920025 0.231441
H37   H     H_    0.341454 0.930261 0.926787 0.273451
H38   H     H_    0.750966 0.084543 0.037978 0.250015
H39   H     H_    0.680160 0.995179 0.027224 0.264102
H40   H     H_    0.792929 0.558452 0.920051 0.231393
H41   H     H_    0.841450 0.430265 0.926767 0.273493
H42   H     H_    0.250158 0.584183 0.037765 0.249629
H43   H     H_    0.179691 0.493844 0.027328 0.264318
H44   H     H_    0.289783 0.836967 0.064756 0.156922
H45   H     H_    0.706898 0.833972 0.931886 0.143095
H46   H     H_    0.789750 0.336891 0.064779 0.156856
H47   H     H_    0.206903 0.334181 0.932004 0.142805
H48   H     H_    0.977484 0.738908 0.048316 0.125500
N1    N     N_3   0.296646 0.974387 0.946439 -0.634390
N2    N     N_3   0.719188 0.018190 0.062241 -0.604219
N3    N     N_3   0.796644 0.474368 0.946446 -0.634375
N4    N     N_3   0.218711 0.517534 0.062201 -0.604194
O1    O     O_R   0.043230 0.549300 0.667990 -0.501575
O2    O     O_R   0.832470 0.905110 0.169660 -0.493077
O3    O     O_R   0.667530 0.405110 0.830340 -0.490468
O4    O     O_R   0.332470 0.405110 0.169660 -0.493216
O5    O     O_R   0.054010 0.748440 0.822860 -0.480851
O6    O     O_R   0.945990 0.748440 0.177140 -0.463204
O7    O     O_R   0.554010 0.248440 0.822860 -0.480809
O8    O     O_R   0.445990 0.248440 0.177140 -0.463271
O9    O     O_3   0.165160 0.665150 0.749190 -0.311343
O10   O     O_3   0.834840 0.665150 0.250810 -0.342162
O11   O     O_3   0.665160 0.165150 0.749190 -0.311330
O12   O     O_R   0.956770 0.549300 0.332010 -0.482192
O13   O     O_3   0.334840 0.165150 0.250810 -0.342151
O14   O     O_R   0.178620 0.457600 0.674100 -0.490879
O15   O     O_R   0.821380 0.457600 0.325900 -0.491974
O16   O     O_R   0.678620 0.957600 0.674100 -0.490892
O17   O     O_R   0.321380 0.957600 0.325900 -0.491976
O18   O     O_R   0.284680 0.542100 0.669460 -0.520305
O19   O     O_R   0.715320 0.542100 0.330540 -0.517319
O20   O     O_R   0.784680 0.042100 0.669460 -0.520327
O21   O     O_R   0.215320 0.042100 0.330540 -0.517318
O22   O     O_R   0.262860 0.790390 0.676650 -0.497201
O23   O     O_R   0.543230 0.049300 0.667990 -0.501592
O24   O     O_R   0.737140 0.790390 0.323350 -0.495756
O25   O     O_R   0.762860 0.290390 0.676650 -0.497202
O26   O     O_R   0.237140 0.290390 0.323350 -0.495755
O27   O     O_R   0.167460 0.907030 0.670940 -0.495314
O28   O     O_R   0.832540 0.907030 0.329060 -0.502826
O29   O     O_R   0.667460 0.407030 0.670940 -0.495318
O30   O     O_R   0.332540 0.407030 0.329060 -0.502820
O31   O     O_R   0.053950 0.750220 0.675100 -0.486428
O32   O     O_R   0.946050 0.750220 0.324900 -0.491612
O33   O     O_R   0.553950 0.250220 0.675100 -0.486424
O34   O     O_R   0.456770 0.049300 0.332010 -0.482193
O35   O     O_R   0.446050 0.250220 0.324900 -0.491607
O36   O     O_R   0.043300 0.547370 0.827390 -0.450943
O37   O     O_R   0.956700 0.547370 0.172610 -0.425577
O38   O     O_R   0.543300 0.047370 0.827390 -0.450977
O39   O     O_R   0.456700 0.047370 0.172610 -0.425551
O40   O     O_R   0.178690 0.455820 0.821860 -0.471954
O41   O     O_R   0.821310 0.455820 0.178140 -0.484693
O42   O     O_R   0.678690 0.955820 0.821860 -0.471935
O43   O     O_R   0.321310 0.955820 0.178140 -0.484731
O44   O     O_R   0.284750 0.540170 0.828860 -0.447385
O45   O     O_R   0.262920 0.788600 0.824420 -0.483694
O46   O     O_R   0.715250 0.540170 0.171140 -0.450402
O47   O     O_R   0.784750 0.040170 0.828860 -0.447394
O48   O     O_R   0.215250 0.040170 0.171140 -0.450385
O49   O     O_R   0.737080 0.788600 0.175580 -0.482734
O50   O     O_R   0.762920 0.288600 0.824420 -0.483661
O51   O     O_R   0.237080 0.288600 0.175580 -0.482636
O52   O     O_R   0.167530 0.905110 0.830340 -0.490450

loop_
_geom_bond_atom_site_label_1
_geom_bond_atom_site_label_2
_ccdc_geom_bond_type
C44   C49   S    
C46   C50   S    
C50   H12   S    
C4    C16   A    
C71   O52   A    
C45   C80   D    
Cr7   O39   S    
C38   H46   S    
C31   C71   S    
C29   C30   A    
C9    H18   S    
C33   C73   S    
C6    C14   A    
C55   C77   S    
C76   O37   A    
C56   C81   D    
Cr11  O51   S    
C65   O34   A    
H41   N3    S    
Cr8   O22   S    
H36   N1    S    
H42   N4    S    
C78   C83   D    
Cr3   O3    S    
C63   O32   A    
C6    H24   S    
C3    C21   A    
C36   H44   S    
C22   H28   S    
C14   C15   A    
C73   O3    A    
C42   O29   A    
Cr1   O1    S    
C11   H20   S    
C12   O19   A    
C74   O4    A    
C38   C47   D    
C2    C62   S    
C16   C17   A    
Cr10  O25   S    
C24   H27   S    
C56   C90   S    
Cr3   O33   S    
Cr4   O35   S    
C72   O2    A    
C54   C76   S    
C18   C19   A    
C43   O30   A    
C29   H33   S    
C8    C13   A    
H39   N2    S    
C86   C91   D    
Cr9   O19   S    
Cr4   O8    S    
Cr6   O23   S    
C83   H17   S    
C76   O6    A    
H43   N4    S    
Br1   C88   S    
C37   C69   S    
Cr8   O44   S    
C34   O17   A    
C62   O1    A    
Cr3   O7    S    
C71   O45   A    
Cr12  O27   S    
Cr5   O10   S    
C53   C59   D    
C23   O20   A    
C79   O8    A    
C53   H2    S    
C39   H47   S    
C58   C59   S    
C55   C61   D    
Cr1   O14   S    
Cr12  O52   S    
C55   H4    S    
C37   H45   S    
C85   C90   D    
H37   N1    S    
Cr5   O15   S    
C87   C92   D    
Cr6   O16   S    
C7    H25   S    
C42   O25   A    
C6    C10   A    
C9    C10   A    
C12   O15   A    
Cr4   O30   S    
C80   H14   S    
Cr2   O2    S    
C67   C91   S    
Cr6   O42   S    
C40   O27   A    
C15   C89   A    
Cr9   O46   S    
C2    C18   A    
Cr5   O41   S    
C65   O35   A    
Cr7   O34   S    
Cr9   O49   S    
Cr11  O13   S    
C3    C17   A    
Cr7   O43   S    
C31   N1    S    
C75   O5    A    
C81   H15   S    
Cr7   O17   S    
C18   C22   A    
Cr10  O20   S    
C49   H1    S    
C22   C27   A    
C5    C15   A    
C35   C74   S    
C8    H26   S    
C24   C28   A    
C67   C82   D    
C43   C83   S    
Br11  C61   S    
C56   H6    S    
C35   C52   D    
Cr3   O29   S    
Cr12  O31   S    
C87   H13   S    
C64   O33   A    
C60   C61   S    
Cr1   O36   S    
C68   O46   A    
C8    C16   A    
H40   N3    S    
C32   C50   D    
C23   O16   A    
Br6   C91   S    
C45   C88   S    
C41   C81   S    
C57   H3    S    
C82   H16   S    
C37   C46   D    
C52   H34   S    
C1    C87   S    
C57   C60   D    
C7    C11   A    
C73   O50   A    
C26   H29   S    
C63   O12   A    
C23   C85   S    
Cr9   O10   S    
Cr12  O5    S    
C79   O39   A    
C77   O38   A    
Br4   C48   S    
Cr2   O6    S    
C54   H48   S    
Cr6   O38   S    
C32   N2    S    
C20   C25   A    
C2    C14   A    
C53   C75   S    
Cr5   O37   S    
C30   H35   S    
C33   N3    S    
C78   C92   S    
C5    H22   S    
C33   C51   D    
C70   O48   A    
Cr4   O13   S    
C86   H11   S    
Cr11  O26   S    
Cr10  O11   S    
Br7   C92   S    
Cr4   O4    S    
Br10  C60   S    
C25   H30   S    
C12   C86   S    
C40   C80   S    
C69   O47   A    
C77   O7    A    
C34   O21   A    
C7    C17   A    
C66   O44   A    
C75   O36   A    
C27   C28   A    
C31   C49   D    
Cr1   O40   S    
Cr2   O32   S    
C70   O43   A    
C36   C44   D    
Cr9   O24   S    
Br5   C90   S    
C28   H32   S    
C78   H8    S    
C1    O18   A    
Cr3   O11   S    
C4    C64   S    
C51   H23   S    
Cr10  O47   S    
Br9   C59   S    
Cr1   O9    S    
C85   H10   S    
C32   C72   S    
C38   C68   S    
C40   O22   A    
Cr2   O28   S    
Br2   C46   S    
C26   C30   A    
C4    C20   A    
C54   C58   D    
C47   C51   S    
C21   C26   A    
Br8   C58   S    
Cr7   O13   S    
C10   H19   S    
C48   C52   S    
C20   C21   A    
C39   C66   S    
C64   O23   A    
C57   C79   S    
Cr8   O18   S    
C35   N4    S    
Cr5   O12   S    
Cr8   O45   S    
C3    C65   S    
C67   H7    S    
Cr6   O11   S    
C19   C89   A    
C84   C88   D    
Br12  C44   S    
C36   C70   S    
C84   H9    S    
C69   O42   A    
C74   O51   A    
C11   C13   A    
Cr11  O48   S    
C25   C29   A    
C41   O24   A    
C66   O40   A    
C42   C82   S    
C72   O49   A    
Cr10  O50   S    
C45   H5    S    
Cr11  O21   S    
C68   O41   A    
C43   O26   A    
C34   C84   S    
C62   O31   A    
C1    O14   A    
C27   H31   S    
C63   C89   S    
C41   O28   A    
C19   C24   A    
H38   N2    S    
C13   H21   S    
C39   C48   D    
Cr12  O9    S    
Cr2   O10   S    
Br3   C47   S    
Cr8   O9    S    
C5    C9    A    
