data_mof_unit_62339.cif
_audit_creation_date              2012-12-10T18:16:13-0500
_audit_creation_method            fapswitch 2.2
_symmetry_space_group_name_H-M    P1
_symmetry_Int_Tables_number       1
_space_group_crystal_system       triclinic
_cell_length_a                    42.426525
_cell_length_b                    29.209086
_cell_length_c                    29.20247
_cell_angle_alpha                 89.998159
_cell_angle_beta                  133.93692
_cell_angle_gamma                 90.087953
_cell_volume                      26059.6975772

loop_
_atom_site_label
_atom_site_type_symbol
_atom_type_description
_atom_site_fract_x
_atom_site_fract_y
_atom_site_fract_z
_atom_type_partial_charge
C1    C     C_R   0.499935 0.586678 0.499954 0.911934
C2    C     C_1   0.834610 0.003917 0.333677 -0.067635
C3    C     C_3   0.761548 0.974469 0.227162 -0.008977
C4    C     C_1   0.372590 0.501819 0.372649 -0.193544
C5    C     C_1   0.872592 0.001792 0.372661 -0.193471
C6    C     C_1   0.121253 0.500516 0.120057 -0.201285
C7    C     C_1   0.621255 0.000521 0.120150 -0.201277
C8    C     C_3   0.261132 0.493512 0.299867 -0.159684
C9    C     C_3   0.761179 0.992569 0.299800 -0.159735
C10   C     C_3   0.289024 0.505144 0.286028 0.123663
C11   C     C_3   0.789026 0.005141 0.286152 0.123690
C12   C     C_R   0.279714 0.592770 0.253543 0.106336
C13   C     C_1   0.159246 0.501723 0.156412 -0.062893
C14   C     C_R   0.267189 0.632047 0.265362 -0.150631
C15   C     C_R   0.285343 0.674682 0.272830 -0.134866
C16   C     C_R   0.316079 0.678453 0.268584 -0.108497
C17   C     C_R   0.328663 0.639591 0.256748 -0.134307
C18   C     C_R   0.310560 0.596929 0.249195 -0.161317
C19   C     C_R   0.280721 0.440551 0.213015 0.114391
C20   C     C_R   0.274344 0.393162 0.211504 -0.159933
C21   C     C_R   0.292245 0.362784 0.197666 -0.133887
C22   C     C_R   0.316551 0.379441 0.185198 -0.110002
C23   C     C_R   0.322963 0.426525 0.186495 -0.130668
C24   C     C_1   0.659251 0.001739 0.156585 -0.062865
C25   C     C_R   0.305124 0.456984 0.200318 -0.133545
C26   C     C_R   0.779735 0.093262 0.255693 0.106400
C27   C     C_R   0.767385 0.131959 0.268693 -0.150572
C28   C     C_R   0.785570 0.174811 0.277142 -0.134889
C29   C     C_R   0.816161 0.179377 0.272705 -0.108428
C30   C     C_R   0.828573 0.141097 0.259702 -0.134368
C31   C     C_R   0.810442 0.098220 0.251176 -0.161365
C32   C     C_R   0.780632 0.942020 0.211619 0.114330
C33   C     C_R   0.774219 0.894537 0.208997 -0.159959
C34   C     C_R   0.792063 0.864875 0.194397 -0.133854
C35   C     C_1   0.499837 0.637259 0.499821 -0.223080
C36   C     C_R   0.816349 0.882347 0.182273 -0.110032
C37   C     C_R   0.822800 0.929530 0.184675 -0.130617
C38   C     C_R   0.805017 0.959274 0.199261 -0.133380
C39   C     C_R   0.211385 0.523398 0.119160 0.107158
C40   C     C_R   0.209956 0.567284 0.098086 -0.157266
C41   C     C_R   0.189683 0.574045 0.035259 -0.135173
C42   C     C_R   0.170324 0.537239 0.992821 -0.106385
C43   C     C_R   0.170987 0.493621 0.013050 -0.136205
C44   C     C_R   0.191234 0.486728 0.075810 -0.131084
C45   C     C_R   0.711294 0.025443 0.119736 0.107154
C46   C     C_1   0.499971 0.362740 0.499959 -0.222288
C47   C     C_R   0.709759 0.069792 0.099638 -0.157089
C48   C     C_R   0.689434 0.077545 0.036957 -0.135180
C49   C     C_R   0.670124 0.041269 0.993695 -0.106380
C50   C     C_R   0.670884 0.997189 0.012951 -0.136206
C51   C     C_R   0.691183 0.989306 0.075562 -0.131270
C52   C     C_1   0.999834 0.137259 0.499818 -0.223123
C53   C     C_1   0.999972 0.862740 0.499961 -0.222288
C54   C     C_1   0.499768 0.679395 0.499734 0.002610
C55   C     C_1   0.499984 0.320603 0.499961 0.002657
C56   C     C_1   0.999763 0.179395 0.499729 0.002516
C57   C     C_R   0.499968 0.413321 0.499987 0.907598
C58   C     C_1   0.999986 0.820603 0.499964 0.002673
C59   C     C_1   0.499724 0.729129 0.499686 0.003396
C60   C     C_1   0.500012 0.270868 0.499989 0.004441
C61   C     C_1   0.999718 0.229129 0.499681 0.003270
C62   C     C_1   0.000014 0.770868 0.499991 0.004489
C63   C     C_1   0.499723 0.771265 0.499692 0.002773
C64   C     C_1   0.500040 0.228732 0.500023 0.004029
C65   C     C_1   0.999718 0.271265 0.499688 0.002673
C66   C     C_1   0.000041 0.728732 0.500026 0.004083
C67   C     C_1   0.499759 0.821001 0.499745 0.001543
C68   C     C_R   0.999934 0.086678 0.499953 0.911930
C69   C     C_1   0.500064 0.178997 0.500061 0.002330
C70   C     C_1   0.999756 0.321001 0.499743 0.001484
C71   C     C_1   0.000065 0.678997 0.500063 0.002374
C72   C     C_1   0.499815 0.863139 0.499819 -0.216755
C73   C     C_1   0.500061 0.136859 0.500071 -0.216304
C74   C     C_1   0.999814 0.363139 0.499819 -0.216791
C75   C     C_1   0.000061 0.636859 0.500072 -0.216272
C76   C     C_R   0.417092 0.499210 0.417202 0.954087
C77   C     C_R   0.917094 0.999196 0.417204 0.954003
C78   C     C_1   0.635838 0.499973 0.635627 -0.223175
C79   C     C_R   0.999969 0.913321 0.499988 0.907521
C80   C     C_1   0.135838 0.999973 0.635627 -0.223166
C81   C     C_1   0.677113 0.499949 0.676889 0.015016
C82   C     C_1   0.177113 0.999949 0.676889 0.015022
C83   C     C_1   0.726259 0.499919 0.726077 0.001594
C84   C     C_1   0.226258 0.999919 0.726077 0.001598
C85   C     C_1   0.767535 0.499898 0.767408 0.001597
C86   C     C_1   0.267535 0.999898 0.767408 0.001602
C87   C     C_1   0.816680 0.499882 0.816628 0.015053
C88   C     C_1   0.316680 0.999882 0.816628 0.015056
C89   C     C_1   0.857956 0.499889 0.857967 -0.223310
C90   C     C_3   0.204785 0.503364 0.200708 0.152747
C91   C     C_1   0.357956 0.999889 0.857967 -0.223305
C92   C     C_R   0.994864 0.500000 0.081681 0.906581
C93   C     C_R   0.494864 1.000000 0.081681 0.906617
C94   C     C_R   0.076717 0.500077 0.077419 0.952807
C95   C     C_R   0.576716 0.000078 0.077405 0.952852
C96   C     C_R   0.993035 0.500001 0.906404 0.911486
C97   C     C_R   0.493034 0.000001 0.906404 0.911405
C98   C     C_R   0.907990 0.499956 0.908069 0.891333
C99   C     C_R   0.407990 0.999956 0.908069 0.891331
C100  C     C_R   0.585807 0.500000 0.585750 0.891207
C101  C     C_3   0.704789 0.003394 0.200906 0.152815
C102  C     C_R   0.085806 1.000000 0.585750 0.891203
C103  C     C_R   0.499017 0.000000 0.412823 0.898045
C104  C     C_R   0.999017 0.500000 0.412823 0.898055
C105  C     C_R   0.499913 0.913723 0.499937 0.897787
C106  C     C_R   0.499998 0.086276 0.500023 0.897822
C107  C     C_R   0.999913 0.413723 0.499937 0.897778
C108  C     C_R   0.999998 0.586276 0.500023 0.897836
C109  C     C_R   0.500833 0.000002 0.587130 0.897679
C110  C     C_R   0.000833 0.500002 0.587130 0.897674
C111  C     C_1   0.995576 0.500000 0.132963 -0.223773
C112  C     C_3   0.232406 0.515099 0.186416 -0.040998
C113  C     C_1   0.495576 1.000000 0.132964 -0.223781
C114  C     C_1   0.996175 0.500000 0.175696 0.001982
C115  C     C_1   0.496175 0.000000 0.175696 0.001973
C116  C     C_1   0.996876 0.500000 0.226120 0.004617
C117  C     C_1   0.496876 0.000000 0.226121 0.004603
C118  C     C_1   0.497453 0.000000 0.268829 0.004335
C119  C     C_1   0.997453 0.500000 0.268829 0.004352
C120  C     C_1   0.498094 0.000000 0.319195 0.002378
C121  C     C_1   0.998094 0.500000 0.319195 0.002397
C122  C     C_1   0.498575 0.000000 0.361809 -0.216296
C123  C     C_3   0.732368 0.016073 0.186813 -0.041016
C124  C     C_1   0.998575 0.500000 0.361809 -0.216279
C125  C     C_1   0.994215 0.500008 0.856992 -0.222811
C126  C     C_1   0.494213 0.000009 0.856990 -0.222865
C127  C     C_3   0.231841 0.535063 0.258839 -0.201500
C128  C     C_3   0.233058 0.461841 0.240911 -0.214757
C129  C     C_3   0.731887 0.034379 0.259755 -0.201580
C130  C     C_3   0.733062 0.961607 0.240126 -0.214707
C131  C     C_1   0.995535 0.500015 0.816185 0.001555
C132  C     C_1   0.495533 0.000016 0.816182 0.001444
C133  C     C_1   0.997222 0.500019 0.768148 0.001330
C134  C     C_1   0.334608 0.503945 0.333623 -0.067706
C135  C     C_1   0.497219 0.000021 0.768145 0.001307
C136  C     C_1   0.498588 0.000021 0.727389 0.001546
C137  C     C_1   0.998591 0.500019 0.727392 0.001496
C138  C     C_1   0.499980 0.000015 0.679043 0.001354
C139  C     C_1   0.999981 0.500014 0.679045 0.001314
C140  C     C_1   0.500759 0.000009 0.637675 -0.217139
C141  C     C_1   0.000760 0.500008 0.637675 -0.217163
C142  C     C_3   0.260507 0.546561 0.245584 -0.004408
C143  C     C_3   0.261587 0.473764 0.227745 -0.008935
C144  C     C_3   0.760509 0.046820 0.246693 -0.004407
H1    H     H_    0.217394 0.558975 0.269621 0.134865
H2    H     H_    0.352454 0.642515 0.253420 0.133190
H3    H     H_    0.320626 0.567209 0.240024 0.124110
H4    H     H_    0.255684 0.379522 0.221062 0.122534
H5    H     H_    0.287273 0.326299 0.196617 0.131973
H6    H     H_    0.330373 0.355878 0.174484 0.127468
H7    H     H_    0.341714 0.439438 0.176707 0.130013
H8    H     H_    0.310140 0.493329 0.200766 0.118732
H9    H     H_    0.743671 0.129270 0.272142 0.122744
H10   H     H_    0.775924 0.204507 0.287124 0.131836
H11   H     H_    0.830218 0.212567 0.279298 0.128867
H12   H     H_    0.219647 0.427934 0.237367 0.136266
H13   H     H_    0.852252 0.144636 0.256227 0.133232
H14   H     H_    0.820376 0.068958 0.241115 0.124017
H15   H     H_    0.755571 0.880272 0.218266 0.122538
H16   H     H_    0.787060 0.828315 0.192490 0.131962
H17   H     H_    0.830127 0.859337 0.170968 0.127418
H18   H     H_    0.841535 0.943074 0.175154 0.129966
H19   H     H_    0.810060 0.995708 0.200559 0.118670
H20   H     H_    0.223644 0.596556 0.129285 0.146308
H21   H     H_    0.188727 0.607938 0.019349 0.133318
H22   H     H_    0.154557 0.542578 0.944175 0.129707
H23   H     H_    0.717470 0.057712 0.271120 0.134835
H24   H     H_    0.155680 0.465163 0.980046 0.133749
H25   H     H_    0.191096 0.452779 0.090569 0.133585
H26   H     H_    0.723401 0.098660 0.131494 0.146249
H27   H     H_    0.688399 0.111791 0.021802 0.133277
H28   H     H_    0.654318 0.047373 0.945165 0.129651
H29   H     H_    0.655611 0.969138 0.979308 0.133796
H30   H     H_    0.691113 0.955005 0.089560 0.133620
H31   H     H_    0.719649 0.927490 0.235831 0.136280
H32   H     H_    0.274400 0.484872 0.347559 0.145806
H33   H     H_    0.774486 0.983147 0.347307 0.145790
H34   H     H_    0.243354 0.629974 0.268626 0.122772
H35   H     H_    0.275559 0.704828 0.281899 0.131844
H36   H     H_    0.330112 0.711477 0.274419 0.128812
O1    O     O_R   0.500400 0.563130 0.536080 -0.595784
O2    O     O_R   0.963990 0.500000 0.400890 -0.594467
O3    O     O_R   0.534410 1.000000 0.471310 -0.593959
O4    O     O_R   0.034410 0.500000 0.471310 -0.593957
O5    O     O_R   0.464750 0.936830 0.464780 -0.594966
O6    O     O_R   0.464750 0.063170 0.464780 -0.594352
O7    O     O_R   0.964750 0.436830 0.464780 -0.594993
O8    O     O_R   0.964750 0.563170 0.464780 -0.594331
O9    O     O_R   0.535170 0.936820 0.535200 -0.593783
O10   O     O_R   0.535170 0.063180 0.535200 -0.594131
O11   O     O_R   0.035170 0.436820 0.535200 -0.593778
O12   O     O_R   0.500400 0.436870 0.536080 -0.598104
O13   O     O_R   0.035170 0.563180 0.535200 -0.594134
O14   O     O_R   0.465520 0.000000 0.528690 -0.593645
O15   O     O_R   0.965520 0.500000 0.528690 -0.593646
O16   O     O_R   0.535930 1.000000 0.599110 -0.594820
O17   O     O_R   0.035930 0.500000 0.599110 -0.594837
O18   O     O_R   0.499540 0.563080 0.463930 -0.598763
O19   O     O_R   0.499540 0.436920 0.463930 -0.597807
O20   O     O_R   0.999540 0.063080 0.463930 -0.598789
O21   O     O_R   0.999540 0.936920 0.463930 -0.597767
O22   O     O_R   0.438030 0.500000 0.473700 -0.613549
O23   O     O_R   0.000400 0.063130 0.536080 -0.595747
O24   O     O_R   0.938030 0.000000 0.473700 -0.613546
O25   O     O_R   0.437170 0.500000 0.401550 -0.616458
O26   O     O_R   0.937170 1.000000 0.401550 -0.616356
O27   O     O_R   0.562760 0.500000 0.598450 -0.592058
O28   O     O_R   0.062760 0.000000 0.598450 -0.592062
O29   O     O_R   0.561900 0.500000 0.526300 -0.592324
O30   O     O_R   0.061900 1.000000 0.526300 -0.592318
O31   O     O_R   0.994600 0.535610 0.057840 -0.598437
O32   O     O_R   0.994600 0.464390 0.057840 -0.598051
O33   O     O_R   0.494600 0.035610 0.057840 -0.598440
O34   O     O_R   0.000400 0.936870 0.536080 -0.598133
O35   O     O_R   0.494600 0.964390 0.057840 -0.598027
O36   O     O_R   0.056200 0.535620 0.056290 -0.612881
O37   O     O_R   0.056200 0.464380 0.056290 -0.616259
O38   O     O_R   0.556200 0.035620 0.056290 -0.612827
O39   O     O_R   0.556200 0.964380 0.056290 -0.616286
O40   O     O_R   0.993060 0.535640 0.930020 -0.595874
O41   O     O_R   0.993060 0.464360 0.930020 -0.597696
O42   O     O_R   0.493060 0.035640 0.930020 -0.595879
O43   O     O_R   0.493060 0.964360 0.930020 -0.597701
O44   O     O_R   0.931470 0.535630 0.931560 -0.592108
O45   O     O_R   0.931470 0.464370 0.931560 -0.591990
O46   O     O_R   0.431470 0.035630 0.931560 -0.592116
O47   O     O_R   0.431470 0.964370 0.931560 -0.591984
O48   O     O_R   0.463990 0.000000 0.400890 -0.594476
Zn1   Zn    Zn3+2 0.500540 0.500000 0.548170 0.966550
Zn2   Zn    Zn3+2 0.952950 0.500000 0.452980 0.963432
Zn3   Zn    Zn3+2 0.546980 1.000000 0.547020 0.964181
Zn4   Zn    Zn3+2 0.046980 0.500000 0.547020 0.964167
Zn5   Zn    Zn3+2 0.000540 0.000000 0.548170 0.966565
Zn6   Zn    Zn3+2 0.499390 0.500000 0.451830 0.960300
Zn7   Zn    Zn3+2 0.999390 1.000000 0.451830 0.960435
Zn8   Zn    Zn3+2 0.993830 0.547580 0.993940 0.965603
Zn9   Zn    Zn3+2 0.993830 0.452420 0.993940 0.962916
Zn10  Zn    Zn3+2 0.493830 0.047580 0.993940 0.965644
Zn11  Zn    Zn3+2 0.493830 0.952420 0.993940 0.962955
Zn12  Zn    Zn3+2 0.452950 0.000000 0.452980 0.963430

loop_
_geom_bond_atom_site_label_1
_geom_bond_atom_site_label_2
_ccdc_geom_bond_type
C27   H9    S    
C30   H13   S    
C104  O2    A    
C22   H6    S    
C58   C62   S    
C117  C118  T    
O46   Zn10  S    
C15   H35   S    
C13   C90   S    
C93   O35   A    
C3    C130  S    
O45   Zn9   S    
C41   C42   A    
C1    O18   A    
O20   Zn7   S    
C90   C112  S    
C1    O1    A    
C135  C136  T    
C129  C144  S    
C90   C128  S    
C43   H24   S    
C45   C123  S    
C133  C137  T    
C137  C139  S    
C26   C27   A    
C29   C30   A    
C25   H8    S    
C103  O3    A    
C112  C143  S    
C28   C29   A    
O9    Zn3   S    
C84   C86   T    
O48   Zn12  S    
C30   C31   A    
C86   C88   S    
O21   Zn7   S    
O5    Zn12  S    
C45   C51   A    
C112  C142  S    
C7    C24   T    
C107  O7    A    
C100  O29   A    
C95   O38   A    
O31   Zn8   S    
C109  O16   A    
O10   Zn3   S    
C10   C142  S    
C105  O5    A    
C49   C50   A    
O29   Zn6   S    
C121  C124  T    
C23   H7    S    
C74   C107  S    
C44   H25   S    
O7    Zn2   S    
O2    Zn2   S    
C79   O34   A    
C47   C48   A    
O1    Zn1   S    
O11   Zn4   S    
C6    C94   S    
C98   O44   A    
C46   C55   T    
C70   C74   T    
C95   O39   A    
C90   C127  S    
C20   H4    S    
C69   C73   T    
C32   C38   A    
C11   C144  S    
C34   C36   A    
O32   Zn9   S    
C52   C68   S    
C35   C54   T    
C29   H11   S    
C98   O45   A    
C101  C130  S    
C85   C87   S    
C65   C70   S    
O39   Zn11  S    
C75   C108  S    
C103  C122  S    
C55   C60   S    
C57   O19   A    
C110  O17   A    
C28   H10   S    
C3    C123  S    
C3    C32   S    
C26   C144  S    
C2    C11   S    
C22   C23   A    
C81   C83   S    
C100  O27   A    
C120  C122  T    
C60   C64   T    
C50   C51   A    
C54   C59   S    
C45   C47   A    
O12   Zn1   S    
C63   C67   S    
C15   C16   A    
C129  H23   S    
C93   O33   A    
C99   O46   A    
C105  O9    A    
C67   C72   T    
O8    Zn2   S    
C57   O12   A    
C80   C82   T    
O33   Zn10  S    
O18   Zn6   S    
O19   Zn6   S    
C39   C40   A    
C62   C66   T    
O27   Zn1   S    
C93   C113  S    
C79   O21   A    
C97   O42   A    
C9    C130  S    
C82   C84   S    
O42   Zn10  S    
C94   O37   A    
C97   O43   A    
O15   Zn2   S    
O41   Zn9   S    
O26   Zn7   S    
C127  C142  S    
O14   Zn12  S    
C123  C144  S    
C51   H30   S    
C43   C44   A    
C108  O8    A    
C37   C38   A    
C61   C65   T    
C48   H27   S    
C8    C128  S    
C125  C131  T    
C8    C127  S    
C66   C71   S    
C12   C142  S    
O16   Zn3   S    
C126  C132  T    
O47   Zn11  S    
C12   C18   A    
C17   C18   A    
C64   C69   S    
C109  O14   A    
C101  C123  S    
O30   Zn7   S    
C72   C105  S    
C9    C11   S    
O4    Zn4   S    
C14   H34   S    
C119  C121  S    
C138  C140  T    
C127  H1    S    
O22   Zn1   S    
O6    Zn12  S    
C136  C138  S    
C38   H19   S    
C104  O4    A    
C12   C14   A    
C18   H3    S    
C21   H5    S    
C109  C140  S    
C46   C57   S    
C78   C100  S    
C36   H17   S    
O36   Zn8   S    
C92   O32   A    
O34   Zn5   S    
O35   Zn11  S    
C42   C43   A    
O38   Zn10  S    
C5    C77   S    
C106  O6    A    
C77   O24   A    
O37   Zn9   S    
C27   C28   A    
C47   H26   S    
C9    H33   S    
C76   O25   A    
C1    C35   S    
C4    C134  T    
O17   Zn4   S    
C115  C117  S    
O25   Zn6   S    
C19   C143  S    
C53   C79   S    
C56   C61   S    
C94   O36   A    
O40   Zn8   S    
C8    C10   S    
C102  O30   A    
C10   C134  S    
C97   C126  S    
C131  C133  S    
C49   H28   S    
C114  C116  S    
C53   C58   T    
C8    H32   S    
C92   C111  S    
C40   H20   S    
C39   C44   A    
C104  C124  S    
C9    C129  S    
C130  H31   S    
C7    C95   S    
C59   C63   T    
C116  C119  T    
C68   O20   A    
C89   C98   S    
C24   C101  S    
C110  C141  S    
C91   C99   S    
C32   C33   A    
C19   C20   A    
C87   C89   T    
C17   H2    S    
C103  O48   A    
C101  C129  S    
O43   Zn11  S    
C96   O40   A    
C77   O26   A    
C6    C13   T    
C71   C75   T    
C139  C141  T    
C78   C81   T    
C73   C106  S    
C16   C17   A    
C88   C91   T    
C52   C56   T    
C132  C135  S    
C48   C49   A    
C33   C34   A    
C96   C125  S    
C111  C114  T    
C76   O22   A    
C10   C143  S    
C23   C25   A    
O44   Zn8   S    
C83   C85   T    
C19   C25   A    
C128  C143  S    
C118  C120  S    
C4    C76   S    
C31   H14   S    
C3    C11   S    
C128  H12   S    
C39   C112  S    
C107  O11   A    
C2    C5    T    
O23   Zn5   S    
C33   H15   S    
C26   C31   A    
C41   H21   S    
C20   C21   A    
O24   Zn5   S    
C36   C37   A    
C96   O41   A    
C80   C102  S    
C110  O15   A    
C106  O10   A    
C14   C15   A    
C37   H18   S    
C92   O31   A    
C40   C41   A    
O13   Zn4   S    
C113  C115  T    
C108  O13   A    
C21   C22   A    
O3    Zn3   S    
C102  O28   A    
O28   Zn5   S    
C99   O47   A    
C16   H36   S    
C50   H29   S    
C42   H22   S    
C68   O23   A    
C34   H16   S    
