data_mof_unit_12949.cif
_audit_creation_date              2012-12-11T14:56:48-0500
_audit_creation_method            fapswitch 2.2
_symmetry_space_group_name_H-M    P1
_symmetry_Int_Tables_number       1
_space_group_crystal_system       triclinic
_cell_length_a                    10.56008
_cell_length_b                    10.607518
_cell_length_c                    17.022474
_cell_angle_alpha                 80.487355
_cell_angle_beta                  89.792372
_cell_angle_gamma                 119.148382
_cell_volume                      1634.56886958

loop_
_atom_site_label
_atom_site_type_symbol
_atom_type_description
_atom_site_fract_x
_atom_site_fract_y
_atom_site_fract_z
_atom_type_partial_charge
C1    C     C_R   0.279512 0.889457 0.132852 0.537323
C2    C     C_1   0.651067 0.344524 0.707439 -0.053336
C3    C     C_R   0.650026 0.722953 0.803632 -0.140018
C4    C     C_R   0.638620 0.283702 0.085047 0.530689
C5    C     C_R   0.641072 0.704428 0.725451 -0.127660
C6    C     C_R   0.666476 0.822308 0.664033 0.040635
C7    C     C_R   0.705654 0.960330 0.679953 -0.122093
C8    C     C_R   0.716003 0.979513 0.758457 -0.120221
C9    C     C_R   0.684335 0.859483 0.820253 0.024749
C10   C     C_R   0.076745 0.895242 0.795445 -0.132573
C11   C     C_R   0.047274 0.889089 0.716941 -0.030590
C12   C     C_R   0.829468 0.453361 0.251913 -0.036673
C13   C     C_R   0.049971 0.778299 0.681736 -0.000217
C14   C     C_R   0.076724 0.672670 0.728540 -0.139436
C15   C     C_R   0.119416 0.688786 0.805240 -0.132603
C16   C     C_R   0.601419 0.882310 0.131024 0.544271
C17   C     C_R   0.127116 0.805608 0.836907 0.007645
C18   C     C_R   0.683386 0.813476 0.358673 0.545710
C19   C     C_R   0.728282 0.460698 0.383113 0.558516
C20   C     C_R   0.109238 0.812936 0.360171 0.556255
C21   C     C_R   0.676420 0.801879 0.584215 0.535082
C22   C     C_R   0.678257 0.381328 0.624250 0.546103
C23   C     C_R   0.807908 0.423186 0.175725 -0.121633
C24   C     C_R   0.028234 0.775092 0.596968 0.554591
C25   C     C_R   0.212778 0.856696 0.903371 0.560721
C26   C     C_R   0.637639 0.285612 0.861152 0.544899
C27   C     C_R   0.646595 0.867299 0.899186 0.553602
C28   C     C_R   0.557004 0.367731 0.192752 -0.129959
C29   C     C_R   0.580174 0.408006 0.267296 -0.129504
C30   C     C_R   0.713017 0.441356 0.299861 0.000694
C31   C     C_1   0.035570 0.011023 0.672522 0.238481
C32   C     C_1   0.967320 0.479727 0.280680 0.228550
C33   C     C_R   0.668876 0.367328 0.148951 0.011958
C34   C     C_1   0.635081 0.872187 0.211339 -0.031364
C35   C     C_1   0.661734 0.856273 0.279126 -0.027873
C36   C     C_1   0.229204 0.855471 0.215723 -0.031863
C37   C     C_1   0.180619 0.835855 0.283415 -0.021853
C38   C     C_1   0.643967 0.323694 0.778197 -0.050141
Cr1   Cr    Cr6+3 0.402240 0.783890 0.019450 1.029225
Cr2   Cr    Cr6+3 0.382360 0.097900 0.991800 1.021643
Cr3   Cr    Cr6+3 0.715380 0.118170 0.988700 1.022531
Cr4   Cr    Cr6+3 0.936650 0.882420 0.465510 1.055611
Cr5   Cr    Cr6+3 0.605770 0.565620 0.493360 1.041602
Cr6   Cr    Cr6+3 0.921340 0.550490 0.496380 1.051469
H1    H     H_    0.075580 0.584299 0.703956 0.153319
H2    H     H_    0.739392 0.085142 0.771127 0.147092
H3    H     H_    0.615619 0.598340 0.712693 0.133689
H4    H     H_    0.077357 0.983070 0.820656 0.144314
H5    H     H_    0.449589 0.327739 0.172126 0.142798
H6    H     H_    0.154933 0.616331 0.837313 0.139641
H7    H     H_    0.490374 0.402423 0.301548 0.158552
H8    H     H_    0.896956 0.428366 0.140655 0.148386
H9    H     H_    0.623427 0.629746 0.851200 0.126695
H10   H     H_    0.729023 0.052050 0.632068 0.144184
N1    N     N_1   0.029672 0.110630 0.636950 -0.283855
N2    N     N_1   0.077315 0.498206 0.303138 -0.272725
O1    O     O_R   0.521780 0.757110 0.108900 -0.502052
O2    O     O_R   0.805020 0.410040 0.421340 -0.492209
O3    O     O_R   0.049240 0.685450 0.403290 -0.491553
O4    O     O_R   0.275160 0.783810 0.101120 -0.499078
O5    O     O_R   0.077520 0.903010 0.551800 -0.487846
O6    O     O_R   0.802980 0.872780 0.546830 -0.503817
O7    O     O_R   0.578090 0.681300 0.569920 -0.510088
O8    O     O_R   0.608530 0.436370 0.586530 -0.491221
O9    O     O_R   0.798770 0.401880 0.597100 -0.516951
O10   O     O_R   0.043450 0.677890 0.566230 -0.499402
O11   O     O_3   0.821250 0.666180 0.485090 -0.311839
O12   O     O_R   0.513330 0.228330 0.898660 -0.492979
O13   O     O_R   0.237900 0.972600 0.090980 -0.497993
O14   O     O_R   0.511190 0.220540 0.061620 -0.520115
O15   O     O_R   0.736920 0.257720 0.063840 -0.526291
O16   O     O_R   0.710450 0.984050 0.081720 -0.484083
O17   O     O_R   0.524090 0.765520 0.933110 -0.508132
O18   O     O_R   0.277300 0.791600 0.938160 -0.495547
O19   O     O_R   0.240210 0.981010 0.915190 -0.514489
O20   O     O_R   0.739230 0.266130 0.888050 -0.513803
O21   O     O_R   0.712580 0.991850 0.918770 -0.500595
O22   O     O_3   0.499990 0.999980 0.999980 -0.287882
O23   O     O_R   0.083770 0.911170 0.376030 -0.499494
O24   O     O_R   0.808770 0.880340 0.383890 -0.491392
O25   O     O_R   0.584340 0.689460 0.394160 -0.510231
O26   O     O_R   0.614320 0.443940 0.423590 -0.495949

loop_
_geom_bond_atom_site_label_1
_geom_bond_atom_site_label_2
_ccdc_geom_bond_type
Cr4   O24   S    
C24   O5    A    
C11   C13   A    
Cr6   O10   S    
C16   O16   A    
C4    O14   A    
Cr5   O7    S    
C7    C8    A    
C5    H3    S    
C12   C23   A    
Cr2   O14   S    
C36   C37   T    
C34   C35   T    
Cr3   O21   S    
C5    C6    A    
Cr1   O18   S    
Cr6   O3    S    
Cr1   O1    S    
C18   O25   A    
C25   O18   A    
C15   H6    S    
C16   C34   S    
Cr6   O2    S    
C8    C9    A    
C23   C33   A    
C2    C22   S    
C26   O20   A    
C19   O26   A    
C18   C35   S    
Cr4   O6    S    
C24   O10   A    
Cr3   O15   S    
C11   C31   S    
Cr4   O23   S    
C13   C14   A    
C12   C32   S    
Cr6   O9    S    
Cr5   O8    S    
C14   H1    S    
C19   O2    A    
Cr2   O13   S    
Cr1   O22   S    
C1    O4    A    
Cr3   O22   S    
C26   C38   S    
C27   O21   A    
C6    C21   S    
C1    O13   A    
C13   C24   S    
C25   O19   A    
C22   O9    A    
C29   C30   A    
C3    C9    A    
C28   H5    S    
C2    C38   T    
C20   O3    A    
Cr4   O5    S    
C21   O6    A    
Cr3   O16   S    
C18   O24   A    
C28   C33   A    
C10   H4    S    
Cr4   O11   S    
Cr5   O25   S    
Cr2   O22   S    
C9    C27   S    
C29   H7    S    
C15   C17   A    
C4    C33   S    
C28   C29   A    
C20   O23   A    
C12   C30   A    
C3    C5    A    
C6    C7    A    
Cr2   O19   S    
C17   C25   S    
C26   O12   A    
Cr3   O20   S    
C20   C37   S    
C3    H9    S    
C23   H8    S    
Cr1   O4    S    
C16   O1    A    
Cr1   O17   S    
C8    H2    S    
C21   O7    A    
C10   C11   A    
C22   O8    A    
Cr5   O11   S    
Cr2   O12   S    
Cr5   O26   S    
C14   C15   A    
Cr6   O11   S    
C10   C17   A    
C7    H10   S    
C31   N1    T    
C27   O17   A    
C19   C30   S    
C32   N2    T    
C4    O15   A    
C1    C36   S    
