data_mof_unit_23340.cif
_audit_creation_date              2012-12-10T17:46:22-0500
_audit_creation_method            fapswitch 2.2
_symmetry_space_group_name_H-M    P1
_symmetry_Int_Tables_number       1
_space_group_crystal_system       triclinic
_cell_length_a                    14.138727
_cell_length_b                    10.725294
_cell_length_c                    9.993212
_cell_angle_alpha                 89.328688
_cell_angle_beta                  90.407557
_cell_angle_gamma                 94.139264
_cell_volume                      1511.30428943

loop_
_atom_site_label
_atom_site_type_symbol
_atom_type_description
_atom_site_fract_x
_atom_site_fract_y
_atom_site_fract_z
_atom_type_partial_charge
C1    C     C_R   0.502946 0.260864 0.501313 1.114754
C2    C     C_R   0.430998 0.056896 0.455920 0.590098
C3    C     C_R   0.432346 0.929506 0.452964 0.506240
C4    C     C_R   0.329447 0.499677 0.499630 0.985054
C5    C     C_R   0.512687 0.872821 0.496739 -0.288993
C6    C     C_R   0.357264 0.349482 0.137564 0.748209
C7    C     C_R   0.282434 0.290216 0.068041 -0.310869
C8    C     C_R   0.282997 0.289271 0.931595 -0.344569
C9    C     C_R   0.358298 0.347818 0.862519 0.727847
C10   C     C_R   0.430645 0.425980 0.927719 -0.175098
C11   C     C_R   0.430389 0.426453 0.072336 -0.196940
C12   C     C_1   0.771914 0.495430 0.500521 -0.104120
C13   C     C_R   0.565235 0.570481 0.070983 0.578394
C14   C     C_R   0.565150 0.570542 0.928559 0.583196
C15   C     C_R   0.504532 0.739600 0.499179 0.996663
C16   C     C_R   0.670404 0.497716 0.500143 0.921344
C17   C     C_1   0.227847 0.498275 0.498925 -0.104557
C18   C     C_1   0.142471 0.496905 0.498972 0.021801
C19   C     C_1   0.042453 0.495479 0.499470 0.037159
C20   C     C_1   0.957105 0.494712 0.499990 0.030004
C21   C     C_1   0.857164 0.494602 0.500451 0.006500
C22   C     C_R   0.670425 0.144782 0.611271 0.636523
C23   C     C_R   0.752252 0.088842 0.648141 -0.191004
C24   C     C_R   0.758857 0.962829 0.628305 -0.247531
C25   C     C_R   0.682140 0.889423 0.575625 0.185894
C26   C     C_R   0.595361 0.943261 0.542956 -0.017413
C27   C     C_R   0.591460 0.074063 0.554125 -0.154805
C28   C     C_R   0.509233 0.128811 0.505308 -0.348857
F1    F     F_    0.351180 0.110256 0.415631 -0.572207
F2    F     F_    0.359793 0.312378 0.735234 -0.635784
F3    F     F_    0.631822 0.643790 0.862227 -0.627387
F4    F     F_    0.670127 0.267585 0.636601 -0.695252
F5    F     F_    0.353918 0.860253 0.409660 -0.626661
F6    F     F_    0.631997 0.643607 0.136938 -0.610487
F7    F     F_    0.357420 0.316182 0.266126 -0.597414
H1    H     H_    0.227980 0.233690 0.878698 0.217936
H2    H     H_    0.811740 0.144347 0.690896 0.180610
H3    H     H_    0.824410 0.921384 0.653553 0.177077
H4    H     H_    0.226929 0.235437 0.121126 0.227769
H5    H     H_    0.719621 0.721490 0.637577 0.239298
H6    H     H_    0.750591 0.760455 0.478729 0.181610
N1    N     N_R   0.499190 0.498800 0.142780 -0.166958
N2    N     N_R   0.499160 0.498720 0.857170 -0.159293
N3    N     N_3   0.696161 0.762108 0.548874 -0.449485
O1    O     O_R   0.500000 0.316780 0.614690 -0.502416
O2    O     O_R   0.499990 0.316750 0.385360 -0.559973
O3    O     O_R   0.373720 0.500010 0.614690 -0.574010
O4    O     O_R   0.373710 0.499990 0.385360 -0.552195
O5    O     O_R   0.500010 0.683250 0.614640 -0.594896
O6    O     O_R   0.500000 0.683220 0.385310 -0.562316
O7    O     O_R   0.626290 0.500010 0.614640 -0.524932
O8    O     O_R   0.626280 0.499990 0.385310 -0.582977
Zn1   Zn    Zn3+2 0.500010 0.500020 0.653130 1.096490
Zn2   Zn    Zn3+2 0.499990 0.499980 0.346870 1.088929

loop_
_geom_bond_atom_site_label_1
_geom_bond_atom_site_label_2
_ccdc_geom_bond_type
C1    C28   S    
C24   H3    S    
C23   C24   A    
C6    C7    A    
C9    C10   A    
C19   C20   T    
C16   O7    A    
H5    N3    S    
C14   F3    S    
O3    Zn1   S    
O2    Zn2   S    
C17   C18   T    
C10   N2    A    
C3    C5    A    
O1    Zn1   S    
C13   F6    S    
C13   C14   A    
N1    Zn2   S    
O4    Zn2   S    
C1    O1    A    
C26   C27   A    
O6    Zn2   S    
C22   F4    S    
C9    F2    S    
C2    F1    S    
O5    Zn1   S    
C4    C17   S    
C25   N3    S    
C13   N1    A    
O8    Zn2   S    
C2    C3    A    
C22   C27   A    
C15   O5    A    
C4    O4    A    
H6    N3    S    
C1    O2    A    
C5    C15   S    
C10   C11   A    
C3    F5    S    
C5    C26   A    
C16   O8    A    
C7    C8    A    
C24   C25   A    
C11   N1    A    
C20   C21   S    
C18   C19   S    
C8    H1    S    
C15   O6    A    
C6    C11   A    
C7    H4    S    
C22   C23   A    
C14   N2    A    
C2    C28   A    
O7    Zn1   S    
C25   C26   A    
C23   H2    S    
C12   C21   T    
N2    Zn1   S    
C6    F7    S    
C12   C16   S    
C8    C9    A    
C27   C28   A    
C4    O3    A    
