data_mof_unit_30668.cif
_audit_creation_date              2012-12-10T17:20:54-0500
_audit_creation_method            fapswitch 2.2
_symmetry_space_group_name_H-M    P1
_symmetry_Int_Tables_number       1
_space_group_crystal_system       triclinic
_cell_length_a                    14.339825
_cell_length_b                    10.800386
_cell_length_c                    9.605713
_cell_angle_alpha                 90.10808
_cell_angle_beta                  90.016
_cell_angle_gamma                 92.29948
_cell_volume                      1486.49031038

loop_
_atom_site_label
_atom_site_type_symbol
_atom_type_description
_atom_site_fract_x
_atom_site_fract_y
_atom_site_fract_z
_atom_type_partial_charge
C1    C     C_R   0.497328 0.262553 0.499863 0.830873
C2    C     C_1   0.771179 0.501917 0.500243 -0.213376
C3    C     C_R   0.351344 0.122080 0.649797 -0.157061
C4    C     C_R   0.283466 0.054393 0.724485 -0.139115
C5    C     C_R   0.283770 0.925746 0.726303 -0.135295
C6    C     C_R   0.351814 0.863990 0.653150 -0.148591
C7    C     C_R   0.422536 0.930724 0.578686 0.100051
C8    C     C_R   0.422618 0.061700 0.577394 0.037084
C9    C     C_R   0.491899 0.128252 0.499397 -0.208257
C10   C     C_R   0.557432 0.066001 0.419581 0.436803
C11   C     C_R   0.554819 0.937542 0.418279 -0.296310
C12   C     C_R   0.331187 0.499703 0.500021 0.784324
C13   C     C_R   0.490840 0.870343 0.500408 -0.156929
C14   C     C_R   0.623317 0.665302 0.144220 -0.138262
C15   C     C_R   0.682801 0.746936 0.072294 -0.202440
C16   C     C_R   0.682720 0.747057 0.928924 -0.199973
C17   C     C_R   0.623125 0.665595 0.856527 -0.132172
C18   C     C_R   0.560337 0.581503 0.925402 0.205935
C19   C     C_R   0.560381 0.581397 0.074949 0.209752
C20   C     C_R   0.442667 0.422348 0.073658 -0.040874
C21   C     C_R   0.442683 0.422383 0.925853 -0.054871
C22   C     C_R   0.496849 0.737036 0.500157 0.788197
C23   C     C_R   0.668806 0.500652 0.500027 0.790509
C24   C     C_1   0.228838 0.500382 0.500064 -0.202921
C25   C     C_1   0.143412 0.501091 0.500143 -0.012417
C26   C     C_1   0.042742 0.501948 0.500234 -0.001807
C27   C     C_1   0.957314 0.502523 0.500315 -0.004822
C28   C     C_1   0.856629 0.502606 0.500347 -0.013088
Cu1   Cu    Cu3+1 0.499990 0.499990 0.640660 0.919310
Cu2   Cu    Cu3+1 0.500010 0.500010 0.359340 0.946727
H1    H     H_    0.729598 0.810400 0.873006 0.146923
H2    H     H_    0.629956 0.672831 0.746877 0.192428
H3    H     H_    0.395697 0.358699 0.870601 0.133282
H4    H     H_    0.345739 0.221501 0.647389 0.133968
H5    H     H_    0.229560 0.101971 0.779502 0.130929
H6    H     H_    0.230111 0.873426 0.782756 0.135937
H7    H     H_    0.346756 0.763940 0.653443 0.149709
H8    H     H_    0.604742 0.889978 0.354941 0.148043
H9    H     H_    0.395684 0.358635 0.128580 0.137384
H10   H     H_    0.630345 0.672324 0.253850 0.186369
H11   H     H_    0.729694 0.810238 0.128589 0.146972
N1    N     N_R   0.500820 0.501210 0.147910 -0.191619
N2    N     N_R   0.500850 0.501290 0.852040 -0.192379
O1    O     O_R   0.499990 0.319640 0.618810 -0.584742
O2    O     O_R   0.500000 0.319660 0.381240 -0.530199
O3    O     O_R   0.376050 0.499990 0.618810 -0.571774
O4    O     O_R   0.376060 0.500010 0.381240 -0.556577
O5    O     O_R   0.500000 0.680340 0.618760 -0.598883
O6    O     O_R   0.500010 0.680360 0.381190 -0.583888
O7    O     O_R   0.623940 0.499990 0.618760 -0.572163
O8    O     O_R   0.623950 0.500010 0.381190 -0.572667
O9    O     O_3   0.621020 0.131351 0.336484 -0.589420
C29   C     C_3   0.710304 0.128908 0.398225 0.037651
H12   H     H_    0.733215 0.032033 0.409289 0.131595
H13   H     H_    0.709800 0.174233 0.502617 0.133708
C30   C     C_3   0.780430 0.199659 0.305318 -0.298717
H14   H     H_    0.779030 0.158106 0.199328 0.222337
H15   H     H_    0.760522 0.297711 0.296607 0.232474
C31   C     C_3   0.879261 0.195359 0.363637 -0.924069
H16   H     H_    0.882023 0.233118 0.471230 0.262379
H17   H     H_    0.927869 0.251877 0.297224 0.261744
H18   H     H_    0.902399 0.098440 0.364857 0.252284

loop_
_geom_bond_atom_site_label_1
_geom_bond_atom_site_label_2
_ccdc_geom_bond_type
C11   H8    S    
C22   O5    A    
Cu2   O8    S    
C19   N1    A    
C24   C25   T    
C29   H12   S    
Cu1   Cu2   S    
C9    C10   A    
C12   C24   S    
C1    O1    A    
C23   O8    A    
C30   C31   S    
C7    C13   A    
Cu1   O3    S    
C10   O9    S    
C29   H13   S    
C17   C18   A    
C6    H7    S    
C31   H16   S    
C18   N2    A    
Cu1   N2    S    
C16   H1    S    
C20   N1    A    
C11   C13   A    
C1    O2    A    
C26   C27   T    
C6    C7    A    
C12   O4    A    
C4    C5    A    
Cu2   O6    S    
C30   H15   S    
C13   C22   S    
C3    C8    A    
Cu1   O7    S    
C22   O6    A    
Cu1   O1    S    
C5    C6    A    
C31   H17   S    
C21   H3    S    
C30   H14   S    
Cu1   O5    S    
C14   H10   S    
C3    C4    A    
C31   H18   S    
C5    H6    S    
Cu2   O4    S    
C7    C8    A    
C1    C9    S    
C20   C21   A    
C15   H11   S    
C12   O3    A    
C18   C19   A    
C10   C11   A    
C29   C30   S    
C2    C23   S    
C17   H2    S    
C20   H9    S    
C4    H5    S    
C14   C15   A    
C16   C17   A    
C23   O7    A    
C2    C28   T    
Cu2   O2    S    
C3    H4    S    
C25   C26   S    
C21   N2    A    
C14   C19   A    
Cu2   N1    S    
C15   C16   A    
O9    C29   S    
C8    C9    A    
C27   C28   S    
