data_mof_unit_54468.cif
_audit_creation_date              2012-10-26T20:13:54-0400
_audit_creation_method            fapswitch 2.2
_symmetry_space_group_name_H-M    P1
_symmetry_Int_Tables_number       1
_space_group_crystal_system       triclinic
_cell_length_a                    8.718833
_cell_length_b                    10.760676
_cell_length_c                    9.58363
_cell_angle_alpha                 90.169373
_cell_angle_beta                  97.844193
_cell_angle_gamma                 90.359081
_cell_volume                      890.703842488

loop_
_atom_site_label
_atom_site_type_symbol
_atom_type_description
_atom_site_fract_x
_atom_site_fract_y
_atom_site_fract_z
_atom_type_partial_charge
C1    C     C_R   0.502665 0.262767 0.500005 0.545180
C2    C     C_R   0.496880 0.609022 0.925984 0.143751
C3    C     C_3   0.610008 0.713635 0.930198 -0.250859
C4    C     C_R   0.204008 0.499249 0.463919 0.552188
C5    C     C_3   0.614576 0.714893 0.089632 -0.154347
C6    C     C_R   0.499392 0.737211 0.499904 0.545619
C7    C     C_R   0.796009 0.499991 0.536121 0.531078
C8    C     C_2   0.038090 0.497443 0.444262 -0.167232
C9    C     C_2   0.961979 0.500301 0.555948 -0.168795
C10   C     C_R   0.375051 0.064344 0.524204 -0.002708
C11   C     C_R   0.506636 0.129359 0.497682 0.021086
C12   C     C_R   0.626228 0.933098 0.451772 -0.145270
C13   C     C_R   0.631434 0.063575 0.451995 -0.013083
C14   C     C_3   0.774866 0.683684 0.167051 -0.381544
C15   C     C_3   0.775893 0.127334 0.414875 -0.265601
C16   C     C_3   0.786983 0.115496 0.257844 -0.426954
C17   C     C_R   0.501191 0.870248 0.497707 -0.000961
C18   C     C_R   0.371988 0.936739 0.523859 0.004209
C19   C     C_3   0.278740 0.931019 0.643227 -0.273176
C20   C     C_3   0.282894 0.072394 0.644259 -0.274350
C21   C     C_R   0.499268 0.609250 0.073135 0.175443
C22   C     C_R   0.487211 0.392420 0.072183 -0.022913
C23   C     C_R   0.488105 0.392317 0.924201 -0.018582
Cu1   Cu    Cu3+1 0.499990 0.499980 0.640670 0.926702
Cu2   Cu    Cu3+1 0.500010 0.500020 0.359330 0.925137
H1    H     H_    0.978427 0.493441 0.337192 0.123081
H2    H     H_    0.167466 0.114724 0.612546 0.129804
H3    H     H_    0.350268 0.112290 0.741084 0.133783
H4    H     H_    0.477686 0.304763 0.124706 0.118797
H5    H     H_    0.774620 0.692342 0.282059 0.171743
H6    H     H_    0.810335 0.588499 0.140257 0.152238
H7    H     H_    0.861329 0.751325 0.137183 0.109480
H8    H     H_    0.683278 0.156249 0.194943 0.152542
H9    H     H_    0.891400 0.166023 0.233238 0.138247
H10   H     H_    0.796425 0.016397 0.227565 0.141480
H11   H     H_    0.780078 0.227281 0.443743 0.162418
H12   H     H_    0.480622 0.304383 0.869257 0.115900
H13   H     H_    0.879597 0.084373 0.475913 0.127721
H14   H     H_    0.719646 0.685321 0.892027 0.154311
H15   H     H_    0.557351 0.798804 0.879814 0.109079
H16   H     H_    0.565440 0.801413 0.128785 0.135455
H17   H     H_    0.021779 0.503473 0.663159 0.133200
H18   H     H_    0.723187 0.880810 0.423119 0.105293
H19   H     H_    0.160960 0.892009 0.610167 0.131014
H20   H     H_    0.342527 0.889181 0.739706 0.137074
N1    N     N_R   0.500980 0.500930 0.148050 -0.228398
N2    N     N_R   0.500990 0.500890 0.852140 -0.231948
O1    O     O_R   0.500000 0.319640 0.618810 -0.514396
O2    O     O_R   0.500020 0.319680 0.381230 -0.510170
O3    O     O_R   0.274830 0.499980 0.591380 -0.494458
O4    O     O_R   0.274850 0.500020 0.353800 -0.492164
O5    O     O_R   0.499980 0.680320 0.618770 -0.504283
O6    O     O_R   0.500000 0.680360 0.381190 -0.505551
O7    O     O_R   0.725150 0.499980 0.646200 -0.495832
O8    O     O_R   0.725170 0.500020 0.408620 -0.509480

loop_
_geom_bond_atom_site_label_1
_geom_bond_atom_site_label_2
_ccdc_geom_bond_type
C12   C17   A    
Cu1   O5    S    
C19   H20   S    
C15   H13   S    
C22   H4    S    
C16   H8    S    
C8    H1    S    
C20   H3    S    
C19   C20   S    
C1    C11   S    
C7    O8    A    
C14   H6    S    
C4    C8    S    
C6    O5    A    
C2    C21   A    
Cu2   O4    S    
C2    C3    S    
C5    C14   S    
C3    H14   S    
C1    O1    A    
C14   H7    S    
C19   H19   S    
C12   C13   A    
C11   C13   A    
C20   H2    S    
C9    H17   S    
C14   H5    S    
C22   N1    A    
C10   C18   A    
C3    H15   S    
C17   C18   A    
C12   H18   S    
C13   C15   S    
C16   H10   S    
Cu1   O3    S    
C2    N2    A    
Cu2   O2    S    
C23   N2    A    
C10   C11   A    
C4    O4    A    
Cu1   O7    S    
C15   C16   S    
Cu1   O1    S    
C15   H11   S    
C5    C21   S    
Cu1   Cu2   S    
C21   N1    A    
C10   C20   S    
C7    C9    S    
C6    C17   S    
C5    H16   S    
C22   C23   A    
C18   C19   S    
C6    O6    A    
C7    O7    A    
C16   H9    S    
C23   H12   S    
Cu1   N2    S    
C1    O2    A    
Cu2   N1    S    
Cu2   O6    S    
Cu2   O8    S    
C4    O3    A    
C8    C9    D    
C3    C5    S    
