data_mof_unit_17558.cif
_audit_creation_date              2012-12-11T15:35:53-0500
_audit_creation_method            fapswitch 2.2
_symmetry_space_group_name_H-M    P1
_symmetry_Int_Tables_number       1
_space_group_crystal_system       triclinic
_cell_length_a                    7.024417
_cell_length_b                    12.089895
_cell_length_c                    35.747842
_cell_angle_alpha                 90.0001
_cell_angle_beta                  91.545034
_cell_angle_gamma                 89.998393
_cell_volume                      3034.76260309

loop_
_atom_site_label
_atom_site_type_symbol
_atom_type_description
_atom_site_fract_x
_atom_site_fract_y
_atom_site_fract_z
_atom_type_partial_charge
O1    O     O_R   0.379730 0.148600 0.662710 -0.544151
O2    O     O_R   0.620270 0.851400 0.337290 -0.544152
O3    O     O_R   0.120270 0.648600 0.337290 -0.544123
O4    O     O_R   0.879730 0.351400 0.662710 -0.544122
O5    O     O_R   0.722480 0.134490 0.741330 -0.541474
O6    O     O_R   0.277520 0.865510 0.258670 -0.541474
O7    O     O_R   0.777520 0.634490 0.258670 -0.541465
O8    O     O_R   0.222480 0.365510 0.741330 -0.541466
O9    O     O_R   0.892880 0.345890 0.741600 -0.522278
O10   O     O_R   0.107120 0.654110 0.258400 -0.522278
O11   O     O_R   0.607120 0.845890 0.258400 -0.522275
O12   O     O_R   0.392880 0.154110 0.741600 -0.522275
C1    C     C_R   0.553970 0.110880 0.753916 0.716861
C2    C     C_R   0.446030 0.889120 0.246083 0.716862
C3    C     C_R   0.946032 0.610881 0.246083 0.716857
C4    C     C_R   0.053967 0.389119 0.753917 0.716857
O13   O     O_R   0.709490 0.135560 0.662990 -0.544064
O14   O     O_R   0.290510 0.864440 0.337010 -0.544063
O15   O     O_R   0.790510 0.635560 0.337010 -0.544073
O16   O     O_R   0.209490 0.364440 0.662990 -0.544074
C5    C     C_R   0.539251 0.107321 0.651327 0.680074
C6    C     C_R   0.460749 0.892679 0.348673 0.680074
C7    C     C_R   0.960758 0.607317 0.348670 0.680053
C8    C     C_R   0.039241 0.392683 0.651329 0.680053
O17   O     O_3   0.552800 0.316610 0.702160 -0.371105
O18   O     O_3   0.447200 0.683390 0.297840 -0.371105
O19   O     O_3   0.947200 0.816610 0.297840 -0.371118
O20   O     O_3   0.052800 0.183390 0.702160 -0.371118
V1    V     V_3+5 0.827630 0.234380 0.702160 1.462305
V2    V     V_3+5 0.172370 0.765620 0.297840 1.462304
V3    V     V_3+5 0.672370 0.734380 0.297840 1.462299
V4    V     V_3+5 0.327630 0.265620 0.702160 1.462299
C9    C     C_R   0.002338 0.660271 0.914138 0.547883
C10   C     C_R   0.997663 0.339730 0.085862 0.547882
C11   C     C_R   0.497659 0.160272 0.085862 0.547884
C12   C     C_R   0.502340 0.839729 0.914138 0.547884
O21   O     O_2   0.987065 0.550908 0.920794 -0.551683
O22   O     O_2   0.012936 0.449093 0.079206 -0.551683
O23   O     O_2   0.512930 0.050909 0.079207 -0.551684
O24   O     O_2   0.487069 0.949092 0.920793 -0.551684
N1    N     N_R   0.018770 0.698447 0.878052 -0.535351
N2    N     N_R   0.981230 0.301554 0.121948 -0.535351
N3    N     N_R   0.481228 0.198449 0.121949 -0.535350
N4    N     N_R   0.518772 0.801552 0.878051 -0.535350
C13   C     C_R   0.032498 0.810400 0.871913 0.535215
C14   C     C_R   0.967502 0.189601 0.128087 0.535214
C15   C     C_R   0.467504 0.310403 0.128088 0.535216
C16   C     C_R   0.532496 0.689598 0.871913 0.535217
C17   C     C_R   0.925866 0.639651 0.812319 -0.037781
C18   C     C_R   0.074134 0.360349 0.187681 -0.037781
C19   C     C_R   0.574126 0.139650 0.187683 -0.037787
C20   C     C_R   0.425874 0.860350 0.812318 -0.037787
C21   C     C_R   0.934683 0.564496 0.782462 -0.195898
C22   C     C_R   0.065316 0.435504 0.217537 -0.195897
C23   C     C_R   0.565307 0.064496 0.217538 -0.195905
C24   C     C_R   0.434694 0.935504 0.782462 -0.195906
C25   C     C_R   0.152022 0.450524 0.819079 -0.055808
C26   C     C_R   0.847979 0.549477 0.180921 -0.055807
C27   C     C_R   0.347972 0.950530 0.180922 -0.055801
C28   C     C_R   0.652027 0.049470 0.819078 -0.055801
C29   C     C_R   0.140567 0.525129 0.848998 -0.115824
C30   C     C_R   0.859434 0.474872 0.151002 -0.115824
C31   C     C_R   0.359428 0.025135 0.151003 -0.115820
C32   C     C_R   0.640571 0.974866 0.848997 -0.115821
C33   C     C_R   0.027260 0.620945 0.846490 0.319627
C34   C     C_R   0.972740 0.379056 0.153510 0.319627
C35   C     C_R   0.472735 0.120948 0.153511 0.319621
C36   C     C_R   0.527265 0.879053 0.846490 0.319621
C37   C     C_R   0.014818 0.848743 0.938768 -0.037614
C38   C     C_R   0.985182 0.151258 0.061231 -0.037614
C39   C     C_R   0.485182 0.348744 0.061232 -0.037615
C40   C     C_R   0.514818 0.651257 0.938768 -0.037615
C41   C     C_R   0.996397 0.734249 0.944689 -0.033018
C42   C     C_R   0.003603 0.265752 0.055310 -0.033018
C43   C     C_R   0.503602 0.234249 0.055311 -0.033021
C44   C     C_R   0.496398 0.765751 0.944689 -0.033021
C45   C     C_R   0.975077 0.695235 0.981161 -0.115017
C46   C     C_R   0.024923 0.304766 0.018838 -0.115017
C47   C     C_R   0.524921 0.195234 0.018839 -0.115017
C48   C     C_R   0.475078 0.804767 0.981161 -0.115016
C49   C     C_R   0.042577 0.887034 0.902152 -0.073335
C50   C     C_R   0.957423 0.112967 0.097847 -0.073335
C51   C     C_R   0.457425 0.387036 0.097848 -0.073326
C52   C     C_R   0.542576 0.612965 0.902152 -0.073326
C53   C     C_R   0.047262 0.468979 0.785492 -0.059203
C54   C     C_R   0.952738 0.531021 0.214508 -0.059203
C55   C     C_R   0.452730 0.968982 0.214508 -0.059212
C56   C     C_R   0.547270 0.031018 0.785491 -0.059212
H1    H     H_    0.220983 0.507938 0.874418 0.143445
H2    H     H_    0.779018 0.492063 0.125582 0.143445
H3    H     H_    0.279014 0.007946 0.125583 0.143446
H4    H     H_    0.720985 0.992055 0.874418 0.143446
H5    H     H_    0.964276 0.607422 0.986794 0.164363
H6    H     H_    0.035725 0.392579 0.013205 0.164363
H7    H     H_    0.535722 0.107421 0.013206 0.164362
H8    H     H_    0.464277 0.892580 0.986794 0.164362
C57   C     C_R   0.966455 0.960358 0.036645 0.030790
C58   C     C_R   0.033545 0.039643 0.963355 0.030790
C59   C     C_R   0.533544 0.460356 0.963355 0.030794
C60   C     C_R   0.466456 0.539645 0.036645 0.030794
C61   C     C_R   0.021155 0.115833 0.993783 0.023418
C62   C     C_R   0.978845 0.884168 0.006216 0.023418
C63   C     C_R   0.478846 0.615834 0.006216 0.023417
C64   C     C_R   0.521154 0.384167 0.993784 0.023417
C65   C     C_R   0.991601 0.075491 0.030470 0.074964
C66   C     C_R   0.008399 0.924510 0.969530 0.074964
C67   C     C_R   0.508399 0.575490 0.969530 0.074963
C68   C     C_R   0.491601 0.424511 0.030471 0.074963
C69   C     C_R   0.922611 0.925597 0.073070 -0.165039
C70   C     C_R   0.077389 0.074404 0.926930 -0.165038
C71   C     C_R   0.577389 0.425593 0.926930 -0.165044
C72   C     C_R   0.422612 0.574408 0.073070 -0.165044
C73   C     C_R   0.916744 0.999550 0.102942 -0.031460
C74   C     C_R   0.083255 0.000451 0.897057 -0.031461
C75   C     C_R   0.583254 0.499546 0.897057 -0.031460
C76   C     C_R   0.416746 0.500455 0.102943 -0.031461
O25   O     O_2   0.965503 0.151582 0.163416 -0.562226
O26   O     O_2   0.034495 0.848418 0.836583 -0.562226
O27   O     O_2   0.534490 0.651578 0.836583 -0.562223
O28   O     O_2   0.465511 0.348423 0.163417 -0.562223
C77   C     C_R   0.966961 0.768073 0.011221 -0.168406
C78   C     C_R   0.033039 0.231928 0.988779 -0.168406
C79   C     C_R   0.533038 0.268072 0.988779 -0.168405
C80   C     C_R   0.466962 0.731930 0.011221 -0.168405
H9    H     H_    0.147148 0.419111 0.243052 0.118749
H10   H     H_    0.852851 0.580889 0.756948 0.118750
H11   H     H_    0.352863 0.919114 0.756946 0.118763
H12   H     H_    0.647138 0.080885 0.243054 0.118763
H13   H     H_    0.164658 0.288787 0.191380 0.183742
H14   H     H_    0.835341 0.711213 0.808620 0.183742
H15   H     H_    0.335349 0.788791 0.808618 0.183752
H16   H     H_    0.664651 0.211209 0.191382 0.183753
H17   H     H_    0.886102 0.841042 0.079158 0.118876
H18   H     H_    0.113898 0.158958 0.920842 0.118876
H19   H     H_    0.613897 0.341038 0.920842 0.118876
H20   H     H_    0.386103 0.658963 0.079158 0.118876
H21   H     H_    0.954734 0.729687 0.038211 0.137907
H22   H     H_    0.045267 0.270315 0.961789 0.137907
H23   H     H_    0.545266 0.229684 0.961789 0.137906
H24   H     H_    0.454734 0.770317 0.038211 0.137906
C81   C     C_R   0.971226 0.529183 0.379614 -0.027832
C82   C     C_R   0.028770 0.470816 0.620386 -0.027829
C83   C     C_R   0.528858 0.029164 0.620387 -0.027957
C84   C     C_R   0.471141 0.970835 0.379612 -0.027957
C85   C     C_R   0.935644 0.344356 0.403688 -0.167670
C86   C     C_R   0.064311 0.655646 0.596312 -0.167670
C87   C     C_R   0.565909 0.844457 0.596297 -0.167630
C88   C     C_R   0.434073 0.155541 0.403703 -0.167632
C89   C     C_R   0.940007 0.416656 0.373443 -0.185699
C90   C     C_R   0.059964 0.583346 0.626556 -0.185701
C91   C     C_R   0.561125 0.916725 0.626545 -0.185627
C92   C     C_R   0.438860 0.083273 0.373455 -0.185627
C93   C     C_R   0.997418 0.569927 0.415877 -0.217458
C94   C     C_R   0.002584 0.430071 0.584123 -0.217456
C95   C     C_R   0.502062 0.069852 0.584130 -0.217518
C96   C     C_R   0.497949 0.930148 0.415869 -0.217520
C97   C     C_R   0.988914 0.499069 0.447204 0.080330
C98   C     C_R   0.011060 0.500931 0.552795 0.080330
C99   C     C_R   0.511093 0.999046 0.552796 0.080272
C100  C     C_R   0.488907 0.000952 0.447203 0.080272
C101  C     C_R   0.958143 0.384571 0.440391 0.129025
C102  C     C_R   0.041815 0.615431 0.559609 0.129024
C103  C     C_R   0.542884 0.884633 0.559600 0.129091
C104  C     C_R   0.457106 0.115365 0.440400 0.129092
C105  C     C_R   0.006589 0.538317 0.484863 0.052776
C106  C     C_R   0.993376 0.461684 0.515137 0.052776
C107  C     C_R   0.493056 0.038280 0.515141 0.052736
C108  C     C_R   0.506944 0.961719 0.484859 0.052736
C109  C     C_R   0.963902 0.348412 0.506745 -0.195836
C110  C     C_R   0.036044 0.651591 0.493255 -0.195836
C111  C     C_R   0.537373 0.848524 0.493243 -0.195767
C112  C     C_R   0.462618 0.151473 0.506757 -0.195770
C113  C     C_R   0.947106 0.311082 0.470159 -0.198289
C114  C     C_R   0.052835 0.688921 0.529841 -0.198289
C115  C     C_R   0.554482 0.811204 0.529825 -0.198168
C116  C     C_R   0.445503 0.188793 0.470175 -0.198171
H25   H     H_    0.923657 0.223581 0.465148 0.140178
H26   H     H_    0.076267 0.776423 0.534852 0.140177
H27   H     H_    0.578697 0.723769 0.534830 0.140239
H28   H     H_    0.421278 0.276228 0.465170 0.140238
H29   H     H_    0.981457 0.342170 0.581592 0.096690
H30   H     H_    0.018573 0.657826 0.418408 0.096692
H31   H     H_    0.519869 0.842310 0.418393 0.096774
H32   H     H_    0.480159 0.157692 0.581607 0.096772
H33   H     H_    0.082380 0.614836 0.654706 0.103863
H34   H     H_    0.917584 0.385166 0.345293 0.103863
H35   H     H_    0.415894 0.114710 0.345312 0.103909
H36   H     H_    0.584082 0.885288 0.654688 0.103908
H37   H     H_    0.911204 0.257112 0.398441 0.126748
H38   H     H_    0.088735 0.742892 0.601559 0.126748
H39   H     H_    0.591181 0.757286 0.601536 0.126783
H40   H     H_    0.408791 0.242711 0.398464 0.126783
H41   H     H_    0.952150 0.285351 0.527770 0.129661
H42   H     H_    0.047775 0.714654 0.472230 0.129661
H43   H     H_    0.549675 0.785524 0.472212 0.129646
H44   H     H_    0.450307 0.214473 0.527788 0.129647
C117  C     C_1   0.269263 0.353791 0.823821 0.357390
N5    N     N_1   0.365065 0.276716 0.827550 -0.336226
C118  C     C_1   0.730737 0.646209 0.176179 0.357389
N6    N     N_1   0.634936 0.723284 0.172450 -0.336225
C119  C     C_1   0.230735 0.853800 0.176179 0.357389
N7    N     N_1   0.134937 0.776726 0.172450 -0.336224
C120  C     C_1   0.769265 0.146201 0.823821 0.357389
N8    N     N_1   0.865061 0.223274 0.827550 -0.336224
C121  C     C_1   0.857549 0.956641 0.138283 0.416447
N9    N     N_1   0.811334 0.924102 0.167002 -0.301726
C122  C     C_1   0.142450 0.043360 0.861716 0.416446
N10   N     N_1   0.188665 0.075899 0.832997 -0.301726
C123  C     C_1   0.642445 0.456635 0.861716 0.416440
N11   N     N_1   0.688657 0.424095 0.832997 -0.301723
C124  C     C_1   0.357555 0.543366 0.138284 0.416440
N12   N     N_1   0.311343 0.575906 0.167004 -0.301723

loop_
_geom_bond_atom_site_label_1
_geom_bond_atom_site_label_2
_ccdc_geom_bond_type
C13   O26   S    
C88   H40   S    
C89   H34   S    
C120  N8    T    
O1    C5    A    
C105  C106  A    
C58   C70   A    
C6    C84   S    
O13   V1    S    
C119  N7    T    
O3    C7    A    
C10   N2    A    
C72   C76   A    
C40   C44   A    
C103  C115  A    
C90   H33   S    
C28   C56   A    
C81   C89   A    
C64   C79   A    
C121  N9    T    
C100  C108  A    
C112  C116  A    
C86   C102  A    
C11   C43   A    
C18   C22   A    
C17   C33   A    
C100  C104  A    
O20   V1    S    
O9    C4    A    
C2    C55   S    
C94   C98   A    
C76   C124  S    
O10   C3    A    
C32   C36   A    
N4    C36   S    
C48   C80   A    
O4    C8    A    
O11   C2    A    
C24   C56   A    
C88   C92   A    
C94   H29   S    
C79   H23   S    
C101  C113  A    
C74   C122  S    
N2    C14   A    
C24   H11   S    
C77   H21   S    
O10   V2    S    
C12   C44   A    
C112  H44   S    
C14   C50   A    
C108  C111  A    
C111  C115  A    
O16   C8    A    
C8    C82   S    
C49   C74   A    
C38   C42   A    
C37   C41   A    
O14   V2    S    
C15   C51   A    
C48   H8    S    
C62   C77   A    
C11   N3    A    
O15   V3    S    
C70   C74   A    
O5    C1    A    
O4    V1    S    
C20   C36   A    
O9    V1    S    
C25   C117  S    
O17   V4    S    
C83   C91   A    
C59   C64   A    
O11   V3    S    
C118  N6    T    
O8    C4    A    
C86   C90   A    
C39   C68   A    
O12   V4    S    
O19   V2    S    
C23   C55   A    
C21   C53   A    
C96   C100  A    
C72   H20   S    
C92   H35   S    
C38   C50   A    
C63   C80   A    
C26   C54   A    
C96   H31   S    
C29   H1    S    
C16   O27   S    
O5    V1    S    
O17   V1    S    
C91   H36   S    
C22   H9    S    
C31   C35   A    
C26   C118  S    
C60   C68   A    
C61   C65   A    
O7    V3    S    
C30   C34   A    
C95   C99   A    
C122  N10   T    
C88   C104  A    
C44   C48   A    
C12   O24   S    
C37   C49   A    
C78   H22   S    
C111  H43   S    
C87   H39   S    
C107  C108  A    
C110  H42   S    
C75   C123  S    
C95   H32   S    
C109  H41   S    
O7    C3    A    
C47   C79   A    
C60   C63   A    
O13   C5    A    
C16   C52   A    
C14   O25   S    
O2    V3    S    
C73   C121  S    
C84   C96   A    
O3    V2    S    
C11   O23   S    
N3    C35   S    
C47   H7    S    
C18   H13   S    
C29   C33   A    
O6    C2    A    
C57   C69   A    
C27   C119  S    
C28   C120  S    
C83   C95   A    
C124  N12   T    
C40   C67   A    
O20   V4    S    
C19   H16   S    
C59   C71   A    
C93   H30   S    
C123  N11   T    
C19   C35   A    
C23   H12   S    
C18   C34   A    
C5    C83   S    
C40   C52   A    
C26   C30   A    
C10   C42   A    
C3    C54   S    
C9    C41   A    
C15   O28   S    
O6    V2    S    
C60   C72   A    
C52   C75   A    
O19   V3    S    
C4    C53   S    
C99   C103  A    
C12   N4    A    
C32   H4    S    
C97   C105  A    
C97   C101  A    
C64   C68   A    
O15   C7    A    
C22   C54   A    
O16   V4    S    
C105  C110  A    
C81   C93   A    
C70   H18   S    
C114  H26   S    
N1    C13   A    
C85   H37   S    
C10   O22   S    
C20   H15   S    
O18   V3    S    
C51   C76   A    
C80   H24   S    
C13   C49   A    
C57   C62   A    
C50   C73   A    
N3    C15   A    
C38   C65   A    
C115  H27   S    
C37   C66   A    
C25   C29   A    
C107  C112  A    
C102  C114  A    
C110  C114  A    
C69   C73   A    
C58   C61   A    
C59   C67   A    
C17   H14   S    
C27   C31   A    
C61   C78   A    
C58   C66   A    
C28   C32   A    
C63   C67   A    
C9    N1    A    
C82   C90   A    
O14   C6    A    
C57   C65   A    
N1    C33   S    
C84   C92   A    
C87   C103  A    
O2    C6    A    
C39   C43   A    
C109  C113  A    
C71   H19   S    
O8    V4    S    
C85   C101  A    
C46   H6    S    
C17   C21   A    
C87   C91   A    
C30   H2    S    
C1    C56   S    
C45   H5    S    
C99   C107  A    
C9    O21   S    
C104  C116  A    
C19   C23   A    
O1    V4    S    
C69   H17   S    
C93   C97   A    
C117  N5    T    
C46   C78   A    
C27   C55   A    
C45   C77   A    
C21   H10   S    
C98   C102  A    
C86   H38   S    
C98   C106  A    
N4    C16   A    
C116  H28   S    
O12   C1    A    
C106  C109  A    
C71   C75   A    
C42   C46   A    
C62   C66   A    
C31   H3    S    
N2    C34   S    
C41   C45   A    
C7    C81   S    
C39   C51   A    
C82   C94   A    
C113  H25   S    
C43   C47   A    
C25   C53   A    
C85   C89   A    
C20   C24   A    
O18   V2    S    
