data_mof_unit_22105.cif
_audit_creation_date              2013-03-05T15:44:47-0500
_audit_creation_method            fapswitch 2.2
_symmetry_space_group_name_H-M    P1
_symmetry_Int_Tables_number       1
_space_group_crystal_system       triclinic
_cell_length_a                    13.079798
_cell_length_b                    13.039854
_cell_length_c                    15.727237
_cell_angle_alpha                 117.157944
_cell_angle_beta                  62.412565
_cell_angle_gamma                 98.534928
_cell_volume                      2108.57643291

loop_
_atom_site_label
_atom_site_type_symbol
_atom_site_description
_atom_site_fract_x
_atom_site_fract_y
_atom_site_fract_z
_atom_type_partial_charge
C1    C     C_R   0.006273 0.834429 0.046519 -0.154936
H1    H     H_    0.040815 0.900268 0.095572 0.158919
N1    N     N_R   0.037310 0.720000 0.995790 -0.050914
C2    C     C_R   0.682194 0.444958 0.221943 -0.102180
H2    H     H_    0.612678 0.404404 0.203906 0.130803
N2    N     N_R   0.790790 0.446160 0.152010 -0.042292
C3    C     C_R   0.745432 0.534366 0.911499 -0.097545
H3    H     H_    0.759662 0.570519 0.857572 0.126453
N3    N     N_R   0.824890 0.517960 0.936420 -0.059408
C4    C     C_R   0.958709 0.724242 0.314621 -0.200357
H4    H     H_    0.923320 0.703139 0.380980 0.127574
N4    N     N_R   0.003210 0.648190 0.211380 -0.069986
C5    C     C_R   0.669953 0.431125 0.004699 -0.048916
N5    N     N_R   0.774330 0.457010 0.995840 -0.063927
C6    C     C_R   0.050362 0.819210 0.216865 0.545301
N6    N     N_R   0.053760 0.709140 0.151960 -0.113623
C7    C     C_R   0.785372 0.529567 0.313627 -0.023563
H5    H     H_    0.812913 0.567475 0.375350 0.085957
N7    N     N_R   0.853860 0.498840 0.211410 -0.047400
C8    C     C_R   0.904503 0.748650 0.954825 -0.088011
H6    H     H_    0.842369 0.731745 0.924092 0.139286
N8    N     N_R   0.974240 0.667310 0.936390 -0.051461
C9    C     C_R   0.918939 0.854629 0.027285 0.065931
C10   C     C_R   0.677008 0.498360 0.322841 0.062888
C11   C     C_R   0.648139 0.481706 0.955360 0.056162
C12   C     C_R   0.977428 0.834578 0.319897 -0.017888
C13   C     C_R   0.336531 0.504026 0.939837 -0.068810
N9    N     N_R   0.225670 0.542990 0.004160 -0.093212
C14   C     C_R   0.936113 0.183216 0.785829 -0.208998
H7    H     H_    0.894234 0.117692 0.811546 0.166469
N10   N     N_R   0.946240 0.290860 0.848040 -0.056345
C15   C     C_R   0.199580 0.516973 0.699958 -0.145967
H8    H     H_    0.178473 0.482589 0.634873 0.076153
N11   N     N_R   0.146140 0.501160 0.788590 -0.053309
C16   C     C_R   0.059024 0.250884 0.076815 -0.117015
H9    H     H_    0.099233 0.267274 0.127188 0.105142
N12   N     N_R   0.025760 0.332690 0.063610 -0.042949
C17   C     C_R   0.962333 0.167377 0.980812 -0.061865
H10   H     H_    0.914622 0.106110 0.941867 0.126893
N13   N     N_R   0.962690 0.280000 0.004210 -0.035225
C18   C     C_R   0.285240 0.614392 0.801328 -0.136434
H11   H     H_    0.324243 0.687630 0.840363 0.141782
N14   N     N_R   0.209210 0.553840 0.847990 -0.052529
C19   C     C_R   0.258632 0.413181 0.043108 -0.125550
H12   H     H_    0.249749 0.366205 0.087012 0.127351
N15   N     N_R   0.175110 0.482040 0.063580 -0.056847
C20   C     C_R   0.992413 0.290075 0.695929 0.577800
N16   N     N_R   0.996790 0.351810 0.788620 -0.115558
Ni1   Ni    Ni4+2 0.130310 0.630310 0.999970 0.206352
Ni2   Ni    Ni4+2 0.869690 0.369690 0.000030 0.274393
Ni3   Ni    Ni4+2 0.985640 0.509470 0.863740 0.210597
Ni4   Ni    Ni4+2 0.014360 0.490530 0.136260 0.214627
C21   C     C_R   0.360072 0.424161 0.963689 0.060366
C22   C     C_R   0.973088 0.179736 0.687951 0.022004
C23   C     C_R   0.285131 0.589352 0.707483 0.064019
C24   C     C_R   0.023286 0.144961 0.024102 0.017542
C25   C     C_R   0.015911 0.032712 0.414187 0.481123
C26   C     C_R   0.047638 0.084833 0.496956 0.307767
C27   C     C_R   0.969157 0.086423 0.595645 -0.030745
C28   C     C_R   0.874414 0.019611 0.606419 -0.252603
H13   H     H_    0.810459 0.028391 0.684704 0.199327
C29   C     C_R   0.860784 0.944795 0.516015 -0.142614
C30   C     C_R   0.942221 0.943207 0.417030 -0.079634
C31   C     C_R   0.584727 0.540820 0.513667 -0.072269
C32   C     C_R   0.490955 0.591203 0.612312 -0.219580
H14   H     H_    0.499490 0.604405 0.681573 0.171466
C33   C     C_R   0.382333 0.601187 0.619200 0.126240
C34   C     C_R   0.371288 0.585451 0.530004 -0.174044
H15   H     H_    0.287349 0.594237 0.535004 0.119351
C35   C     C_R   0.468718 0.551198 0.432322 -0.144527
H16   H     H_    0.460434 0.542074 0.363851 0.130569
C36   C     C_R   0.574906 0.525458 0.423137 0.075978
C37   C     C_2   0.475411 0.400190 0.942542 -0.068469
H17   H     H_    0.507589 0.312305 0.912354 0.148225
C38   C     C_2   0.537936 0.491222 0.962787 -0.181991
H18   H     H_    0.503029 0.579167 0.997246 0.155226
C39   C     C_2   0.839608 0.961866 0.089413 -0.197864
C40   C     C_2   0.835507 0.044090 0.182219 -0.044267
H19   H     H_    0.890077 0.039490 0.215549 0.140329
O1    O     O_3   0.929627 0.331731 0.665783 -0.651975
C41   C     C_3   0.992151 0.406611 0.621945 0.121094
H20   H     H_    0.080951 0.366906 0.560069 0.129307
H21   H     H_    0.991372 0.491356 0.687387 0.105575
C42   C     C_3   0.932857 0.426354 0.566367 -0.214393
H22   H     H_    0.924344 0.341589 0.506227 0.207400
H23   H     H_    0.844845 0.469378 0.626627 0.242566
C43   C     C_3   0.002047 0.501127 0.510243 -0.999067
H24   H     H_    0.009491 0.587328 0.569313 0.276356
H25   H     H_    0.957820 0.513179 0.469506 0.289382
H26   H     H_    0.090080 0.458674 0.449096 0.249385
O2    O     O_3   0.028769 0.080783 0.346669 -0.639535
C44   C     C_3   0.131322 0.137619 0.318434 0.354550
H27   H     H_    0.207554 0.084562 0.295158 0.131676
H28   H     H_    0.121493 0.224170 0.385253 0.119231
C45   C     C_3   0.152021 0.157904 0.223981 -0.393510
H29   H     H_    0.148762 0.076062 0.158136 0.239793
H30   H     H_    0.081880 0.220541 0.251301 0.198300
C46   C     C_3   0.269469 0.205539 0.182100 -0.951530
H31   H     H_    0.270749 0.293039 0.243228 0.275545
H32   H     H_    0.286381 0.211121 0.108522 0.277043
H33   H     H_    0.339821 0.147275 0.161446 0.265755
O3    O     O_3   0.142162 0.150580 0.488617 -0.713708
C47   C     C_3   0.231329 0.091586 0.479715 0.092829
H34   H     H_    0.252037 0.002560 0.413055 0.110472
H35   H     H_    0.205967 0.086708 0.555781 0.124241
C48   C     C_3   0.339565 0.158166 0.456369 -0.274362
H36   H     H_    0.362940 0.167324 0.382686 0.207435
H37   H     H_    0.321163 0.246200 0.524065 0.207843
C49   C     C_3   0.441849 0.096412 0.440511 -0.870926
H38   H     H_    0.420860 0.086786 0.513413 0.258097
H39   H     H_    0.518370 0.147806 0.424920 0.288324
H40   H     H_    0.463936 0.009579 0.370954 0.261627
C50   C     C_2   0.758179 0.875657 0.527674 1.037173
O4    O     O_2   0.722179 0.840685 0.460686 -0.641632
O5    O     O_R   0.701054 0.852473 0.616591 -0.786188
H41   H     H_    0.632465 0.804982 0.615570 0.331853
C51   C     C_2   0.685019 0.492494 0.507407 0.962190
O6    O     O_2   0.721004 0.547991 0.573596 -0.664361
O7    O     O_R   0.737728 0.383097 0.425977 -0.790523
H42   H     H_    0.805714 0.359618 0.429301 0.319552
C52   C     C_2   0.755641 0.977270 0.056422 1.035840
O8    O     O_2   0.771068 0.922172 0.963804 -0.664152
O9    O     O_R   0.658563 0.056281 0.131876 -0.785386
H43   H     H_    0.605168 0.055949 0.101320 0.311530
C53   C     C_2   0.610983 0.336628 0.031020 0.926767
O10   O     O_2   0.506069 0.345778 0.085007 -0.674042
O11   O     O_R   0.676769 0.238391 0.997575 -0.804430
H44   H     H_    0.627175 0.179074 0.019519 0.326850
O12   O     O_3   0.129444 0.895103 0.189094 -0.692728
C54   C     C_3   0.243180 0.842021 0.119699 0.164545
H45   H     H_    0.296483 0.905296 0.091893 0.159260
H46   H     H_    0.247886 0.766238 0.046191 0.116311
C55   C     C_3   0.293281 0.810414 0.177151 -0.337226
H47   H     H_    0.238533 0.854066 0.264942 0.189105
H48   H     H_    0.292341 0.715814 0.152034 0.191363
C56   C     C_3   0.416738 0.845236 0.153717 -0.915299
H49   H     H_    0.474438 0.804276 0.066397 0.299938
H50   H     H_    0.450202 0.816852 0.193492 0.256117
H51   H     H_    0.417939 0.940730 0.185141 0.259802
C57   C     C_2   0.426087 0.548267 0.867260 0.947225
O13   O     O_2   0.441444 0.651198 0.900071 -0.701202
O14   O     O_R   0.504721 0.468842 0.766400 -0.782282
H52   H     H_    0.575002 0.505766 0.731287 0.344462

loop_
_geom_bond_atom_site_label_1
_geom_bond_atom_site_label_2
_geom_bond_distance
_ccdc_geom_bond_type
C43   H24   1.110867 S    
O1    C41   1.397449 S    
C37   C38   1.336888 D    
C37   H17   1.085021 S    
C45   H29   1.109790 S    
N3    Ni3   1.862052 S    
C42   C43   1.527310 S    
N3    N5    1.375480 A    
C41   H20   1.111663 S    
N1    Ni1   1.848884 S    
C45   C46   1.527311 S    
O9    H43   1.013302 S    
N5    Ni2   1.850068 S    
C39   C40   1.341191 D    
N2    N7    1.408859 A    
N9    N15   1.375481 A    
N11   Ni3   1.862326 S    
C14   H7    1.079367 S    
C16   N12   1.339415 A    
C57   O14   1.397155 S    
O12   C54   1.412635 S    
N12   N13   1.408872 A    
C49   H39   1.111139 S    
C17   H10   1.078053 S    
C2    C10   1.383179 A    
C48   H36   1.112638 S    
O5    H41   1.013883 S    
N15   Ni4   1.862050 S    
C28   C29   1.386350 A    
C1    H1    1.067432 S    
C18   H11   1.076771 S    
C18   C23   1.358978 A    
N4    Ni4   1.831870 S    
C19   C21   1.383094 A    
N16   Ni3   1.831870 S    
N4    N6    1.375472 A    
C34   H15   1.083434 S    
C32   C33   1.395245 A    
C55   C56   1.527577 S    
C35   H16   1.082973 S    
C26   O3    1.385139 S    
C15   C23   1.365325 A    
C5    C53   1.473932 S    
C4    C12   1.393608 A    
C27   C28   1.394003 A    
C5    N5    1.314211 A    
C18   N14   1.330758 A    
C5    C11   1.358952 A    
C20   O1    1.386496 S    
C56   H51   1.111163 S    
N7    Ni4   1.862328 S    
C41   H21   1.111719 S    
C19   N15   1.343448 A    
C25   C30   1.402512 A    
C22   C27   1.424325 S    
C57   O13   1.221412 D    
C7    C10   1.374028 A    
C33   C34   1.395340 A    
C3    H3    1.081181 S    
N6    Ni1   1.902291 S    
C29   C50   1.487058 S    
C2    N2    1.337785 A    
C49   H40   1.111700 S    
O2    C44   1.414001 S    
N12   Ni4   1.830420 S    
C40   H19   1.084340 S    
N14   Ni1   1.901971 S    
C6    C12   1.380036 A    
C26   C27   1.401592 A    
C44   C45   1.521477 S    
N2    Ni2   1.901971 S    
C31   C51   1.482135 S    
C28   H13   1.083767 S    
C1    N1    1.349393 A    
C16   H9    1.071396 S    
C15   N11   1.338406 A    
C54   H46   1.107280 S    
C38   H18   1.084516 S    
C29   C30   1.414145 A    
N9    Ni1   1.850069 S    
C20   N16   1.329943 A    
C6    O12   1.382881 S    
C8    C9    1.388626 A    
C44   H28   1.108991 S    
C7    H5    1.072107 S    
C47   H35   1.113962 S    
C42   H22   1.111473 S    
C52   O8    1.222336 D    
C4    N4    1.335921 A    
C20   C22   1.380725 A    
C56   H50   1.110369 S    
C8    N8    1.342603 A    
C1    C9    1.395653 A    
C46   H32   1.108295 S    
N10   N16   1.375469 A    
C43   H25   1.109950 S    
C55   H47   1.109474 S    
C54   C55   1.544110 S    
C32   H14   1.079072 S    
N10   Ni2   1.902293 S    
O11   H44   1.012711 S    
C13   N9    1.332283 A    
C41   C42   1.524572 S    
C19   H12   1.075245 S    
C10   C36   1.441040 S    
C53   O11   1.396753 S    
C50   O4    1.223428 D    
C3    N3    1.341387 A    
C45   H30   1.109210 S    
C9    C39   1.493699 S    
C12   C30   1.455633 S    
C25   O2    1.399895 S    
C16   C24   1.391230 A    
C21   C37   1.436870 S    
N11   N14   1.408859 A    
C42   H23   1.110840 S    
C2    H2    1.070554 S    
C23   C33   1.438898 S    
O7    H42   1.012780 S    
C13   C21   1.370730 A    
C46   H33   1.111237 S    
C13   C57   1.473079 S    
C3    C11   1.388088 A    
C15   H8    1.063511 S    
C51   O7    1.398846 S    
C54   H45   1.111022 S    
C14   N10   1.325219 A    
C51   O6    1.222231 D    
C31   C32   1.374462 A    
C17   N13   1.341044 A    
C25   C26   1.391977 A    
C53   O10   1.222784 D    
C48   H37   1.112731 S    
N13   Ni2   1.848886 S    
C44   H27   1.114615 S    
C7    N7    1.316084 A    
C47   C48   1.528902 S    
C31   C36   1.408977 A    
O3    C47   1.410086 S    
C52   O9    1.399497 S    
C39   C52   1.484638 S    
C4    H4    1.075226 S    
C17   C24   1.392173 A    
C8    H6    1.075206 S    
C34   C35   1.383071 A    
C46   H31   1.110968 S    
C14   C22   1.363364 A    
C43   H26   1.111180 S    
C47   H34   1.113290 S    
C55   H48   1.110427 S    
O14   H52   1.011425 S    
C56   H49   1.109471 S    
N1    N8    1.408872 A    
C35   C36   1.403878 A    
C11   C38   1.410912 S    
C49   H38   1.111436 S    
C6    N6    1.320400 A    
N8    Ni3   1.830421 S    
C50   O5    1.398709 S    
C48   C49   1.525745 S    
