data_mof_unit_23563.cif
_audit_creation_date              2012-12-11T15:08:32-0500
_audit_creation_method            fapswitch 2.2
_symmetry_space_group_name_H-M    P1
_symmetry_Int_Tables_number       1
_space_group_crystal_system       triclinic
_cell_length_a                    26.834169
_cell_length_b                    7.0744
_cell_length_c                    11.951977
_cell_angle_alpha                 89.998469
_cell_angle_beta                  103.225353
_cell_angle_gamma                 89.994102
_cell_volume                      2208.73464982

loop_
_atom_site_label
_atom_site_type_symbol
_atom_type_description
_atom_site_fract_x
_atom_site_fract_y
_atom_site_fract_z
_atom_type_partial_charge
O1    O     O_R   0.437360 0.505910 0.042120 -0.538139
O2    O     O_R   0.562640 0.005910 0.957880 -0.538146
O3    O     O_R   0.542480 0.176660 0.157100 -0.541541
O4    O     O_R   0.457520 0.676660 0.842900 -0.541536
C1    C     C_R   0.556374 0.344703 0.198163 0.690353
C2    C     C_R   0.443621 0.844719 0.801843 0.690371
O5    O     O_R   0.436520 0.176250 0.054800 -0.541461
O6    O     O_R   0.563480 0.676250 0.945200 -0.541458
O7    O     O_R   0.455920 0.005040 0.854840 -0.537693
O8    O     O_R   0.544080 0.505040 0.145160 -0.537690
C3    C     C_R   0.417584 0.344682 0.063971 0.688932
C4    C     C_R   0.582420 0.844664 0.936041 0.688940
O9    O     O_3   0.506490 0.338900 0.934520 -0.373379
O10   O     O_3   0.493510 0.838900 0.065480 -0.373377
V1    V     V_3+5 0.498800 0.064400 0.012150 1.421829
V2    V     V_3+5 0.501200 0.564400 0.987850 1.421841
C5    C     C_R   0.680892 0.849113 0.757282 -0.154804
C6    C     C_R   0.319118 0.350006 0.242747 -0.154804
H1    H     H_    0.598792 0.844253 0.720884 0.104366
H2    H     H_    0.401219 0.345225 0.279141 0.104355
H3    H     H_    0.774494 0.847293 0.719514 0.139873
H4    H     H_    0.225517 0.348556 0.280527 0.139867
H5    H     H_    0.681589 0.846531 0.666962 0.130478
H6    H     H_    0.318424 0.347861 0.333072 0.130459
C7    C     C_R   0.631752 0.851728 0.903262 -0.031025
C8    C     C_R   0.368252 0.351815 0.096753 -0.031006
C9    C     C_R   0.866978 0.869451 0.210011 -0.155625
C10   C     C_R   0.133028 0.368909 0.790003 -0.155739
C11   C     C_R   0.821254 0.866430 0.245577 -0.120771
C12   C     C_R   0.178751 0.365673 0.754439 -0.120788
C13   C     C_R   0.774698 0.860241 0.165211 -0.169724
C14   C     C_R   0.225306 0.359677 0.834811 -0.169734
C15   C     C_R   0.772753 0.856652 0.045720 0.076778
C16   C     C_R   0.227252 0.356521 0.954306 0.076797
C17   C     C_R   0.820031 0.856216 0.009875 0.060980
C18   C     C_R   0.179974 0.356359 0.990154 0.060991
C19   C     C_R   0.725539 0.854534 0.960812 0.068662
C20   C     C_R   0.274466 0.354590 0.039213 0.068657
C21   C     C_R   0.726685 0.851418 0.842422 0.135185
C22   C     C_R   0.273323 0.352015 0.157608 0.135150
C23   C     C_R   0.773420 0.850086 0.809638 -0.204445
C24   C     C_R   0.226589 0.350946 0.190398 -0.204410
C25   C     C_R   0.819350 0.852347 0.891796 -0.211975
C26   C     C_R   0.180658 0.352968 0.108239 -0.211980
C27   C     C_R   0.677049 0.855417 0.988998 -0.219975
C28   C     C_R   0.322954 0.355169 0.011017 -0.219956
C29   C     C_R   0.633742 0.848232 0.787593 -0.189751
C30   C     C_R   0.366267 0.348909 0.212431 -0.189790
C31   C     C_R   0.867118 0.862063 0.093300 -0.088477
C32   C     C_R   0.132888 0.361978 0.906722 -0.088494
H7    H     H_    0.672899 0.857179 0.076530 0.097312
H8    H     H_    0.327103 0.356485 0.923482 0.097303
H9    H     H_    0.902469 0.878734 0.274058 0.175934
H10   H     H_    0.097538 0.377988 0.725945 0.176030
H11   H     H_    0.741049 0.859673 0.199885 0.115733
H12   H     H_    0.258955 0.358923 0.800135 0.115732
H13   H     H_    0.821851 0.870963 0.336451 0.145121
H14   H     H_    0.178153 0.369870 0.663559 0.145132
H15   H     H_    0.854471 0.851622 0.861736 0.125996
H16   H     H_    0.145537 0.352461 0.138301 0.125978
C33   C     C_R   0.091433 0.857516 0.312072 -0.104804
C34   C     C_R   0.908559 0.357606 0.687930 -0.104808
C35   C     C_R   0.408968 0.854155 0.687978 -0.030525
C36   C     C_R   0.591024 0.354069 0.312032 -0.030509
C37   C     C_R   0.106262 0.811277 0.517423 -0.146534
C38   C     C_R   0.893735 0.311939 0.482534 -0.146505
C39   C     C_R   0.072583 0.821519 0.410127 0.287156
C40   C     C_R   0.927413 0.321998 0.589835 0.287184
C41   C     C_R   0.144271 0.876941 0.322055 -0.274270
C42   C     C_R   0.855716 0.376825 0.677972 -0.274307
C43   C     C_R   0.179472 0.859466 0.429947 0.090501
C44   C     C_R   0.820516 0.359547 0.570065 0.090522
C45   C     C_R   0.159125 0.830261 0.528221 0.065334
C46   C     C_R   0.840869 0.330736 0.471760 0.065317
C47   C     C_R   0.233911 0.868217 0.443638 0.065477
C48   C     C_R   0.766075 0.368128 0.556384 0.065484
C49   C     C_R   0.266749 0.852920 0.556172 0.050645
C50   C     C_R   0.733241 0.353067 0.443835 0.050665
C51   C     C_R   0.244108 0.829595 0.651070 -0.192933
C52   C     C_R   0.755887 0.330124 0.348914 -0.192942
C53   C     C_R   0.191521 0.817958 0.636946 -0.179266
C54   C     C_R   0.808475 0.318645 0.363024 -0.179284
C55   C     C_R   0.256634 0.888148 0.348608 -0.196799
C56   C     C_R   0.743348 0.387653 0.651435 -0.196842
C57   C     C_R   0.309389 0.893855 0.362546 -0.207030
C58   C     C_R   0.690592 0.393168 0.637505 -0.207048
C59   C     C_R   0.341819 0.880569 0.471360 0.132705
C60   C     C_R   0.658165 0.380094 0.528678 0.132702
C61   C     C_R   0.321164 0.859982 0.569963 0.079799
C62   C     C_R   0.678825 0.359951 0.430052 0.079809
C63   C     C_R   0.395034 0.887552 0.482179 -0.163337
C64   C     C_R   0.604947 0.386820 0.517867 -0.163338
C65   C     C_R   0.428390 0.874597 0.589918 -0.180143
C66   C     C_R   0.571595 0.374029 0.410117 -0.180151
C67   C     C_R   0.356071 0.847006 0.678432 -0.216734
C68   C     C_R   0.643922 0.347201 0.321570 -0.216718
H17   H     H_    0.176036 0.797668 0.712337 0.142349
H18   H     H_    0.823963 0.298642 0.287612 0.142332
H19   H     H_    0.343802 0.832418 0.757687 0.096084
H20   H     H_    0.656194 0.332966 0.242298 0.096073
H21   H     H_    0.469331 0.881071 0.596920 0.100783
H22   H     H_    0.530652 0.380256 0.403124 0.100767
H23   H     H_    0.324988 0.908803 0.286934 0.141330
H24   H     H_    0.674989 0.407791 0.713133 0.141318
H25   H     H_    0.091048 0.785624 0.592654 0.163763
H26   H     H_    0.908953 0.286584 0.407276 0.163772
H27   H     H_    0.156416 0.904141 0.243676 0.115604
H28   H     H_    0.843566 0.403746 0.756377 0.115595
H29   H     H_    0.265858 0.817346 0.738302 0.127227
H30   H     H_    0.734139 0.318054 0.261671 0.127222
H31   H     H_    0.234766 0.897889 0.261292 0.138649
H32   H     H_    0.765215 0.397198 0.738760 0.138654
H33   H     H_    0.410867 0.903534 0.407006 0.115335
H34   H     H_    0.589110 0.402447 0.593058 0.115335
O11   O     O_R   0.955980 0.206520 0.854760 -0.534414
O12   O     O_R   0.044020 0.706520 0.145240 -0.534407
O13   O     O_R   0.063490 0.536770 0.945200 -0.541615
O14   O     O_R   0.936510 0.036770 0.054800 -0.541641
C69   C     C_R   0.083134 0.368723 0.938913 0.704047
C70   C     C_R   0.916868 0.868739 0.061096 0.704053
O15   O     O_R   0.957530 0.536190 0.842880 -0.538347
O16   O     O_R   0.042470 0.036190 0.157120 -0.538345
O17   O     O_R   0.937350 0.707210 0.042130 -0.536660
O18   O     O_R   0.062650 0.207210 0.957870 -0.536674
C71   C     C_R   0.943090 0.367566 0.802415 0.751947
C72   C     C_R   0.056908 0.867547 0.197585 0.751947
O19   O     O_3   0.993540 0.373870 0.065440 -0.371959
O20   O     O_3   0.006460 0.873870 0.934560 -0.371978
V3    V     V_3+5 0.001200 0.648440 0.987860 1.493402
V4    V     V_3+5 0.998800 0.148440 0.012140 1.493373
Br1   Br    Br    0.001289 0.782855 0.401944 -0.545362
Br2   Br    Br    0.998711 0.283599 0.597958 -0.545471

loop_
_geom_bond_atom_site_label_1
_geom_bond_atom_site_label_2
_ccdc_geom_bond_type
C38   C40   A    
C61   C67   A    
C59   C63   A    
C9    C11   A    
C23   C25   A    
O1    C3    A    
C44   C48   A    
C58   H24   S    
O20   V3    S    
C48   C56   A    
C2    O7    A    
C41   H27   S    
C18   C32   A    
O8    V2    S    
C21   C23   A    
C69   O18   A    
C50   C62   A    
O5    C3    A    
C49   C61   A    
C56   H32   S    
C68   H20   S    
C6    H6    S    
C48   C50   A    
C20   C22   A    
C46   C54   A    
O13   C69   A    
C67   H19   S    
C31   C70   S    
C27   H7    S    
C38   C46   A    
C35   C67   A    
C37   C45   A    
C34   C42   A    
C41   C43   A    
C5    C21   A    
C45   C53   A    
C40   Br2   S    
C6    C22   A    
C10   C32   A    
O12   V3    S    
C60   C64   A    
C37   C39   A    
C17   C31   A    
C13   C15   A    
C33   C72   S    
C17   C25   A    
C7    C29   A    
C16   C18   A    
C57   H23   S    
C70   O17   A    
C8    C30   A    
O16   C72   A    
C57   C59   A    
O2    C4    A    
O6    V2    S    
O12   C72   A    
O17   V3    S    
C54   H18   S    
C24   C26   A    
C38   H26   S    
C37   H25   S    
C49   C51   A    
C43   C47   A    
C51   H29   S    
C58   C60   A    
C32   C69   S    
C36   C68   A    
C44   C46   A    
C65   H21   S    
C51   C53   A    
C10   H10   S    
O5    V1    S    
C3    C8    S    
C15   C19   A    
C63   H33   S    
C1    C36   S    
C6    C30   A    
C14   C16   A    
C2    C35   S    
O4    V2    S    
O19   V3    S    
O15   C71   A    
O14   V4    S    
C63   C65   A    
C33   C39   A    
O6    C4    A    
C64   C66   A    
C50   C52   A    
O18   V4    S    
O1    V2    S    
C5    H5    S    
O2    V1    S    
C47   C49   A    
H2    C30   S    
H3    C23   S    
C52   C54   A    
C55   C57   A    
C60   C62   A    
C59   C61   A    
C55   H31   S    
C18   C26   A    
O4    C2    A    
C19   C27   A    
C7    C27   A    
O13   V3    S    
C43   C45   A    
C11   H13   S    
C33   C41   A    
C16   C20   A    
C39   Br1   S    
C5    C29   A    
O15   V3    S    
O3    C1    A    
O20   V4    S    
C34   C71   S    
C9    H9    S    
C62   C68   A    
C25   H15   S    
C35   C65   A    
O11   C71   A    
C34   C40   A    
C4    C7    S    
C10   C12   A    
O7    V1    S    
O19   V4    S    
C36   C66   A    
C1    O8    A    
C11   C13   A    
C42   H28   S    
C28   H8    S    
C12   C14   A    
C47   C55   A    
H4    C24   S    
C53   H17   S    
C26   H16   S    
C12   H14   S    
C22   C24   A    
C15   C17   A    
C14   H12   S    
H1    C29   S    
O14   C70   A    
C20   C28   A    
C8    C28   A    
C66   H22   S    
C19   C21   A    
O9    V2    S    
C52   H30   S    
O10   V1    S    
C56   C58   A    
O3    V1    S    
C42   C44   A    
C13   H11   S    
C64   H34   S    
O16   V4    S    
C9    C31   A    
O11   V4    S    
