data_mof_unit_18533.cif
_audit_creation_date              2013-03-05T15:49:47-0500
_audit_creation_method            fapswitch 2.2
_symmetry_space_group_name_H-M    P1
_symmetry_Int_Tables_number       1
_space_group_crystal_system       triclinic
_cell_length_a                    18.427306
_cell_length_b                    18.474424
_cell_length_c                    27.567954
_cell_angle_alpha                 90.047234
_cell_angle_beta                  90.222812
_cell_angle_gamma                 89.957301
_cell_volume                      9384.98837193

loop_
_atom_site_label
_atom_site_type_symbol
_atom_site_description
_atom_site_fract_x
_atom_site_fract_y
_atom_site_fract_z
_atom_type_partial_charge
Zn1   Zn    Zn3+2 0.500000 0.913240 0.789820 1.193901
Zn2   Zn    Zn3+2 0.500000 0.086760 0.210180 1.133029
Zn3   Zn    Zn3+2 0.086760 0.500000 0.789820 1.170516
Zn4   Zn    Zn3+2 0.913240 0.500000 0.210180 1.142297
Zn5   Zn    Zn3+2 0.500000 0.086760 0.789820 1.193992
Zn6   Zn    Zn3+2 0.500000 0.913240 0.210180 1.097438
Zn7   Zn    Zn3+2 0.913240 0.500000 0.789820 1.186687
Zn8   Zn    Zn3+2 0.086760 0.500000 0.210180 1.130895
Zn9   Zn    Zn3+2 0.000000 0.413240 0.289820 1.110187
Zn10  Zn    Zn3+2 0.000000 0.586760 0.710180 1.188034
Zn11  Zn    Zn3+2 0.586760 0.000000 0.289820 1.123752
Zn12  Zn    Zn3+2 0.413240 1.000000 0.710180 1.195412
Zn13  Zn    Zn3+2 0.000000 0.586760 0.289820 1.109147
Zn14  Zn    Zn3+2 0.000000 0.413240 0.710180 1.187161
Zn15  Zn    Zn3+2 0.413240 0.000000 0.289820 1.097047
Zn16  Zn    Zn3+2 0.586760 1.000000 0.710180 1.190148
O1    O     O_3   0.500000 0.000000 0.750000 -0.559856
O2    O     O_3   0.500000 0.000000 0.250000 -0.552834
O3    O     O_3   0.000000 0.500000 0.750000 -0.557552
O4    O     O_3   0.000000 0.500000 0.250000 -0.553686
O5    O     O_R   0.439270 1.000000 0.643740 -0.562250
O6    O     O_R   0.560730 1.000000 0.356260 -0.599329
O7    O     O_R   0.000000 0.439270 0.643740 -0.598730
O8    O     O_R   0.000000 0.560730 0.356260 -0.617148
O9    O     O_R   0.560730 1.000000 0.643740 -0.596683
O10   O     O_R   0.439270 1.000000 0.356260 -0.597715
O11   O     O_R   1.000000 0.560730 0.643740 -0.583276
O12   O     O_R   0.000000 0.439270 0.356260 -0.605262
O13   O     O_R   0.939270 0.500000 0.143740 -0.596341
O14   O     O_R   0.060730 0.500000 0.856260 -0.610707
O15   O     O_R   0.500000 0.939270 0.143740 -0.565922
O16   O     O_R   0.500000 0.060730 0.856260 -0.567946
O17   O     O_R   0.060730 0.500000 0.143740 -0.600746
O18   O     O_R   0.939270 0.500000 0.856260 -0.575381
O19   O     O_R   0.500000 0.060730 0.143740 -0.600808
O20   O     O_R   0.500000 0.939270 0.856260 -0.595443
O21   O     O_R   0.646150 0.914560 0.722140 -0.595377
O22   O     O_R   0.353850 0.085440 0.277860 -0.625708
O23   O     O_R   0.085440 0.646150 0.722140 -0.599398
O24   O     O_R   0.914560 0.353850 0.277860 -0.632707
O25   O     O_R   0.353850 0.085440 0.722140 -0.601913
O26   O     O_R   0.646150 0.914560 0.277860 -0.610825
O27   O     O_R   0.914560 0.353850 0.722140 -0.555976
O28   O     O_R   0.085440 0.646150 0.277860 -0.636634
O29   O     O_R   0.353850 0.914560 0.277860 -0.588696
O30   O     O_R   0.646150 0.085440 0.722140 -0.559760
O31   O     O_R   0.914560 0.646150 0.277860 -0.590848
O32   O     O_R   0.085440 0.353850 0.722140 -0.585083
O33   O     O_R   0.646150 0.085440 0.277860 -0.593341
O34   O     O_R   0.353850 0.914560 0.722140 -0.583673
O35   O     O_R   0.085440 0.353850 0.277860 -0.600816
O36   O     O_R   0.914560 0.646150 0.722140 -0.565253
O37   O     O_R   0.146150 0.414560 0.222140 -0.586288
O38   O     O_R   0.853850 0.585440 0.777860 -0.563718
O39   O     O_R   0.585440 0.146150 0.222140 -0.581056
O40   O     O_R   0.414560 0.853850 0.777860 -0.558802
O41   O     O_R   0.853850 0.585440 0.222140 -0.592933
O42   O     O_R   0.146150 0.414560 0.777860 -0.586064
O43   O     O_R   0.414560 0.853850 0.222140 -0.628139
O44   O     O_R   0.585440 0.146150 0.777860 -0.581820
O45   O     O_R   0.853850 0.414560 0.777860 -0.602309
O46   O     O_R   0.146150 0.585440 0.222140 -0.617016
O47   O     O_R   0.414560 0.146150 0.777860 -0.608007
O48   O     O_R   0.585440 0.853850 0.222140 -0.634606
O49   O     O_R   0.146150 0.585440 0.777860 -0.568607
O50   O     O_R   0.853850 0.414560 0.222140 -0.611801
O51   O     O_R   0.585440 0.853850 0.777860 -0.589294
O52   O     O_R   0.414560 0.146150 0.222140 -0.610398
C1    C     C_1   0.500060 0.000046 0.930881 -0.037635
C2    C     C_1   0.499765 0.999975 0.069117 -0.008796
C3    C     C_1   0.000305 0.499841 0.930896 -0.074667
C4    C     C_1   0.999723 0.499953 0.069101 -0.016008
C5    C     C_1   0.999975 0.500046 0.430884 -0.037465
C6    C     C_1   0.000124 0.499908 0.569123 -0.057967
C7    C     C_1   0.500261 0.000024 0.430900 -0.044210
C8    C     C_1   0.499731 0.999957 0.569105 -0.061995
C9    C     C_1   0.499964 0.000033 0.974489 0.063961
C10   C     C_1   0.499853 0.999992 0.025509 0.071037
C11   C     C_1   0.000162 0.499890 0.974496 0.045899
C12   C     C_1   0.999867 0.499932 0.025501 0.063176
C13   C     C_1   0.999979 0.499996 0.474494 0.068796
C14   C     C_1   0.000033 0.499927 0.525515 0.066923
C15   C     C_1   0.500119 0.000041 0.474501 0.056676
C16   C     C_1   0.499849 0.000022 0.525507 0.047189
C17   C     C_R   0.499898 0.999843 0.620929 0.975550
C18   C     C_R   0.500110 0.999992 0.379068 0.849860
C19   C     C_R   0.000255 0.499961 0.620963 0.918601
C20   C     C_R   0.000003 0.500023 0.379037 0.894881
C21   C     C_R   0.999883 0.499981 0.120934 0.891713
C22   C     C_R   0.000131 0.499793 0.879067 0.900985
C23   C     C_R   0.499740 0.999992 0.120965 0.907860
C24   C     C_R   0.500168 0.000011 0.879041 0.966328
C25   C     C_R   0.640107 0.860241 0.750117 0.922679
C26   C     C_R   0.359793 0.140626 0.250069 0.859182
C27   C     C_R   0.139710 0.640207 0.750369 0.913861
C28   C     C_R   0.859566 0.359721 0.249901 0.884161
C29   C     C_R   0.359997 0.139910 0.749932 0.938838
C30   C     C_R   0.643278 0.862542 0.248202 0.844964
C31   C     C_R   0.860029 0.360104 0.749826 0.938550
C32   C     C_R   0.140472 0.639929 0.250249 0.905237
C33   C     C_R   0.359925 0.859456 0.250215 0.896010
C34   C     C_R   0.640889 0.139792 0.750831 0.911210
C35   C     C_R   0.859237 0.639835 0.250062 0.946685
C36   C     C_R   0.140301 0.359345 0.750219 0.867028
C37   C     C_R   0.640315 0.140084 0.250079 0.931624
C38   C     C_R   0.360000 0.859218 0.749208 0.903687
C39   C     C_R   0.140096 0.360021 0.250081 0.952435
C40   C     C_R   0.859511 0.640195 0.749960 0.907965
C41   C     C_R   0.326976 0.765800 0.662258 0.227411
C42   C     C_R   0.740968 0.170657 0.335636 0.357169
C43   C     C_R   0.174309 0.266145 0.662782 0.188823
C44   C     C_R   0.796649 0.708296 0.337855 0.307258
C45   C     C_R   0.653008 0.242670 0.669233 0.225072
C46   C     C_R   0.249325 0.837979 0.332305 0.373853
C47   C     C_R   0.760568 0.664428 0.664705 0.299105
C48   C     C_R   0.183384 0.274770 0.339339 0.335397
C49   C     C_R   0.768388 0.855927 0.321571 0.280977
C50   C     C_R   0.320363 0.224228 0.661594 0.229409
C51   C     C_R   0.876905 0.213151 0.298966 0.283369
C52   C     C_R   0.262661 0.632278 0.684247 0.213770
C53   C     C_R   0.221746 0.133895 0.310259 0.291195
C54   C     C_R   0.629061 0.733903 0.685810 0.250627
C55   C     C_R   0.118459 0.790844 0.289772 0.271679
C56   C     C_R   0.734373 0.368520 0.682944 0.228264
C57   C     C_R   0.713659 0.372803 0.197009 0.256184
C58   C     C_R   0.127963 0.769992 0.812466 0.300727
C59   C     C_R   0.697536 0.800688 0.153765 0.261464
C60   C     C_R   0.273519 0.175473 0.838208 0.315656
C61   C     C_R   0.295660 0.614599 0.216062 0.241882
C62   C     C_R   0.868786 0.236732 0.815408 0.207682
C63   C     C_R   0.367150 0.281117 0.189920 0.254613
C64   C     C_R   0.769128 0.869585 0.813034 0.284277
C65   C     C_R   0.230655 0.321061 0.838762 0.227967
C66   C     C_R   0.801898 0.692855 0.156540 0.338222
C67   C     C_R   0.258550 0.841987 0.832259 0.255161
C68   C     C_R   0.674364 0.234478 0.163093 0.276604
C69   C     C_R   0.831931 0.735274 0.835498 0.266139
C70   C     C_R   0.224995 0.318105 0.161477 0.260784
C71   C     C_R   0.735675 0.170765 0.836758 0.231466
C72   C     C_R   0.344849 0.743081 0.172286 0.247673
C73   C     C_R   0.331583 0.707826 0.628769 -0.152470
C74   C     C_R   0.804903 0.157425 0.363243 -0.122269
C75   C     C_R   0.210858 0.259148 0.618027 -0.162347
C76   C     C_R   0.795673 0.757044 0.377654 -0.139290
C77   C     C_R   0.638406 0.303777 0.640427 -0.137380
C78   C     C_R   0.182159 0.852745 0.355662 -0.121037
C79   C     C_R   0.700815 0.657548 0.632540 -0.167678
C80   C     C_R   0.177242 0.216625 0.372746 -0.171892
C81   C     C_R   0.790058 0.832200 0.368296 -0.222522
C82   C     C_R   0.286521 0.246354 0.617902 -0.133022
C83   C     C_R   0.873437 0.170724 0.341811 -0.223573
C84   C     C_R   0.302659 0.639651 0.641170 -0.151621
C85   C     C_R   0.188615 0.144867 0.356056 -0.192425
C86   C     C_R   0.633047 0.686199 0.646106 -0.207013
C87   C     C_R   0.116494 0.837284 0.330749 -0.216334
C88   C     C_R   0.678605 0.367511 0.647836 -0.165022
C89   C     C_R   0.674581 0.366126 0.152772 -0.185562
C90   C     C_R   0.131040 0.821420 0.850382 -0.082490
C91   C     C_R   0.702894 0.751956 0.114156 -0.200739
C92   C     C_R   0.249886 0.207460 0.882176 -0.117801
C93   C     C_R   0.347925 0.610777 0.178412 -0.148580
C94   C     C_R   0.863053 0.191474 0.856257 -0.117684
C95   C     C_R   0.355343 0.316682 0.144923 -0.221328
C96   C     C_R   0.816984 0.863916 0.853092 -0.114306
C97   C     C_R   0.236143 0.282726 0.883003 -0.206380
C98   C     C_R   0.753577 0.694641 0.116781 -0.139502
C99   C     C_R   0.198504 0.851668 0.863078 -0.191649
C100  C     C_R   0.661436 0.295983 0.133399 -0.172590
C101  C     C_R   0.841673 0.794777 0.867106 -0.141003
C102  C     C_R   0.283092 0.329218 0.128764 -0.180327
C103  C     C_R   0.794212 0.165773 0.869900 -0.096483
C104  C     C_R   0.367487 0.675183 0.153516 -0.179796
C105  C     C_R   0.251580 0.693075 0.715401 -0.032741
C106  C     C_R   0.811096 0.240058 0.278948 -0.055985
C107  C     C_R   0.281474 0.228117 0.705995 -0.031645
C108  C     C_R   0.753129 0.803501 0.285176 -0.053442
C109  C     C_R   0.746026 0.308106 0.714725 -0.045317
C110  C     C_R   0.186444 0.762417 0.275199 -0.058924
C111  C     C_R   0.691285 0.746753 0.715557 -0.042050
C112  C     C_R   0.245002 0.195360 0.283802 -0.054116
C113  C     C_R   0.784895 0.735294 0.290145 -0.086126
C114  C     C_R   0.215680 0.265928 0.706449 -0.025203
C115  C     C_R   0.747874 0.201541 0.288746 -0.071973
C116  C     C_R   0.294173 0.755562 0.708704 -0.029699
C117  C     C_R   0.207596 0.259801 0.291590 -0.062224
C118  C     C_R   0.752737 0.701951 0.709769 -0.063512
C119  C     C_R   0.248312 0.802250 0.286599 -0.065530
C120  C     C_R   0.698855 0.247854 0.711023 -0.034149
C121  C     C_R   0.702875 0.244947 0.210469 -0.030654
C122  C     C_R   0.252094 0.800287 0.788776 -0.042835
C123  C     C_R   0.778165 0.722713 0.201303 -0.060651
C124  C     C_R   0.232445 0.281723 0.794422 -0.037587
C125  C     C_R   0.305442 0.744546 0.216411 -0.039239
C126  C     C_R   0.745369 0.204811 0.790644 -0.035275
C127  C     C_R   0.240826 0.293431 0.209010 -0.025566
C128  C     C_R   0.796454 0.745071 0.789903 -0.031839
C129  C     C_R   0.270345 0.215973 0.794334 -0.082802
C130  C     C_R   0.725800 0.779049 0.199771 -0.044132
C131  C     C_R   0.190712 0.755116 0.783667 -0.094015
C132  C     C_R   0.740117 0.309057 0.219708 -0.043326
C133  C     C_R   0.753732 0.807586 0.783784 -0.088390
C134  C     C_R   0.306069 0.257021 0.216766 -0.033483
C135  C     C_R   0.807339 0.248488 0.784446 -0.046036
C136  C     C_R   0.265646 0.683028 0.228243 -0.047233
C137  C     C_R   0.195411 0.696112 0.750516 -0.082401
C138  C     C_R   0.803345 0.303187 0.249584 -0.067762
C139  C     C_R   0.303733 0.195166 0.750110 -0.072200
C140  C     C_R   0.709206 0.816346 0.243477 -0.046357
C141  C     C_R   0.804239 0.304336 0.749044 -0.091370
C142  C     C_R   0.197548 0.695226 0.251110 -0.064114
C143  C     C_R   0.695756 0.804287 0.749747 -0.090157
C144  C     C_R   0.303799 0.197774 0.250216 -0.070204
C145  C     C_R   0.805002 0.698276 0.247228 -0.049394
C146  C     C_R   0.196475 0.302313 0.750419 -0.067886
C147  C     C_R   0.696996 0.195650 0.249910 -0.056910
C148  C     C_R   0.302068 0.804098 0.749111 -0.081747
C149  C     C_R   0.196233 0.304225 0.250260 -0.042651
C150  C     C_R   0.802372 0.696129 0.749800 -0.076746
C151  C     C_R   0.304433 0.802259 0.250974 -0.057411
C152  C     C_R   0.696011 0.197700 0.750618 -0.085033
N1    N     N_R   0.342982 0.837051 0.645027 0.186155
O53   O     O_R   0.289733 0.881512 0.636217 -0.327583
O54   O     O_R   0.407314 0.852209 0.628771 -0.411664
N2    N     N_R   0.670359 0.161995 0.357050 0.229277
O55   O     O_R   0.619782 0.209790 0.349081 -0.361355
O56   O     O_R   0.655656 0.105814 0.383639 -0.322884
N3    N     N_R   0.098295 0.248406 0.664707 0.234140
O57   O     O_R   0.075916 0.199323 0.694959 -0.274553
O58   O     O_R   0.051243 0.280432 0.636686 -0.370072
N4    N     N_R   0.802922 0.631668 0.346078 0.216393
O59   O     O_R   0.757099 0.587252 0.325863 -0.325278
O60   O     O_R   0.854644 0.605945 0.373303 -0.359600
N5    N     N_R   0.629099 0.174025 0.651514 0.168800
O61   O     O_R   0.674085 0.133077 0.627707 -0.331209
O62   O     O_R   0.560720 0.157313 0.652524 -0.394556
N6    N     N_R   0.316867 0.849448 0.357538 0.236186
O63   O     O_R   0.368358 0.801344 0.355051 -0.387441
O64   O     O_R   0.328266 0.908998 0.381591 -0.327500
N7    N     N_R   0.831131 0.647512 0.646761 0.215647
O65   O     O_R   0.872245 0.698883 0.630003 -0.335988
O66   O     O_R   0.851816 0.580572 0.642964 -0.315164
N8    N     N_R   0.174408 0.348472 0.355215 0.223633
O67   O     O_R   0.220045 0.398075 0.341504 -0.325040
O68   O     O_R   0.121085 0.366359 0.383560 -0.359695
N9    N     N_R   0.777519 0.930808 0.307899 0.241197
O69   O     O_R   0.804452 0.946886 0.265685 -0.272712
O70   O     O_R   0.755408 0.983068 0.335839 -0.388520
N10   N     N_R   0.395686 0.205579 0.661309 0.166263
O71   O     O_R   0.441939 0.242956 0.686818 -0.367835
O72   O     O_R   0.418034 0.151573 0.635061 -0.413102
N11   N     N_R   0.942552 0.215991 0.270504 0.238611
O73   O     O_R   0.938580 0.214858 0.223353 -0.316778
O74   O     O_R   0.006150 0.220965 0.290836 -0.383667
N12   N     N_R   0.236826 0.561683 0.697218 0.152724
O75   O     O_R   0.269185 0.526021 0.731717 -0.303891
O76   O     O_R   0.188017 0.529408 0.670684 -0.481763
N13   N     N_R   0.216217 0.064917 0.285808 0.242801
O77   O     O_R   0.205042 0.062788 0.239171 -0.325452
O78   O     O_R   0.224533 0.004261 0.309021 -0.392833
N14   N     N_R   0.559767 0.763709 0.698028 0.152902
O79   O     O_R   0.518073 0.730009 0.728540 -0.353864
O80   O     O_R   0.534462 0.818521 0.673716 -0.450780
N15   N     N_R   0.056538 0.783468 0.257841 0.237429
O81   O     O_R   0.066347 0.778861 0.211206 -0.302386
O82   O     O_R   0.990617 0.781392 0.274424 -0.365978
N16   N     N_R   0.779781 0.431169 0.684530 0.148789
O83   O     O_R   0.760134 0.487178 0.709942 -0.406755
O84   O     O_R   0.831438 0.437512 0.652824 -0.367454
N17   N     N_R   0.716586 0.441087 0.222384 0.210411
O85   O     O_R   0.711778 0.442524 0.269467 -0.317727
O86   O     O_R   0.727782 0.501431 0.199287 -0.365549
N18   N     N_R   0.059753 0.736299 0.802053 0.192901
O87   O     O_R   0.018570 0.762034 0.767700 -0.324534
O88   O     O_R   0.033978 0.688171 0.831722 -0.414114
N19   N     N_R   0.678182 0.875532 0.145286 0.215803
O89   O     O_R   0.632736 0.893657 0.111243 -0.396296
O90   O     O_R   0.715915 0.926636 0.165902 -0.306518
N20   N     N_R   0.295376 0.101088 0.837883 0.206312
O91   O     O_R   0.260315 0.054248 0.811447 -0.380632
O92   O     O_R   0.346558 0.079250 0.866993 -0.359531
N21   N     N_R   0.280892 0.552427 0.246066 0.207747
O93   O     O_R   0.272325 0.560357 0.292612 -0.337559
O94   O     O_R   0.274920 0.488056 0.227347 -0.387779
N22   N     N_R   0.939063 0.264084 0.803028 0.150398
O95   O     O_R   0.977638 0.230541 0.770658 -0.303389
O96   O     O_R   0.968419 0.315564 0.828690 -0.500133
N23   N     N_R   0.438234 0.281290 0.212003 0.204490
O97   O     O_R   0.444989 0.292489 0.258421 -0.339050
O98   O     O_R   0.495810 0.265772 0.186849 -0.395021
N24   N     N_R   0.741936 0.939354 0.799659 0.202737
O99   O     O_R   0.774786 0.976991 0.766482 -0.329503
O100  O     O_R   0.687804 0.967494 0.823212 -0.396416
N25   N     N_R   0.247298 0.397226 0.838511 0.247877
O101  O     O_R   0.295506 0.422045 0.808448 -0.269987
O102  O     O_R   0.215135 0.442087 0.867825 -0.356370
N26   N     N_R   0.878389 0.679833 0.148174 0.209076
O103  O     O_R   0.926305 0.715093 0.173690 -0.333958
O104  O     O_R   0.900499 0.648305 0.108700 -0.355369
N27   N     N_R   0.327923 0.864339 0.850017 0.183073
O105  O     O_R   0.369737 0.817543 0.871642 -0.316673
O106  O     O_R   0.344238 0.932671 0.851710 -0.394807
N28   N     N_R   0.668150 0.162347 0.143497 0.192564
O107  O     O_R   0.716455 0.113487 0.154375 -0.321513
O108  O     O_R   0.614521 0.144806 0.115046 -0.376889
N29   N     N_R   0.840941 0.663958 0.854927 0.197453
O109  O     O_R   0.784126 0.623583 0.862018 -0.312353
O110  O     O_R   0.903719 0.642511 0.871000 -0.394913
N30   N     N_R   0.150608 0.322988 0.145322 0.179390
O111  O     O_R   0.103323 0.275467 0.159827 -0.343022
O112  O     O_R   0.129501 0.374323 0.116271 -0.417438
N31   N     N_R   0.664264 0.157221 0.854759 0.183033
O113  O     O_R   0.621688 0.211542 0.864409 -0.323060
O114  O     O_R   0.645699 0.092522 0.868321 -0.397124
N32   N     N_R   0.351730 0.808135 0.143741 0.207779
O115  O     O_R   0.300126 0.856280 0.144142 -0.346126
O116  O     O_R   0.410248 0.821370 0.119044 -0.393326
C153  C     C_2   0.207864 0.894335 0.908417 0.515923
H1    H     H_    0.237331 0.945076 0.907909 0.181611
O117  O     O_2   0.185737 0.871384 0.947143 -0.529891
C154  C     C_2   0.633973 0.286044 0.083099 0.629773
H2    H     H_    0.657103 0.244291 0.060172 0.105704
O118  O     O_2   0.584157 0.322687 0.067226 -0.486914
C155  C     C_2   0.229596 0.322134 0.929636 0.480312
H3    H     H_    0.184635 0.358971 0.935571 0.104386
O119  O     O_2   0.275708 0.315284 0.961213 -0.523419
C156  C     C_2   0.754329 0.635458 0.080052 0.585503
H4    H     H_    0.730689 0.642615 0.044395 0.122781
O120  O     O_2   0.778634 0.575839 0.090277 -0.483827
C157  C     C_2   0.781300 0.139619 0.920283 0.634038
H5    H     H_    0.742239 0.097321 0.927535 0.137038
O121  O     O_2   0.812993 0.166933 0.954706 -0.526382
C158  C     C_2   0.412980 0.672498 0.109282 0.620038
H6    H     H_    0.396048 0.701257 0.076860 0.109863
O122  O     O_2   0.470790 0.640156 0.109216 -0.541955
C159  C     C_2   0.874022 0.783344 0.916078 0.507674
H7    H     H_    0.920579 0.748277 0.920955 0.146987
O123  O     O_2   0.847856 0.812399 0.951776 -0.517904
C160  C     C_2   0.267597 0.355696 0.078973 0.660606
H8    H     H_    0.224763 0.330749 0.057667 0.086293
O124  O     O_2   0.300504 0.407044 0.062009 -0.450357
C161  C     C_2   0.657808 0.763032 0.070139 0.536610
H9    H     H_    0.600048 0.773142 0.073726 0.121424
O125  O     O_2   0.685095 0.763991 0.029862 -0.508060
C162  C     C_2   0.237895 0.163025 0.926723 0.538790
H10   H     H_    0.235948 0.187893 0.962264 0.097246
O126  O     O_2   0.226105 0.098116 0.924220 -0.516230
C163  C     C_2   0.649885 0.432134 0.126958 0.635347
H11   H     H_    0.618743 0.472927 0.146115 0.086387
O127  O     O_2   0.666324 0.442675 0.084695 -0.479693
C164  C     C_2   0.063647 0.845474 0.875723 0.498820
H12   H     H_    0.065505 0.867447 0.912082 0.120036
O128  O     O_2   0.004858 0.844410 0.855253 -0.561950
C165  C     C_2   0.418286 0.338730 0.115022 0.686911
H13   H     H_    0.462851 0.368493 0.131376 0.084307
O129  O     O_2   0.421863 0.321979 0.072251 -0.456068
C166  C     C_2   0.843053 0.929155 0.880234 0.631442
H14   H     H_    0.888512 0.924772 0.905162 0.106501
O130  O     O_2   0.815528 0.988666 0.874952 -0.526809
C167  C     C_2   0.379921 0.539780 0.164855 0.574213
H15   H     H_    0.399243 0.503184 0.192832 0.086460
O131  O     O_2   0.383027 0.520622 0.122528 -0.501706
C168  C     C_2   0.929761 0.171104 0.883921 0.595377
H16   H     H_    0.977322 0.205551 0.883625 0.096477
O132  O     O_2   0.933449 0.113784 0.905829 -0.507600
C169  C     C_2   0.940584 0.142861 0.364959 0.543375
H17   H     H_    0.985344 0.179040 0.373036 0.104493
O133  O     O_2   0.946530 0.078709 0.374783 -0.452544
C170  C     C_2   0.308734 0.575895 0.608446 0.644834
H18   H     H_    0.321111 0.523000 0.623468 0.101739
O134  O     O_2   0.295886 0.580964 0.565103 -0.486651
C171  C     C_2   0.806109 0.885664 0.406994 0.477752
H19   H     H_    0.767221 0.927698 0.415757 0.119833
O135  O     O_2   0.863781 0.883703 0.428901 -0.532870
C172  C     C_2   0.330660 0.256830 0.573087 0.579360
H20   H     H_    0.384820 0.234612 0.570151 0.117756
O136  O     O_2   0.308387 0.293662 0.539414 -0.486445
C173  C     C_2   0.046638 0.866409 0.348781 0.542879
H21   H     H_    0.001396 0.830472 0.355816 0.115597
O137  O     O_2   0.039050 0.931273 0.355562 -0.449096
C174  C     C_2   0.668108 0.432459 0.616618 0.673895
H22   H     H_    0.672717 0.486158 0.632239 0.107887
O138  O     O_2   0.657587 0.426777 0.573028 -0.473336
C175  C     C_2   0.170031 0.082170 0.387097 0.507319
H23   H     H_    0.209775 0.040009 0.393770 0.111322
O139  O     O_2   0.109788 0.076689 0.404947 -0.520841
C176  C     C_2   0.565429 0.667777 0.618945 0.494462
H24   H     H_    0.519908 0.704887 0.618623 0.149940
O140  O     O_2   0.558643 0.609611 0.598347 -0.513823
C177  C     C_2   0.168903 0.257835 0.572072 0.649149
H25   H     H_    0.127420 0.298137 0.564982 0.090294
O141  O     O_2   0.179669 0.210412 0.542089 -0.529441
C178  C     C_2   0.797487 0.730460 0.428731 0.517111
H26   H     H_    0.820102 0.763437 0.457541 0.105393
O142  O     O_2   0.770176 0.672629 0.439806 -0.476562
C179  C     C_2   0.365830 0.720420 0.580641 0.579506
H27   H     H_    0.356681 0.770941 0.561542 0.124197
O143  O     O_2   0.406242 0.675685 0.562473 -0.499480
C180  C     C_2   0.801170 0.133414 0.414668 0.540692
H28   H     H_    0.839019 0.093677 0.428741 0.115888
O144  O     O_2   0.757713 0.160590 0.442617 -0.485139
C181  C     C_2   0.709529 0.627171 0.582662 0.582714
H29   H     H_    0.674320 0.645697 0.553568 0.106074
O145  O     O_2   0.754632 0.580933 0.573314 -0.463117
C182  C     C_2   0.163038 0.230250 0.425009 0.554904
H30   H     H_    0.128754 0.194248 0.445742 0.121417
O146  O     O_2   0.192386 0.280523 0.446103 -0.446759
C183  C     C_2   0.580307 0.299294 0.602870 0.642728
H31   H     H_    0.573652 0.250534 0.581361 0.104008
O147  O     O_2   0.537229 0.348830 0.597113 -0.500547
C184  C     C_2   0.179394 0.879784 0.406518 0.503605
H32   H     H_    0.137429 0.917150 0.417857 0.126623
O148  O     O_2   0.221805 0.857404 0.437163 -0.487852

loop_
_geom_bond_atom_site_label_1
_geom_bond_atom_site_label_2
_geom_bond_distance
_ccdc_geom_bond_type
C101  C159  1.488834 S    
C37   C147  1.465063 S    
C100  C154  1.485582 S    
C107  C139  1.419443 A    
O13   C21   1.283865 A    
C90   C164  1.494369 S    
C70   C127  1.416978 A    
C64   C133  1.428225 A    
O39   C37   1.273679 A    
C58   N18   1.430997 S    
N22   O95   1.299613 A    
Zn1   O40   1.946617 S    
O27   C31   1.269359 A    
Zn2   O39   1.946615 S    
C50   N10   1.429919 S    
C131  C137  1.424708 A    
C60   N20   1.431765 S    
C60   C129  1.423736 A    
N12   O76   1.301742 A    
C93   C104  1.421505 A    
C94   C103  1.407510 A    
N7    O65   1.301021 A    
N18   O87   1.301330 A    
Zn9   O35   1.947367 S    
C25   C143  1.455571 S    
N8    O68   1.300126 A    
N23   O98   1.301394 A    
Zn3   O3    1.935825 S    
C156  H4    1.081789 S    
C1    C24   1.429145 S    
Zn10  O36   1.947368 S    
N9    O69   1.301598 A    
C30   C140  1.490213 S    
Zn3   O49   1.950428 S    
C55   C110  1.417470 A    
C89   C100  1.421787 A    
C5    C13   1.202228 T    
C170  H18   1.085379 S    
C165  O129  1.220816 D    
N10   O72   1.299679 A    
C122  C131  1.412666 A    
C53   C112  1.417603 A    
C115  C147  1.424515 A    
C54   C111  1.427013 A    
C48   N8    1.439488 S    
C155  H3    1.084603 S    
N11   O73   1.301789 A    
C178  O142  1.220866 D    
C104  C158  1.483254 S    
C47   C118  1.429879 A    
N32   O115  1.301660 A    
C45   C120  1.429185 A    
C43   C114  1.422409 A    
C46   C119  1.422023 A    
C74   C83   1.418054 A    
C176  O140  1.221238 D    
C5    C20   1.429334 S    
Zn11  O33   1.950428 S    
C33   C151  1.471215 S    
C7    C18   1.428899 S    
N3    O57   1.300886 A    
C158  H6    1.084825 S    
N4    O60   1.300732 A    
O40   C38   1.279983 A    
C41   C116  1.430823 A    
N26   O103  1.301564 A    
C42   C115  1.419627 A    
Zn7   O3    1.942865 S    
N17   O86   1.301291 A    
C177  H25   1.084041 S    
C99   C153  1.486685 S    
C80   C85   1.418600 A    
C175  H23   1.084081 S    
C94   C168  1.492232 S    
C59   C130  1.426562 A    
C41   N1    1.431096 S    
Zn16  O9    1.891578 S    
N15   O82   1.300202 A    
O18   C22   1.283591 A    
Zn13  O4    1.941972 S    
Zn14  O3    1.941975 S    
O33   C37   1.271884 A    
O47   C29   1.269241 A    
C59   N19   1.446663 S    
C38   C148  1.475864 S    
C48   C117  1.418466 A    
C108  C140  1.423314 A    
C169  H17   1.084319 S    
C47   N7    1.427318 S    
O16   C24   1.286037 A    
C73   C179  1.489970 S    
C68   N28   1.441983 S    
C164  H12   1.081533 S    
C66   N26   1.449050 S    
C159  H7    1.082707 S    
Zn4   O4    1.935828 S    
O35   C39   1.272852 A    
C167  H15   1.084958 S    
C82   C172  1.494580 S    
C49   C81   1.416860 A    
C8    C17   1.428671 S    
Zn13  O28   1.948994 S    
Zn9   O12   1.893311 S    
Zn8   O46   1.948548 S    
C174  H22   1.084419 S    
Zn10  O11   1.893311 S    
Zn15  O2    1.942865 S    
Zn4   O50   1.950430 S    
C88   C174  1.489252 S    
Zn11  O2    1.935825 S    
C26   C144  1.475717 S    
C1    C9    1.202178 T    
C2    C23   1.429356 S    
C3    C11   1.201976 T    
C181  H29   1.085104 S    
C111  C118  1.411612 A    
C79   C181  1.493918 S    
C118  C150  1.434648 A    
N1    O53   1.301436 A    
C109  C120  1.416193 A    
C97   C155  1.482161 S    
O17   C21   1.283347 A    
C51   C106  1.420046 A    
C168  H16   1.083540 S    
C45   C77   1.405999 A    
N6    O63   1.301521 A    
C110  C142  1.422348 A    
C50   C82   1.414708 A    
N13   O77   1.301832 A    
C112  C144  1.428682 A    
C95   C102  1.421174 A    
C172  H20   1.082148 S    
C39   C149  1.459803 S    
C105  C116  1.409120 A    
N29   O110  1.298924 A    
C103  C157  1.491012 S    
C98   C156  1.489688 S    
C91   C161  1.482216 S    
C6    C19   1.429118 S    
C72   C125  1.419352 A    
C84   C170  1.487453 S    
C34   C152  1.475796 S    
C81   C171  1.482373 S    
C70   N30   1.442421 S    
C62   C94   1.407470 A    
C157  O121  1.221293 D    
O44   C34   1.272256 A    
O9    C17   1.283178 A    
N30   O112  1.300154 A    
C52   N12   1.434731 S    
C161  O125  1.220827 D    
N28   O108  1.300326 A    
O50   C28   1.274239 A    
C61   C93   1.420355 A    
C92   C162  1.494964 S    
C182  H30   1.082702 S    
Zn13  O31   1.945600 S    
Zn14  O32   1.945599 S    
O52   C26   1.275967 A    
C155  O119  1.220696 D    
C154  O118  1.220176 D    
C66   C123  1.421635 A    
O11   C19   1.285891 A    
C67   C122  1.429032 A    
N25   O101  1.301237 A    
C67   N27   1.428274 S    
N5    O62   1.297935 A    
C15   C16   1.406162 S    
C166  O130  1.219042 D    
C184  H32   1.083042 S    
O21   C25   1.271384 A    
N7    O66   1.298085 A    
C71   C103  1.413913 A    
O23   C27   1.269523 A    
C56   C109  1.434987 A    
N16   O84   1.300252 A    
N3    O58   1.301279 A    
O15   C23   1.285995 A    
N31   O114  1.299174 A    
C180  O144  1.220891 D    
O42   C36   1.277121 A    
C127  C149  1.419449 A    
C69   N29   1.431950 S    
C49   C108  1.421415 A    
C177  O141  1.220642 D    
C31   C141  1.456110 S    
C159  O123  1.221273 D    
C125  C151  1.429518 A    
Zn5   O44   1.948994 S    
Zn6   O43   1.948996 S    
N14   O79   1.300795 A    
Zn8   O37   1.947669 S    
Zn12  O34   1.950430 S    
C44   C113  1.422793 A    
N21   O94   1.300537 A    
Zn1   O1    1.943467 S    
O38   C40   1.275848 A    
C68   C121  1.419007 A    
N22   O96   1.301651 A    
C96   C166  1.496616 S    
O28   C32   1.275413 A    
C3    C22   1.428821 S    
N26   O104  1.300592 A    
Zn1   O51   1.947367 S    
O25   C29   1.269142 A    
C183  O147  1.221063 D    
C173  O137  1.220684 D    
O49   C27   1.269867 A    
C71   N31   1.430476 S    
C162  H10   1.082506 S    
N18   O88   1.300005 A    
O51   C25   1.272790 A    
C67   C99   1.408857 A    
N20   O91   1.301352 A    
Zn14  O27   1.948996 S    
C156  O120  1.221468 D    
C61   C136  1.420049 A    
C128  C133  1.407120 A    
N17   O85   1.301578 A    
C133  C143  1.420468 A    
C62   C135  1.431877 A    
C73   C84   1.410800 A    
C53   N13   1.444613 S    
Zn2   O19   1.893311 S    
C80   C182  1.486607 S    
N19   O89   1.299285 A    
C86   C176  1.490650 S    
C123  C130  1.419287 A    
O14   C22   1.283649 A    
C42   N2    1.439961 S    
N2    O55   1.301569 A    
C8    C16   1.201922 T    
C170  O134  1.220882 D    
C165  H13   1.085054 S    
N15   O81   1.301682 A    
C55   C87   1.418520 A    
C9    C10   1.406527 S    
C45   N5    1.427979 S    
C77   C183  1.488762 S    
C53   C85   1.418858 A    
O24   C28   1.275434 A    
O26   C30   1.262235 A    
C57   C89   1.419179 A    
C116  C148  1.436421 A    
Zn5   O1    1.941972 S    
N32   O116  1.300964 A    
C171  H19   1.084029 S    
C47   C79   1.416783 A    
C44   N4    1.438357 S    
Zn5   O47   1.945600 S    
Zn11  O26   1.948669 S    
N24   O99   1.300915 A    
Zn6   O48   1.945599 S    
C153  O117  1.220745 D    
Zn7   O45   1.948550 S    
C121  C147  1.423417 A    
C77   C88   1.405899 A    
C78   C87   1.418154 A    
C57   C132  1.419216 A    
Zn16  O1    1.942865 S    
Zn12  O1    1.935828 S    
C90   C99   1.406278 A    
C66   C98   1.409884 A    
Zn4   O13   1.895187 S    
Zn16  O21   1.947669 S    
Zn5   O16   1.894078 S    
C40   C150  1.474732 S    
O20   C24   1.285481 A    
O48   C30   1.293086 A    
Zn6   O15   1.894078 S    
C69   C128  1.426160 A    
C51   N11   1.445445 S    
C6    C14   1.202195 T    
C120  C152  1.433504 A    
C108  C113  1.395619 A    
O41   C35   1.269054 A    
O5    C17   1.284162 A    
O31   C35   1.278322 A    
O43   C33   1.276374 A    
Zn16  O30   1.948548 S    
C163  H11   1.085019 S    
C48   C80   1.420383 A    
C126  C152  1.433234 A    
Zn9   O24   1.946617 S    
Zn10  O23   1.946615 S    
N27   O105  1.301080 A    
C64   C96   1.414444 A    
Zn12  O25   1.948667 S    
C75   C177  1.481784 S    
C65   C97   1.414117 A    
O37   C39   1.274014 A    
Zn9   O4    1.943467 S    
N23   O97   1.301610 A    
C63   C95   1.420177 A    
Zn10  O3    1.943467 S    
C72   N32   1.443024 S    
N8    O67   1.301568 A    
Zn8   O4    1.942865 S    
C124  C129  1.400707 A    
C164  O128  1.219725 D    
O8    C20   1.285787 A    
O29   C33   1.276289 A    
O46   C32   1.274345 A    
C110  C119  1.392172 A    
C54   N14   1.431483 S    
N9    O70   1.300789 A    
C83   C169  1.482126 S    
Zn7   O18   1.891578 S    
C64   N24   1.430664 S    
C129  C139  1.420352 A    
N10   O71   1.301240 A    
C174  O138  1.220950 D    
C41   C73   1.416167 A    
C134  C144  1.432538 A    
C178  H26   1.082874 S    
C106  C115  1.393039 A    
C128  C150  1.432066 A    
C179  H27   1.084744 S    
C49   N9    1.444241 S    
Zn2   O52   1.947368 S    
N1    O54   1.299770 A    
C176  H24   1.082977 S    
C123  C145  1.430764 A    
C7    C15   1.202009 T    
C168  O132  1.221228 D    
C32   C142  1.466886 S    
N6    O64   1.300860 A    
O6    C18   1.283987 A    
N4    O59   1.301341 A    
C172  O136  1.221025 D    
Zn3   O42   1.948669 S    
C4    C12   1.201965 T    
N29   O109  1.301427 A    
O34   C38   1.270996 A    
C105  C137  1.420973 A    
Zn7   O38   1.947667 S    
C93   C167  1.485744 S    
C122  C148  1.434126 A    
C65   C124  1.422054 A    
C70   C102  1.417642 A    
C58   C131  1.431507 A    
C27   C137  1.456642 S    
N31   O113  1.301322 A    
C2    C10   1.202191 T    
C157  H5    1.082087 S    
C78   C184  1.488999 S    
C13   C14   1.406537 S    
C85   C175  1.481783 S    
C127  C134  1.393063 A    
C119  C151  1.428939 A    
C161  H9    1.085359 S    
C182  O146  1.220923 D    
O30   C34   1.281574 A    
N12   O75   1.300085 A    
C125  C136  1.392679 A    
C117  C149  1.419519 A    
C160  O124  1.220706 D    
N19   O90   1.301857 A    
C158  O122  1.221036 D    
C169  O133  1.220697 D    
N11   O74   1.300401 A    
C126  C135  1.409749 A    
O32   C36   1.274934 A    
C111  C143  1.422267 A    
C42   C74   1.421233 A    
C109  C141  1.429241 A    
C63   C134  1.421445 A    
C79   C86   1.407761 A    
C62   N22   1.433040 S    
C95   C165  1.483036 S    
C75   C82   1.414003 A    
C55   N15   1.444867 S    
C171  O135  1.220849 D    
Zn4   O41   1.948667 S    
O12   C20   1.285623 A    
C183  H31   1.084805 S    
C65   N25   1.440376 S    
C35   C145  1.472593 S    
C184  O148  1.220816 D    
C102  C160  1.484182 S    
C71   C126  1.430709 A    
C87   C173  1.482278 S    
C72   C104  1.419523 A    
O7    C19   1.285554 A    
C54   C86   1.406800 A    
C96   C101  1.409364 A    
O45   C31   1.273418 A    
C124  C146  1.431676 A    
C181  O145  1.219466 D    
C58   C90   1.412978 A    
C51   C83   1.419777 A    
Zn6   O2    1.941975 S    
C52   C84   1.406878 A    
C130  C140  1.421686 A    
C76   C178  1.491895 S    
C46   C78   1.423480 A    
N14   O80   1.299998 A    
C112  C117  1.392147 A    
Zn15  O10   1.891578 S    
C46   N6    1.439187 S    
C68   C100  1.420417 A    
N21   O93   1.301594 A    
C92   C97   1.413358 A    
Zn12  O5    1.895187 S    
Zn13  O8    1.894078 S    
C57   N17   1.442914 S    
N13   O78   1.299575 A    
Zn14  O7    1.894078 S    
Zn3   O14   1.895187 S    
C175  O139  1.220368 D    
Zn15  O22   1.947667 S    
C76   C81   1.416072 A    
C163  O127  1.220804 D    
C28   C138  1.471644 S    
O10   C18   1.283266 A    
O22   C26   1.280812 A    
C167  O131  1.220627 D    
C29   C139  1.454482 S    
C61   N21   1.442658 S    
N27   O106  1.298679 A    
O36   C40   1.278934 A    
C173  H21   1.084306 S    
C107  C114  1.398901 A    
C121  C132  1.392128 A    
C162  O126  1.220682 D    
C50   C107  1.422527 A    
C56   C88   1.409063 A    
N20   O92   1.300152 A    
Zn15  O29   1.948550 S    
C59   C91   1.418335 A    
N30   O111  1.301666 A    
C60   C92   1.417972 A    
N5    O61   1.301041 A    
N28   O107  1.301622 A    
C132  C138  1.428312 A    
C69   C101  1.413308 A    
C135  C141  1.421787 A    
Zn2   O2    1.943467 S    
N2    O56   1.300451 A    
C113  C145  1.416506 A    
C74   C180  1.487656 S    
C43   C75   1.413711 A    
Zn11  O6    1.895187 S    
C91   C98   1.413090 A    
C43   N3    1.439984 S    
C154  H2    1.084865 S    
C44   C76   1.419049 A    
C36   C146  1.476492 S    
N25   O102  1.301201 A    
C63   N23   1.442300 S    
C4    C21   1.428910 S    
C179  O143  1.220573 D    
C106  C138  1.427014 A    
C56   N16   1.429228 S    
C166  H14   1.084466 S    
N24   O100  1.300243 A    
Zn8   O17   1.891578 S    
C153  H1    1.083808 S    
N16   O83   1.301048 A    
C11   C12   1.406146 S    
C52   C105  1.428405 A    
C89   C163  1.482796 S    
Zn1   O20   1.893311 S    
C160  H8    1.084852 S    
C136  C142  1.424193 A    
C114  C146  1.431098 A    
C180  H28   1.083288 S    
O19   C23   1.285364 A    
