data_mof_unit_20957.cif
_audit_creation_date              2012-12-11T15:29:30-0500
_audit_creation_method            fapswitch 2.2
_symmetry_space_group_name_H-M    P1
_symmetry_Int_Tables_number       1
_space_group_crystal_system       triclinic
_cell_length_a                    13.498343
_cell_length_b                    13.509549
_cell_length_c                    27.542851
_cell_angle_alpha                 90.465324
_cell_angle_beta                  89.830298
_cell_angle_gamma                 60.102079
_cell_volume                      4353.89665373

loop_
_atom_site_label
_atom_site_type_symbol
_atom_type_description
_atom_site_fract_x
_atom_site_fract_y
_atom_site_fract_z
_atom_type_partial_charge
C1    C     C_R   0.619779 0.100722 0.570072 0.564733
C2    C     C_1   0.624580 0.741956 0.617753 0.003150
C3    C     C_3   0.669946 0.588703 0.770001 -0.034865
C4    C     C_3   0.666155 0.675814 0.807321 0.044153
C5    C     C_3   0.565523 0.685892 0.744333 -0.128473
C6    C     C_3   0.647585 0.706638 0.713001 0.025480
C7    C     C_3   0.561554 0.772862 0.782417 -0.131977
C8    C     C_3   0.643118 0.794495 0.750107 -0.105347
C9    C     C_1   0.679893 0.648602 0.859026 -0.011339
C10   C     C_1   0.637658 0.722302 0.660473 -0.039685
C11   C     C_3   0.127419 0.105849 0.742153 -0.105171
C12   C     C_R   0.598597 0.780952 0.568901 0.548493
C13   C     C_3   0.223177 0.040915 0.779942 -0.134477
C14   C     C_1   0.110697 0.193152 0.903014 0.035547
C15   C     C_1   0.240633 0.132128 0.619332 -0.004105
C16   C     C_3   0.083800 0.215235 0.773013 0.284195
C17   C     C_3   0.177592 0.151503 0.810372 0.039815
C18   C     C_3   0.160578 0.250004 0.745458 -0.081498
C19   C     C_3   0.205811 0.139644 0.715122 0.010519
C20   C     C_3   0.256118 0.185008 0.783152 -0.146580
C21   C     C_3   0.302410 0.074174 0.751886 -0.124927
C22   C     C_1   0.148221 0.168597 0.862221 0.006235
C23   C     C_R   0.279666 0.120674 0.570013 0.547206
C24   C     C_1   0.221106 0.136282 0.662276 -0.044784
C25   C     C_3   0.674725 0.241247 0.738799 -0.114882
C26   C     C_3   0.575113 0.276231 0.775482 -0.100089
C27   C     C_1   0.689188 0.204470 0.902400 0.017301
C28   C     C_1   0.632003 0.130105 0.618809 0.024998
C29   C     C_3   0.756270 0.143894 0.772857 -0.070740
C30   C     C_3   0.656391 0.178672 0.808841 0.044200
C31   C     C_3   0.723100 0.062389 0.747841 0.079112
C32   C     C_3   0.643067 0.158631 0.714075 0.019960
C33   C     C_3   0.624358 0.095806 0.784444 -0.125466
C34   C     C_R   0.622449 0.100650 0.432127 0.602686
C35   C     C_3   0.543109 0.193180 0.750025 -0.138424
C36   C     C_1   0.670065 0.191496 0.860840 -0.013995
C37   C     C_1   0.637561 0.146462 0.661465 -0.007309
C38   C     C_R   0.643657 0.718907 0.383778 0.020989
C39   C     C_R   0.722687 0.737436 0.358075 -0.129503
C40   C     C_R   0.737739 0.715963 0.308760 -0.118517
C41   C     C_R   0.677567 0.671198 0.284306 0.029948
C42   C     C_R   0.610549 0.637901 0.311513 -0.098209
C43   C     C_R   0.591726 0.663890 0.360884 -0.094042
C44   C     C_R   0.582910 0.677724 0.205880 -0.137125
C45   C     C_R   0.602513 0.776238 0.430648 0.538168
C46   C     C_R   0.587557 0.661755 0.156046 -0.164846
C47   C     C_R   0.772495 0.651020 0.153181 0.258170
C48   C     C_R   0.771077 0.657901 0.203695 -0.075988
C49   C     C_R   0.678290 0.666928 0.230700 -0.012147
C50   C     C_R   0.686327 0.638274 0.129749 0.016858
C51   C     C_R   0.224209 0.138305 0.383787 0.025400
C52   C     C_R   0.243092 0.043088 0.355785 -0.116236
C53   C     C_R   0.218294 0.054826 0.306652 -0.108869
C54   C     C_R   0.172173 0.162255 0.285021 0.034476
C55   C     C_R   0.144918 0.258894 0.313792 -0.109135
C56   C     C_R   0.278970 0.120130 0.431056 0.540135
C57   C     C_R   0.171392 0.246908 0.362903 -0.114356
C58   C     C_R   0.177690 0.247359 0.205813 -0.114748
C59   C     C_R   0.150987 0.264740 0.156736 -0.102745
C60   C     C_R   0.086447 0.126283 0.159656 -0.117581
C61   C     C_R   0.111421 0.110310 0.208671 -0.109349
C62   C     C_R   0.154214 0.173016 0.232420 0.023918
C63   C     C_R   0.101592 0.207082 0.133776 0.015335
C64   C     C_R   0.633323 0.129124 0.382610 0.027341
C65   C     C_R   0.654303 0.218264 0.369669 0.042983
C66   C     C_R   0.654022 0.242133 0.320026 -0.093291
C67   C     C_3   0.751718 0.610094 0.737990 -0.032352
C68   C     C_R   0.632078 0.179864 0.284954 0.030631
C69   C     C_R   0.605369 0.096899 0.298699 -0.065183
C70   C     C_R   0.607339 0.070834 0.347126 -0.120661
C71   C     C_R   0.743393 0.100789 0.208461 0.278049
C72   C     C_R   0.756326 0.112085 0.159208 -0.086346
C73   C     C_R   0.591600 0.303137 0.160424 -0.141149
C74   C     C_R   0.574410 0.290785 0.209394 -0.173497
C75   C     C_R   0.650598 0.190729 0.233652 0.003096
C76   C     C_R   0.684138 0.214388 0.135286 -0.029663
C77   C     C_R   0.051995 0.233794 0.948622 0.555361
C78   C     C_3   0.747868 0.697086 0.775975 -0.069288
C79   C     C_R   0.711572 0.562920 0.946748 0.560744
C80   C     C_R   0.722388 0.223824 0.949324 0.559148
C81   C     C_R   0.047476 0.243752 0.086399 0.534076
C82   C     C_R   0.708067 0.574708 0.083706 0.569068
C83   C     C_R   0.720242 0.233166 0.087695 0.545847
C84   C     C_1   0.693540 0.615449 0.900216 0.023250
Cr1   Cr    Cr6+3 0.417550 0.169090 0.500530 1.046571
Cr2   Cr    Cr6+3 0.669180 0.913420 0.499920 1.054790
Cr3   Cr    Cr6+3 0.413260 0.917540 0.499520 1.035920
Cr4   Cr    Cr6+3 0.909770 0.175810 0.018240 1.051301
Cr5   Cr    Cr6+3 0.913300 0.427650 0.016090 1.117899
Cr6   Cr    Cr6+3 0.657770 0.431010 0.016900 1.037324
H1    H     H_    0.822789 0.701504 0.789703 0.171932
H2    H     H_    0.309333 0.216655 0.800501 0.116114
H3    H     H_    0.133033 0.336379 0.731074 0.133627
H4    H     H_    0.513773 0.364808 0.787557 0.119816
H5    H     H_    0.692630 0.302140 0.719306 0.150789
H6    H     H_    0.455487 0.213688 0.739784 0.116271
H7    H     H_    0.603858 0.036141 0.803590 0.109319
H8    H     H_    0.845226 0.120334 0.782053 0.170757
H9    H     H_    0.765132 0.778913 0.374885 0.154200
H10   H     H_    0.829771 0.544948 0.718731 0.182223
H11   H     H_    0.505916 0.694007 0.224919 0.116418
H12   H     H_    0.516702 0.659494 0.138773 0.147612
H13   H     H_    0.790674 0.742350 0.289971 0.170462
H14   H     H_    0.844348 0.653726 0.221391 0.157805
H15   H     H_    0.568133 0.596849 0.294427 0.110440
H16   H     H_    0.532375 0.646534 0.380429 0.148704
H17   H     H_    0.284732 0.958077 0.370893 0.138626
H18   H     H_    0.214016 0.294050 0.223217 0.114994
H19   H     H_    0.164428 0.326551 0.137368 0.168766
H20   H     H_    0.630903 0.879607 0.740864 0.131245
H21   H     H_    0.240512 0.978926 0.285206 0.111794
H22   H     H_    0.091980 0.052961 0.228401 0.158979
H23   H     H_    0.047884 0.080829 0.143010 0.163001
H24   H     H_    0.105977 0.343168 0.298060 0.117949
H25   H     H_    0.155522 0.321551 0.383956 0.135885
H26   H     H_    0.827934 0.042802 0.140176 0.201159
H27   H     H_    0.674911 0.306010 0.308296 0.150017
H28   H     H_    0.503209 0.360027 0.228696 0.123276
H29   H     H_    0.483942 0.839585 0.801423 0.110258
H30   H     H_    0.535491 0.383273 0.142859 0.144603
H31   H     H_    0.587234 0.049430 0.271685 0.146828
H32   H     H_    0.587406 0.005165 0.357136 0.111472
H33   H     H_    0.490745 0.681063 0.730666 0.119100
H34   H     H_    0.678903 0.504766 0.779126 0.190882
H35   H     H_    0.249782 0.954946 0.794535 0.120009
H36   H     H_    0.073578 0.074454 0.725194 0.112140
H37   H     H_    0.393497 0.015826 0.742240 0.116949
O1    O     O_R   0.301780 0.195490 0.553940 -0.505543
O2    O     O_R   0.658840 0.818280 0.449970 -0.511596
O3    O     O_R   0.503160 0.801780 0.445740 -0.516746
O4    O     O_R   0.319320 0.022190 0.450230 -0.503107
O5    O     O_3   0.499990 0.000010 0.499990 -0.265754
O6    O     O_R   0.819250 0.149410 0.965240 -0.491674
O7    O     O_R   0.006940 0.180310 0.968270 -0.491329
O8    O     O_R   0.028420 0.332670 0.963010 -0.497363
O9    O     O_R   0.810130 0.520390 0.966030 -0.475798
O10   O     O_R   0.636050 0.541380 0.962520 -0.510618
O11   O     O_R   0.666480 0.323610 0.968170 -0.494531
O12   O     O_R   0.522450 0.158840 0.550250 -0.496879
O13   O     O_R   0.817280 0.156800 0.072180 -0.517372
O14   O     O_R   0.005110 0.187160 0.067410 -0.515143
O15   O     O_R   0.026450 0.340060 0.069950 -0.473567
O16   O     O_R   0.808300 0.527240 0.065170 -0.424552
O17   O     O_R   0.634070 0.548770 0.069460 -0.536656
O18   O     O_R   0.664650 0.330470 0.067300 -0.500778
O19   O     O_3   0.826940 0.344820 0.017080 -0.265601
O20   O     O_R   0.694460 0.003360 0.553820 -0.481540
O21   O     O_R   0.657750 0.819520 0.549120 -0.489760
O22   O     O_R   0.501990 0.803120 0.552700 -0.504193
O23   O     O_R   0.318230 0.023430 0.549370 -0.491111
O24   O     O_R   0.302950 0.194150 0.446980 -0.515833
O25   O     O_R   0.523540 0.157600 0.451100 -0.491148
O26   O     O_R   0.695630 0.002030 0.446860 -0.497057
S1    S     S_3+6 0.937563 0.311948 0.786570 -0.047788
O27   O     O_2   0.893326 0.261176 0.823102 -0.308018
O28   O     O_2   0.926951 0.420077 0.807229 -0.284854
O29   O     O_3   0.862120 0.340380 0.735105 -0.580156
H38   H     H_    0.889477 0.265236 0.719073 0.324564
C85   C     C_2   0.807539 0.941501 0.733873 0.545688
O30   O     O_2   0.869950 0.875883 0.764795 -0.536083
O31   O     O_R   0.814029 0.903997 0.685945 -0.698666
H39   H     H_    0.873144 0.820346 0.681377 0.340388
S2    S     S_3+6 0.880894 0.662411 0.121623 0.024529
O32   O     O_2   0.911138 0.739704 0.149474 -0.238579
O33   O     O_2   0.985315 0.546290 0.117086 -0.294504
O34   O     O_3   0.835443 0.716761 0.066082 -0.520583
H40   H     H_    0.902825 0.713414 0.050028 0.361108
C86   C     C_2   0.678844 0.285043 0.406263 0.568358
O35   O     O_2   0.683206 0.369516 0.393770 -0.534439
O36   O     O_R   0.698043 0.251795 0.454854 -0.694305
H41   H     H_    0.713828 0.304408 0.475788 0.341805
S3    S     S_3+6 0.849391 0.975885 0.237261 -0.001704
O37   O     O_2   0.873580 0.003632 0.287258 -0.285152
O38   O     O_2   0.807137 0.892329 0.240895 -0.300615
O39   O     O_3   0.971022 0.916515 0.204285 -0.532390
H42   H     H_    0.023807 0.845752 0.221665 0.376607

loop_
_geom_bond_atom_site_label_1
_geom_bond_atom_site_label_2
_ccdc_geom_bond_type
C44   C49   A    
C58   C62   A    
C66   C68   A    
C45   O2    A    
O29   H38   S    
Cr5   O8    S    
C73   C74   A    
S2    O32   D    
C72   C76   A    
C2    C12   S    
Cr2   O20   S    
O31   H39   S    
C7    C8    S    
C57   H25   S    
C35   H6    S    
C3    H34   S    
C68   C75   S    
C79   O9    A    
C46   H12   S    
C65   C86   S    
C11   C19   S    
C29   H8    S    
C63   C81   S    
C60   C63   A    
Cr3   O3    S    
C19   C21   S    
Cr2   O26   S    
Cr4   O6    S    
C18   C19   S    
Cr6   O18   S    
Cr1   O5    S    
C79   C84   S    
C80   O11   A    
O36   H41   S    
Cr5   O15   S    
C48   H14   S    
C17   C20   S    
C18   C20   S    
C51   C56   S    
C41   C42   A    
C14   C77   S    
Cr3   O4    S    
Cr4   O13   S    
C38   C45   S    
C59   H19   S    
C83   O18   A    
C47   C48   A    
C52   H17   S    
C44   C46   A    
C16   C17   S    
C66   H27   S    
C5    H33   S    
C1    C28   S    
C85   O31   S    
C51   C57   A    
C64   C70   A    
C21   H37   S    
Cr1   O12   S    
S1    O28   D    
C1    O12   A    
S3    O39   S    
C47   S2    S    
C53   H21   S    
C25   C32   S    
C86   O36   S    
C45   O3    A    
Cr5   O9    S    
C8    C78   S    
C60   H23   S    
C61   C62   A    
C67   C78   S    
C4    C7    S    
C76   C83   S    
C41   C49   S    
C83   O13   A    
Cr6   O11   S    
S3    O38   D    
C77   O7    A    
C47   C50   A    
C25   C29   S    
Cr5   O19   S    
C74   H28   S    
C74   C75   A    
C51   C52   A    
C32   C35   S    
C7    H29   S    
C11   H36   S    
C38   C39   A    
S1    O29   S    
C82   O17   A    
C27   C80   S    
C39   C40   A    
C5    C7    S    
C34   O25   A    
C68   C69   A    
C6    C8    S    
C54   C62   S    
C58   C59   A    
Cr5   O16   S    
Cr3   O23   S    
C80   O6    A    
C60   C61   A    
C43   H16   S    
Cr3   O5    S    
Cr1   O24   S    
C4    C78   S    
C29   C30   S    
C8    H20   S    
C20   H2    S    
C11   C16   S    
C70   H32   S    
C39   H9    S    
C85   O30   D    
C69   H31   S    
C53   C54   A    
C81   O14   A    
S2    O34   S    
C34   C64   S    
C13   C21   S    
C15   C24   T    
C32   C37   S    
C56   O24   A    
S1    O27   D    
C67   H10   S    
C16   C18   S    
C81   O15   A    
C79   O10   A    
C23   O23   A    
C26   C30   S    
C26   H4    S    
C55   C57   A    
C16   S1    S    
O34   H40   S    
C27   C36   T    
C73   C76   A    
C1    O20   A    
C42   C43   A    
C3    C4    S    
C2    C10   T    
Cr4   O14   S    
Cr6   O10   S    
C52   C53   A    
C50   C82   S    
C34   O26   A    
C72   H26   S    
C54   C55   A    
C86   O35   D    
C31   C33   S    
C30   C33   S    
S2    O33   D    
C12   O22   A    
C31   C32   S    
C3    C67   S    
C82   O16   A    
C3    C5    S    
Cr2   O21   S    
C6    C10   S    
C44   H11   S    
Cr2   O2    S    
C25   H5    S    
C55   H24   S    
C30   C36   S    
C78   H1    S    
C46   C50   A    
C59   C63   A    
C17   C22   S    
Cr2   O5    S    
C13   C17   S    
C64   C65   A    
C14   C22   T    
C19   C24   S    
C25   C26   S    
Cr1   O25   S    
Cr4   O7    S    
C38   C43   A    
Cr6   O19   S    
O39   H42   S    
C6    C67   S    
C40   H13   S    
C71   C75   A    
C11   C13   S    
C12   O21   A    
C5    C6    S    
C28   C37   T    
C48   C49   A    
C15   C23   S    
C33   C35   S    
C58   H18   S    
C69   C70   A    
C42   H15   S    
Cr6   O17   S    
C56   O4    A    
C9    C84   T    
S3    O37   D    
C26   C35   S    
C71   C72   A    
C20   C21   S    
C29   C31   S    
C65   C66   A    
Cr3   O22   S    
C73   H30   S    
C18   H3    S    
Cr4   O19   S    
C71   S3    S    
Cr1   O1    S    
C40   C41   A    
C77   O8    A    
C33   H7    S    
C4    C9    S    
C61   H22   S    
C13   H35   S    
C31   C85   S    
C23   O1    A    
