data_mof_unit_56861.cif
_audit_creation_date              2012-12-10T17:09:16-0500
_audit_creation_method            fapswitch 2.2
_symmetry_space_group_name_H-M    P1
_symmetry_Int_Tables_number       1
_space_group_crystal_system       triclinic
_cell_length_a                    18.270778
_cell_length_b                    18.714307
_cell_length_c                    11.716127
_cell_angle_alpha                 90.918324
_cell_angle_beta                  76.379777
_cell_angle_gamma                 89.48159
_cell_volume                      3892.53919039

loop_
_atom_site_label
_atom_site_type_symbol
_atom_type_description
_atom_site_fract_x
_atom_site_fract_y
_atom_site_fract_z
_atom_type_partial_charge
C1    C     C_R   0.398642 0.099201 0.521424 0.866224
C2    C     C_R   0.597645 0.897088 0.479514 0.851139
C3    C     C_R   0.599748 0.100628 0.480026 0.835605
C4    C     C_R   0.399225 0.900334 0.519877 0.872528
C5    C     C_R   0.902822 0.603152 0.521276 0.831519
C6    C     C_R   0.101399 0.400920 0.478532 0.873257
C7    C     C_R   0.099946 0.600334 0.479990 0.884485
C8    C     C_R   0.900001 0.399684 0.519447 0.845921
C9    C     C_R   0.536405 0.997564 0.961614 -0.071504
C10   C     C_R   0.464244 0.003134 0.038335 -0.069147
C11   C     C_R   0.035625 0.500794 0.961095 -0.101791
C12   C     C_R   0.963421 0.502007 0.038432 -0.078925
C13   C     C_R   0.410117 0.005482 0.865702 0.396852
C14   C     C_R   0.590486 0.997293 0.134910 0.466785
C15   C     C_R   0.909693 0.499457 0.865490 0.458270
C16   C     C_R   0.089961 0.493829 0.131870 0.429978
C17   C     C_R   0.400657 0.009238 0.989391 0.114340
C18   C     C_R   0.600387 0.995756 0.010618 0.129542
C19   C     C_R   0.899596 0.503190 0.989555 0.117275
C20   C     C_R   0.099309 0.499570 0.009036 0.157747
C21   C     C_R   0.542538 0.996898 0.838011 -0.067604
C22   C     C_R   0.457731 0.004073 0.161758 -0.067178
C23   C     C_R   0.042239 0.501127 0.837837 -0.035631
C24   C     C_R   0.957381 0.503162 0.162105 -0.061966
C25   C     C_R   0.653432 0.159337 0.470798 -0.231585
C26   C     C_R   0.345309 0.842002 0.527399 -0.228781
C27   C     C_R   0.337612 0.151164 0.531812 -0.227571
C28   C     C_R   0.650881 0.836748 0.470443 -0.218858
C29   C     C_R   0.153244 0.659131 0.471429 -0.197041
C30   C     C_R   0.846876 0.340797 0.525640 -0.241516
C31   C     C_R   0.849758 0.663592 0.534739 -0.247451
C32   C     C_R   0.163229 0.349998 0.467670 -0.209377
C33   C     C_R   0.284545 0.740990 0.634778 -0.248957
C34   C     C_R   0.720655 0.255073 0.356602 -0.232447
C35   C     C_R   0.750514 0.765360 0.347145 -0.235704
C36   C     C_R   0.203237 0.173537 0.583018 -0.222659
C37   C     C_R   0.781839 0.242898 0.636140 -0.231231
C38   C     C_R   0.215628 0.758671 0.362501 -0.229933
C39   C     C_R   0.297703 0.328817 0.419363 -0.236428
C40   C     C_R   0.748007 0.731839 0.658882 -0.225822
C41   C     C_R   0.334451 0.796805 0.624216 0.533362
C42   C     C_R   0.670324 0.199438 0.367658 0.519633
C43   C     C_R   0.687346 0.808957 0.359623 0.523190
C44   C     C_R   0.264778 0.130818 0.588463 0.520549
C45   C     C_R   0.834820 0.296169 0.623217 0.508680
C46   C     C_R   0.166094 0.702545 0.372356 0.524896
C47   C     C_R   0.236387 0.373166 0.419777 0.507386
C48   C     C_R   0.806659 0.683325 0.646892 0.547487
C49   C     C_R   0.307272 0.828068 0.436681 0.182963
C50   C     C_R   0.686896 0.177667 0.564673 0.163133
C51   C     C_R   0.668129 0.807419 0.572041 0.155241
C52   C     C_R   0.349629 0.215867 0.470164 0.142394
C53   C     C_R   0.810453 0.325882 0.433099 0.172920
C54   C     C_R   0.190263 0.673383 0.562555 0.175308
C55   C     C_R   0.150929 0.282391 0.519540 0.137905
C56   C     C_R   0.839171 0.700192 0.435256 0.153844
C57   C     C_R   0.255963 0.771601 0.448791 0.003604
C58   C     C_R   0.742045 0.230333 0.549301 -0.011181
C59   C     C_R   0.729084 0.759802 0.559420 -0.023274
C60   C     C_R   0.287351 0.260984 0.469843 -0.002202
C61   C     C_R   0.758250 0.270321 0.445515 -0.012386
C62   C     C_R   0.243717 0.728239 0.549207 -0.033767
C63   C     C_R   0.213341 0.238527 0.523524 -0.005568
C64   C     C_R   0.773621 0.742091 0.446254 -0.000059
Cu1   Cu    Cu3+1 0.507800 0.000000 0.383250 0.990304
Cu2   Cu    Cu3+1 0.492200 1.000000 0.616750 0.968839
Cu3   Cu    Cu3+1 0.007800 0.500000 0.383250 0.952587
Cu4   Cu    Cu3+1 0.992200 0.500000 0.616750 1.007652
H1    H     H_    0.403400 0.008588 0.222516 0.156449
H2    H     H_    0.596728 0.995025 0.776821 0.140793
H3    H     H_    0.903201 0.506825 0.223178 0.153209
H4    H     H_    0.096388 0.502204 0.776457 0.169383
H5    H     H_    0.773443 0.210526 0.713871 0.198705
H6    H     H_    0.221895 0.791881 0.286103 0.205779
H7    H     H_    0.353433 0.349152 0.382886 0.205712
H8    H     H_    0.716641 0.745955 0.746952 0.198597
H9    H     H_    0.278824 0.708001 0.711165 0.175160
H10   H     H_    0.730032 0.285748 0.277039 0.205663
H11   H     H_    0.778846 0.747967 0.259623 0.188354
H12   H     H_    0.147623 0.155291 0.625864 0.207938
N1    N     N_R   0.519530 1.000000 0.207810 -0.216575
N2    N     N_R   0.480470 1.000000 0.792190 -0.217125
N3    N     N_R   0.019530 0.500000 0.207810 -0.229852
N4    N     N_R   0.980470 0.500000 0.792190 -0.211989
O1    O     O_R   0.430030 0.075530 0.417420 -0.600209
O2    O     O_R   0.569970 0.924470 0.582580 -0.599071
O3    O     O_R   0.569970 0.075530 0.582580 -0.599704
O4    O     O_R   0.430030 0.924470 0.417420 -0.604065
O5    O     O_R   0.930030 0.575530 0.417420 -0.589348
O6    O     O_R   0.069970 0.424470 0.582580 -0.596156
O7    O     O_R   0.069970 0.575530 0.582580 -0.569419
O8    O     O_R   0.930030 0.424470 0.417420 -0.606867
O9    O     O_R   0.416860 0.075510 0.614610 -0.557531
O10   O     O_R   0.583140 0.924490 0.385390 -0.508300
O11   O     O_R   0.583140 0.075510 0.385390 -0.530107
O12   O     O_R   0.416860 0.924490 0.614610 -0.506851
O13   O     O_R   0.916860 0.575510 0.614610 -0.523559
O14   O     O_R   0.083140 0.424490 0.385390 -0.590118
O15   O     O_R   0.083140 0.575510 0.385390 -0.554253
O16   O     O_R   0.916860 0.424490 0.614610 -0.504475
N5    N     N_2   0.654027 0.002753 0.185522 -0.385620
H13   H     H_    0.670969 0.054463 0.194408 0.274988
C65   C     C_3   0.716295 0.952553 0.148644 -0.534875
H14   H     H_    0.735974 0.935732 0.226796 0.233392
H15   H     H_    0.764376 0.978515 0.088427 0.202535
H16   H     H_    0.699810 0.904824 0.103462 0.276162
N6    N     N_2   0.346116 0.009575 0.816713 -0.352626
H17   H     H_    0.319673 0.058956 0.827966 0.270794
C66   C     C_3   0.294024 0.950798 0.842078 -0.490056
H18   H     H_    0.270697 0.939689 0.764413 0.251387
H19   H     H_    0.246578 0.964998 0.917703 0.205019
H20   H     H_    0.322293 0.901443 0.862643 0.240545
N7    N     N_2   0.155721 0.478184 0.172751 -0.391062
H21   H     H_    0.160400 0.499960 0.251255 0.329969
C67   C     C_3   0.186452 0.406321 0.146960 -0.609544
H22   H     H_    0.240792 0.401713 0.173061 0.255380
H23   H     H_    0.197694 0.393431 0.051674 0.222314
H24   H     H_    0.146773 0.366303 0.194660 0.219076
N8    N     N_2   0.845779 0.495218 0.816057 -0.373155
H25   H     H_    0.814889 0.541913 0.823873 0.300840
C68   C     C_3   0.798496 0.433276 0.846276 -0.569554
H26   H     H_    0.776026 0.417146 0.769803 0.227456
H27   H     H_    0.749721 0.446349 0.920352 0.207992
H28   H     H_    0.830404 0.387664 0.871352 0.268319
N9    N     N_2   0.662811 0.147349 0.677597 -0.436199
H29   H     H_    0.667191 0.092673 0.682841 0.258692
C69   C     C_3   0.599831 0.183319 0.757265 -0.632401
H30   H     H_    0.552681 0.145740 0.785576 0.235659
H31   H     H_    0.578789 0.229884 0.715827 0.225091
H32   H     H_    0.617856 0.203083 0.835972 0.218315
N10   N     N_2   0.318440 0.870438 0.333906 -0.436690
H33   H     H_    0.319455 0.924999 0.346239 0.263317
C70   C     C_3   0.372451 0.841430 0.232203 -0.635208
H34   H     H_    0.430476 0.843502 0.245781 0.260073
H35   H     H_    0.369982 0.872684 0.153610 0.209975
H36   H     H_    0.359462 0.785038 0.214597 0.231990
N11   N     N_2   0.423972 0.236480 0.411440 -0.427462
H37   H     H_    0.466224 0.218994 0.449486 0.256596
C71   C     C_3   0.442489 0.226173 0.284962 -0.592193
H38   H     H_    0.445709 0.168418 0.261175 0.242965
H39   H     H_    0.498044 0.250248 0.247041 0.257508
H40   H     H_    0.399843 0.252227 0.245226 0.204768
N12   N     N_2   0.625328 0.824894 0.687500 -0.447996
H41   H     H_    0.635712 0.872518 0.725631 0.248933
C72   C     C_3   0.552229 0.792675 0.727077 -0.523615
H42   H     H_    0.507806 0.834922 0.746346 0.274920
H43   H     H_    0.550875 0.763250 0.808985 0.209751
H44   H     H_    0.539981 0.754693 0.660195 0.231939
N13   N     N_2   0.172827 0.633030 0.667434 -0.410087
H45   H     H_    0.218476 0.608354 0.688152 0.244635
C73   C     C_3   0.121685 0.668776 0.765659 -0.629315
H46   H     H_    0.110110 0.633515 0.842723 0.231476
H47   H     H_    0.067465 0.681573 0.742715 0.249783
H48   H     H_    0.146311 0.718928 0.790837 0.216777
N14   N     N_2   0.824394 0.366010 0.327832 -0.432791
H49   H     H_    0.823737 0.420804 0.337418 0.255292
C74   C     C_3   0.881323 0.335824 0.230889 -0.645405
H50   H     H_    0.938027 0.338776 0.249508 0.244282
H51   H     H_    0.881608 0.365586 0.149744 0.217227
H52   H     H_    0.869188 0.279015 0.214617 0.227394
N15   N     N_2   0.901242 0.709699 0.336674 -0.407669
H53   H     H_    0.953177 0.712387 0.356912 0.284219
C75   C     C_3   0.902086 0.669868 0.229641 -0.592313
H54   H     H_    0.957493 0.642663 0.198113 0.247711
H55   H     H_    0.895234 0.707104 0.160095 0.216514
H56   H     H_    0.856911 0.629607 0.243659 0.215480
N16   N     N_2   0.076396 0.258567 0.568968 -0.424156
H57   H     H_    0.042226 0.295191 0.623774 0.302007
C76   C     C_3   0.039816 0.225942 0.484793 -0.657259
H58   H     H_    0.030104 0.266087 0.420826 0.208163
H59   H     H_    0.984589 0.204486 0.531455 0.249150
H60   H     H_    0.074845 0.181010 0.437161 0.232339
F1    F     F_    0.635946 0.187195 0.278414 -0.687412
F2    F     F_    0.374165 0.804648 0.707875 -0.698652
F3    F     F_    0.252742 0.067067 0.643015 -0.687055
F4    F     F_    0.660766 0.822079 0.263349 -0.676978
F5    F     F_    0.128800 0.692546 0.285919 -0.669899
F6    F     F_    0.876351 0.302071 0.704813 -0.681242
F7    F     F_    0.822266 0.657902 0.746231 -0.691645
F8    F     F_    0.248749 0.440631 0.379271 -0.691673
N17   N     N_2   0.326913 0.020307 0.061896 -0.443511
H61   H     H_    0.312140 0.986038 0.131229 0.253883
C77   C     C_3   0.307624 0.094218 0.094213 -0.695490
H62   H     H_    0.247748 0.098278 0.143104 0.234783
H63   H     H_    0.315082 0.127305 0.014508 0.229472
H64   H     H_    0.343464 0.115377 0.151248 0.222356
N18   N     N_2   0.674694 0.992766 0.937103 -0.446493
H65   H     H_    0.682500 0.959669 0.864063 0.242614
C78   C     C_3   0.711713 0.060884 0.915928 -0.691030
H66   H     H_    0.766975 0.053718 0.852302 0.230134
H67   H     H_    0.721599 0.084280 0.998368 0.246722
H68   H     H_    0.676521 0.098651 0.880374 0.244578
N19   N     N_2   0.825006 0.505634 0.062403 -0.455839
H69   H     H_    0.813730 0.476260 0.137914 0.251723
C79   C     C_3   0.783473 0.572460 0.068199 -0.662794
H70   H     H_    0.733906 0.564337 0.030296 0.244435
H71   H     H_    0.818738 0.615360 0.019339 0.250895
H72   H     H_    0.762473 0.590200 0.161063 0.213141
N20   N     N_2   0.173828 0.501262 0.935593 -0.452323
H73   H     H_    0.186994 0.474387 0.855892 0.243679
C80   C     C_3   0.222685 0.558849 0.953511 -0.605046
H74   H     H_    0.273262 0.536049 0.977275 0.245998
H75   H     H_    0.193883 0.596715 0.024367 0.252507
H76   H     H_    0.241164 0.589140 0.871528 0.202338

loop_
_geom_bond_atom_site_label_1
_geom_bond_atom_site_label_2
_ccdc_geom_bond_type
C6    C32   S    
C41   F2    S    
Cu3   N3    S    
C74   H50   S    
C7    C29   S    
N14   C74   S    
N6    C66   S    
C76   H58   S    
C14   C18   A    
C30   C45   A    
C75   H54   S    
C34   C42   A    
C44   F3    S    
C55   N16   S    
C13   N6    S    
C9    C21   A    
C16   N7    S    
Cu4   O16   S    
N15   H53   S    
C57   C62   A    
N16   C76   S    
N17   H61   S    
C10   C22   A    
C15   C19   A    
N11   C71   S    
C59   C64   A    
N5    H13   S    
C7    O15   A    
C60   C63   A    
C6    O14   A    
C39   C47   A    
C16   C20   A    
C75   H55   S    
C24   N3    A    
C66   H19   S    
C71   H40   S    
C29   C54   A    
C10   C17   A    
N12   H41   S    
C18   N18   S    
Cu3   O5    S    
Cu4   O7    S    
C49   C57   A    
C68   H27   S    
N12   C72   S    
C80   H74   S    
C73   H48   S    
C11   C23   A    
C78   H67   S    
C25   C50   A    
C68   H28   S    
C5    C31   S    
C52   C60   A    
Cu3   O14   S    
N15   C75   S    
C4    O12   A    
C53   C61   A    
C27   C44   A    
C33   C62   A    
C67   H23   S    
C55   C63   A    
C70   H36   S    
Cu4   O6    S    
C73   H46   S    
C56   C64   A    
C35   C64   A    
C8    O8    A    
C39   H7    S    
C31   C56   A    
C36   C63   A    
C35   C43   A    
C9    C10   A    
C22   H1    S    
C37   C58   A    
Cu3   O15   S    
C79   H72   S    
C58   C61   A    
N17   C77   S    
N20   H73   S    
C74   H51   S    
C40   C59   A    
C70   H35   S    
C80   H75   S    
C46   F5    S    
C72   H43   S    
C65   H14   S    
C72   H42   S    
C54   N13   S    
N8    C68   S    
C1    O1    A    
C30   C53   A    
C11   C20   A    
C38   C46   A    
C23   N4    A    
C21   H2    S    
C3    O3    A    
Cu3   Cu4   S    
Cu4   N4    S    
C22   N1    A    
C3    C25   S    
C75   H56   S    
C36   H12   S    
C26   C49   A    
N16   H57   S    
C2    C28   S    
Cu4   O13   S    
C14   N5    S    
C54   C62   A    
N19   C79   S    
C6    O6    A    
C13   N2    A    
C16   N3    A    
C40   H8    S    
C50   C58   A    
C78   H68   S    
C77   H62   S    
C69   H31   S    
C20   N20   S    
C47   F8    S    
Cu2   N2    S    
C38   C57   A    
C49   N10   S    
C43   F4    S    
Cu1   N1    S    
C2    O10   A    
N6    H17   S    
C67   H24   S    
C7    O7    A    
C52   N11   S    
C65   H15   S    
C50   N9    S    
N8    H25   S    
N9    C69   S    
C68   H26   S    
C45   F6    S    
Cu2   O9    S    
Cu1   O10   S    
C5    O13   A    
C19   N19   S    
C74   H52   S    
C31   C48   A    
C70   H34   S    
C80   H76   S    
C66   H20   S    
C51   C59   A    
C37   C45   A    
C69   H30   S    
Cu2   O3    S    
C72   H44   S    
C27   C52   A    
C71   H38   S    
Cu1   O4    S    
Cu2   O12   S    
N7    H21   S    
C38   H6    S    
C40   C48   A    
C37   H5    S    
C32   C55   A    
C28   C51   A    
C23   H4    S    
N10   C70   S    
C42   F1    S    
C25   C42   A    
Cu2   O2    S    
C4    C26   S    
C11   C12   A    
C53   N14   S    
C15   N4    A    
C4    O4    A    
C51   N12   S    
N11   H37   S    
C12   C24   A    
C28   C43   A    
N5    C65   S    
C13   C17   A    
C29   C46   A    
C77   H64   S    
C8    C30   S    
N13   C73   S    
C8    O16   A    
C69   H32   S    
C33   C41   A    
N18   H65   S    
Cu1   Cu2   S    
Cu1   O1    S    
N13   H45   S    
C34   H10   S    
C71   H39   S    
C33   H9    S    
C67   H22   S    
N9    H29   S    
C39   C60   A    
C56   N15   S    
C12   C19   A    
C35   H11   S    
Cu3   O8    S    
C32   C47   A    
C15   N8    S    
C2    O2    A    
C65   H16   S    
C73   H47   S    
C78   H66   S    
N20   C80   S    
N18   C78   S    
C36   C44   A    
C79   H70   S    
C17   N17   S    
C9    C18   A    
Cu1   O11   S    
C21   N2    A    
C24   H3    S    
C77   H63   S    
C1    O9    A    
N19   H69   S    
C34   C61   A    
N14   H49   S    
C1    C27   S    
C3    O11   A    
C76   H60   S    
C14   N1    A    
C79   H71   S    
C66   H18   S    
C48   F7    S    
C5    O5    A    
N10   H33   S    
C26   C41   A    
N7    C67   S    
C76   H59   S    
