data_mof_unit_64913.cif
_audit_creation_date              2012-10-26T17:30:05-0400
_audit_creation_method            fapswitch 2.2
_symmetry_space_group_name_H-M    P1
_symmetry_Int_Tables_number       1
_space_group_crystal_system       triclinic
_cell_length_a                    39.085215
_cell_length_b                    32.247762
_cell_length_c                    21.94807
_cell_angle_alpha                 90.227301
_cell_angle_beta                  124.430642
_cell_angle_gamma                 89.980705
_cell_volume                      22816.9931328

loop_
_atom_site_label
_atom_site_type_symbol
_atom_type_description
_atom_site_fract_x
_atom_site_fract_y
_atom_site_fract_z
_atom_type_partial_charge
C1    C     C_R   0.420413 0.499962 0.420381 0.557670
C2    C     C_R   0.706493 0.501055 0.704797 0.023019
C3    C     C_2   0.001627 0.005578 0.185534 -0.100464
C4    C     C_2   0.517484 0.468077 0.733202 -0.124292
C5    C     C_2   0.482242 0.531747 0.266545 -0.119580
C6    C     C_2   0.017488 0.968081 0.733204 -0.123833
C7    C     C_2   0.982233 0.031744 0.266535 -0.119971
C8    C     C_2   0.505472 0.501347 0.689276 -0.150540
C9    C     C_2   0.494566 0.498592 0.310770 -0.149917
C10   C     C_2   0.005467 0.001348 0.689271 -0.149623
C11   C     C_2   0.994563 0.998592 0.310767 -0.151136
C12   C     C_R   0.228198 0.471942 0.193496 -0.109732
C13   C     C_R   0.793511 0.000759 0.295297 0.024340
C14   C     C_R   0.771650 0.473348 0.808046 -0.109792
C15   C     C_R   0.728196 0.973425 0.191099 -0.109755
C16   C     C_R   0.271623 0.969862 0.801651 -0.109804
C17   C     C_R   0.206285 0.500361 0.207359 -0.010769
C18   C     C_R   0.793716 0.500512 0.792648 -0.011280
C19   C     C_R   0.706286 0.000333 0.207402 -0.010869
C20   C     C_R   0.293717 0.000580 0.792755 -0.011004
C21   C     C_R   0.227968 0.529065 0.265228 -0.073237
C22   C     C_R   0.772187 0.528007 0.733239 -0.073831
C23   C     C_R   0.727971 0.027506 0.267746 -0.073240
C24   C     C_R   0.206495 0.001187 0.705046 0.023065
C25   C     C_R   0.272218 0.031670 0.739936 -0.073784
C26   C     C_R   0.271566 0.472180 0.237182 -0.147525
C27   C     C_R   0.728285 0.473629 0.764356 -0.147483
C28   C     C_R   0.771563 0.973648 0.234812 -0.147492
C29   C     C_R   0.228258 0.970176 0.758033 -0.147362
C30   C     C_1   0.161518 0.500140 0.162179 -0.035993
C31   C     C_1   0.838482 0.500236 0.837823 -0.036038
C32   C     C_1   0.661518 0.000128 0.162196 -0.036038
C33   C     C_R   0.579587 0.500043 0.579618 0.557700
C34   C     C_1   0.338483 0.000268 0.837865 -0.036002
C35   C     C_1   0.338358 0.500190 0.339133 0.032516
C36   C     C_1   0.661642 0.500471 0.660862 0.032153
C37   C     C_1   0.838358 0.000171 0.339179 0.032628
C38   C     C_1   0.161643 0.000520 0.660975 0.031976
C39   C     C_1   0.375816 0.499934 0.376084 0.041911
C40   C     C_1   0.624184 0.500176 0.623912 0.041806
C41   C     C_1   0.875816 0.999930 0.376101 0.042012
C42   C     C_1   0.124185 0.000185 0.623951 0.041597
C43   C     C_1   0.124052 0.500037 0.124430 -0.002273
C44   C     C_R   0.920413 0.999962 0.420380 0.557929
C45   C     C_1   0.875947 0.500085 0.875570 -0.002167
C46   C     C_1   0.624052 0.000033 0.124434 -0.002304
C47   C     C_1   0.375948 0.000097 0.875580 -0.002220
C48   C     C_R   0.499958 0.420446 0.000111 0.573871
C49   C     C_R   0.999958 0.920446 0.000111 0.573698
C50   C     C_R   0.499817 0.497830 0.882156 0.579321
C51   C     C_R   0.500180 0.502184 0.117844 0.578635
C52   C     C_R   0.999816 0.997830 0.882156 0.579360
C53   C     C_R   0.000179 0.002184 0.117844 0.578560
C54   C     C_R   0.500042 0.579605 0.999909 0.568725
C55   C     C_R   0.079587 0.000044 0.579614 0.556988
C56   C     C_R   0.000041 0.079605 0.999910 0.568806
C57   C     C_R   0.501319 0.500162 0.619023 0.564657
C58   C     C_R   0.498697 0.499822 0.380996 0.564906
C59   C     C_R   0.001317 0.000162 0.619021 0.565490
C60   C     C_R   0.998695 0.999822 0.380994 0.563475
C61   C     C_R   0.999997 0.420587 0.999895 0.548839
C62   C     C_R   0.499997 0.920587 0.999895 0.548735
C63   C     C_R   0.079439 0.499986 0.079521 0.550043
C64   C     C_R   0.920561 0.499986 0.920478 0.550182
C65   C     C_R   0.579439 0.999987 0.079521 0.550059
C66   C     C_R   0.271555 0.529582 0.309490 0.283727
C67   C     C_R   0.420561 0.999986 0.920479 0.550070
C68   C     C_R   0.000013 0.579460 0.000112 0.552254
C69   C     C_R   0.500013 0.079460 0.000112 0.552263
C70   C     C_R   0.981541 0.727949 0.029523 -0.043956
C71   C     C_R   0.018377 0.727755 0.970751 -0.043924
C72   C     C_R   0.479881 0.227940 0.026385 -0.043710
C73   C     C_R   0.520014 0.227766 0.973830 -0.043980
C74   C     C_R   0.999992 0.706156 0.000215 -0.062751
C75   C     C_R   0.499985 0.206157 0.000197 -0.062738
C76   C     C_R   0.520292 0.271173 0.973211 0.243731
C77   C     C_R   0.728602 0.528554 0.688954 0.282848
C78   C     C_R   0.479465 0.271345 0.026695 0.240595
C79   C     C_R   0.018635 0.771163 0.970097 0.243552
C80   C     C_R   0.981159 0.771354 0.029901 0.240529
C81   C     C_R   0.499854 0.293547 0.999899 0.018084
C82   C     C_R   0.999872 0.793547 0.999944 0.018109
C83   C     C_1   0.000019 0.661441 0.000307 -0.041485
C84   C     C_1   0.500016 0.161442 0.000300 -0.041360
C85   C     C_1   0.499857 0.338483 0.999905 -0.057780
C86   C     C_1   0.999865 0.838483 0.999930 -0.057878
C87   C     C_1   0.499877 0.375912 0.999977 0.016648
C88   C     C_R   0.771558 0.027993 0.312060 0.283783
C89   C     C_1   0.999880 0.875912 0.999987 0.016483
C90   C     C_2   0.523320 0.469915 0.805747 0.235610
C91   C     C_2   0.476348 0.529812 0.193967 0.234004
C92   C     C_2   0.023326 0.969922 0.805751 0.235680
C93   C     C_2   0.976340 0.029808 0.193959 0.234203
C94   C     C_1   0.000021 0.624014 0.000301 0.003070
C95   C     C_1   0.500021 0.124014 0.000299 0.003171
C96   C     C_R   0.978421 0.271592 0.932879 -0.096195
C97   C     C_R   0.021691 0.272017 0.066764 -0.096691
C98   C     C_R   0.477825 0.771593 0.932920 -0.096453
C99   C     C_R   0.228633 0.032286 0.695789 0.282609
C100  C     C_R   0.522287 0.772017 0.066724 -0.096637
C101  C     C_R   0.000054 0.293679 0.999777 0.037315
C102  C     C_R   0.500054 0.793679 0.999776 0.037310
C103  C     C_R   0.522299 0.728580 0.066813 -0.090105
C104  C     C_R   0.477840 0.728157 0.933010 -0.097469
C105  C     C_R   0.021703 0.228580 0.066853 -0.089995
C106  C     C_R   0.978436 0.228157 0.932968 -0.097373
C107  C     C_R   0.500082 0.706496 0.999954 0.038739
C108  C     C_R   0.000082 0.206496 0.999953 0.038747
C109  C     C_1   0.000030 0.338467 0.999698 -0.045965
C110  C     C_R   0.293511 0.500816 0.295199 0.024316
C111  C     C_1   0.500030 0.838467 0.999698 -0.046120
C112  C     C_1   0.500114 0.661713 0.000024 -0.030374
C113  C     C_1   0.000114 0.161713 0.000023 -0.030233
C114  C     C_1   0.500114 0.624238 0.000009 0.024311
C115  C     C_1   0.000114 0.124238 0.000009 0.024449
C116  C     C_1   0.000012 0.375946 0.999714 -0.010370
C117  C     C_1   0.500012 0.875946 0.999714 -0.010541
C118  C     C_2   0.498367 0.494513 0.814467 -0.100754
C119  C     C_2   0.501628 0.505576 0.185535 -0.100368
C120  C     C_2   0.998365 0.994509 0.814465 -0.100589
Cu1   Cu    Cu3+1 0.500000 0.541020 0.500000 1.057552
Cu2   Cu    Cu3+1 0.999990 0.500040 0.939000 0.995697
Cu3   Cu    Cu3+1 0.500010 0.000040 0.061000 0.996175
Cu4   Cu    Cu3+1 0.499990 0.000040 0.939000 0.994902
Cu5   Cu    Cu3+1 1.000000 0.041020 0.500000 1.059290
Cu6   Cu    Cu3+1 0.500000 0.458980 0.500000 1.003486
Cu7   Cu    Cu3+1 0.000000 0.958980 0.500000 1.002645
Cu8   Cu    Cu3+1 0.541020 0.500000 0.040980 1.085096
Cu9   Cu    Cu3+1 0.458980 0.500000 0.959020 1.087524
Cu10  Cu    Cu3+1 0.041020 0.000000 0.040980 1.084376
Cu11  Cu    Cu3+1 0.958980 0.000000 0.959020 1.087871
Cu12  Cu    Cu3+1 0.000010 0.500040 0.061000 0.995410
H1    H     H_    0.967265 0.711135 0.052366 0.161717
H2    H     H_    0.038535 0.288686 0.118865 0.124635
H3    H     H_    0.460501 0.787932 0.880787 0.123447
H4    H     H_    0.539593 0.788687 0.118792 0.124653
H5    H     H_    0.472620 0.510426 0.766997 0.071925
H6    H     H_    0.527608 0.490035 0.233233 0.072330
H7    H     H_    0.972610 0.010409 0.766987 0.072422
H8    H     H_    0.027610 0.990043 0.233237 0.070897
H9    H     H_    0.524948 0.439415 0.717049 0.202312
H10   H     H_    0.474519 0.560341 0.282434 0.203843
H11   H     H_    0.024960 0.939421 0.717059 0.202356
H12   H     H_    0.032687 0.710788 0.947990 0.163189
H13   H     H_    0.974504 0.060336 0.282419 0.203770
H14   H     H_    0.501263 0.531155 0.707384 0.112891
H15   H     H_    0.499011 0.468820 0.292889 0.110336
H16   H     H_    0.001250 0.031155 0.707372 0.113188
H17   H     H_    0.999013 0.968821 0.292891 0.110084
H18   H     H_    0.288043 0.449968 0.225659 0.132366
H19   H     H_    0.711689 0.452390 0.777070 0.136304
H20   H     H_    0.788038 0.952618 0.221381 0.132480
H21   H     H_    0.211639 0.946157 0.765661 0.135604
H22   H     H_    0.211759 0.449601 0.148887 0.136033
H23   H     H_    0.464327 0.211119 0.046817 0.161972
H24   H     H_    0.787968 0.451948 0.853851 0.137603
H25   H     H_    0.711756 0.952274 0.144566 0.136155
H26   H     H_    0.287918 0.945664 0.842329 0.136970
H27   H     H_    0.210807 0.550972 0.275636 0.174898
H28   H     H_    0.789467 0.548946 0.721645 0.174965
H29   H     H_    0.710811 0.048249 0.280034 0.175007
H30   H     H_    0.289519 0.055349 0.733359 0.174758
H31   H     H_    0.598571 0.385225 0.882493 0.380947
H32   H     H_    0.399486 0.613035 0.116024 0.378562
H33   H     H_    0.099039 0.885641 0.882787 0.380885
H34   H     H_    0.535604 0.210805 0.953485 0.163069
H35   H     H_    0.899463 0.113016 0.115991 0.378444
H36   H     H_    0.281218 0.615623 0.427507 0.380751
H37   H     H_    0.719397 0.610915 0.566331 0.381362
H38   H     H_    0.781230 0.109456 0.437483 0.380767
H39   H     H_    0.219518 0.125427 0.592937 0.381557
H40   H     H_    0.460278 0.320759 0.051344 0.336133
H41   H     H_    0.539161 0.320433 0.947917 0.361978
H42   H     H_    0.963559 0.820778 0.057554 0.335816
H43   H     H_    0.035985 0.820413 0.941950 0.362326
H44   H     H_    0.460532 0.711487 0.880942 0.123367
H45   H     H_    0.539614 0.712239 0.118944 0.131922
H46   H     H_    0.961590 0.211487 0.880867 0.123483
H47   H     H_    0.038556 0.212241 0.119017 0.132136
H48   H     H_    0.961560 0.287929 0.880714 0.123814
O1    O     O_R   0.440150 0.534640 0.440170 -0.480571
O2    O     O_R   0.940160 0.499970 0.991730 -0.500113
O3    O     O_R   0.559840 0.999970 0.008270 -0.500185
O4    O     O_R   0.440160 0.999970 0.991730 -0.499739
O5    O     O_R   0.000010 0.559880 0.051460 -0.499301
O6    O     O_R   0.999990 0.559880 0.948540 -0.498575
O7    O     O_R   0.500010 0.059880 0.051460 -0.499125
O8    O     O_R   0.499990 0.059880 0.948540 -0.498624
O9    O     O_R   0.440150 0.465360 0.440130 -0.510847
O10   O     O_R   0.559850 0.465360 0.559870 -0.508797
O11   O     O_R   0.940150 0.965360 0.440130 -0.510173
O12   O     O_R   0.559850 0.534640 0.559830 -0.483097
O13   O     O_R   0.059850 0.965360 0.559870 -0.510319
O14   O     O_R   0.500010 0.534640 0.589030 -0.497068
O15   O     O_R   0.499990 0.534640 0.410970 -0.497983
O16   O     O_R   0.000010 0.034640 0.589030 -0.496361
O17   O     O_R   0.999990 0.034640 0.410970 -0.498417
O18   O     O_R   0.500010 0.465360 0.588990 -0.503885
O19   O     O_R   0.499990 0.465360 0.411010 -0.502589
O20   O     O_R   0.000010 0.965360 0.588990 -0.503647
O21   O     O_R   0.999990 0.965360 0.411010 -0.503152
O22   O     O_R   0.534640 0.440150 0.034560 -0.474295
O23   O     O_R   0.940150 0.034640 0.440170 -0.481617
O24   O     O_R   0.465360 0.440150 0.965440 -0.513429
O25   O     O_R   0.034640 0.940150 0.034560 -0.474384
O26   O     O_R   0.965360 0.940150 0.965440 -0.513325
O27   O     O_R   0.534630 0.500000 0.945560 -0.443175
O28   O     O_R   0.465370 0.500000 0.054440 -0.442159
O29   O     O_R   0.034630 0.000000 0.945560 -0.443005
O30   O     O_R   0.965370 0.000000 0.054440 -0.442079
O31   O     O_R   0.465350 0.500000 0.876310 -0.521819
O32   O     O_R   0.534650 0.500000 0.123690 -0.521962
O33   O     O_R   0.965350 0.000000 0.876310 -0.521614
O34   O     O_R   0.059850 0.034640 0.559830 -0.480533
O35   O     O_R   0.034650 0.000000 0.123690 -0.522558
O36   O     O_R   0.534640 0.559850 0.034640 -0.515947
O37   O     O_R   0.465360 0.559850 0.965360 -0.475272
O38   O     O_R   0.034640 0.059850 0.034640 -0.515873
O39   O     O_R   0.965360 0.059850 0.965360 -0.475180
O40   O     O_R   0.000000 0.440190 0.051560 -0.500211
O41   O     O_R   0.000000 0.440190 0.948440 -0.500970
O42   O     O_R   0.500000 0.940190 0.051560 -0.500089
O43   O     O_R   0.500000 0.940190 0.948440 -0.501158
O44   O     O_2   0.595664 0.460763 0.936951 -0.247263
O45   O     O_R   0.059850 0.500040 0.111340 -0.498617
O46   O     O_2   0.540281 0.411151 0.905263 -0.290880
O47   O     O_3   0.578770 0.403273 0.840651 -0.521408
O48   O     O_2   0.458241 0.588253 0.093311 -0.283777
O49   O     O_2   0.403730 0.537757 0.062849 -0.247377
O50   O     O_3   0.419884 0.595545 0.158265 -0.519970
O51   O     O_2   0.095692 0.960835 0.936917 -0.247360
O52   O     O_2   0.040358 0.911189 0.905364 -0.290547
O53   O     O_3   0.078805 0.903304 0.840681 -0.520975
O54   O     O_2   0.958216 0.088241 0.093280 -0.283843
O55   O     O_2   0.903718 0.037732 0.062840 -0.247560
O56   O     O_R   0.940150 0.500040 0.888660 -0.498463
O57   O     O_3   0.919860 0.095528 0.158236 -0.520517
O58   O     O_2   0.324843 0.543792 0.454007 -0.269437
O59   O     O_2   0.324636 0.593117 0.369209 -0.256296
O60   O     O_3   0.263862 0.596248 0.385835 -0.521863
O61   O     O_2   0.675425 0.539741 0.543725 -0.267607
O62   O     O_2   0.675822 0.591822 0.625674 -0.259010
O63   O     O_3   0.736650 0.592366 0.609066 -0.521741
O64   O     O_2   0.824839 0.038439 0.457643 -0.269453
O65   O     O_2   0.824653 0.091157 0.377410 -0.256823
O66   O     O_3   0.763872 0.091106 0.394147 -0.521695
O67   O     O_R   0.559850 0.000040 0.111340 -0.498513
O68   O     O_2   0.175487 0.052820 0.554192 -0.266819
O69   O     O_2   0.175906 0.095949 0.646738 -0.258491
O70   O     O_3   0.236751 0.104445 0.631196 -0.521767
O71   O     O_3   0.458792 0.290269 0.053658 -0.678716
O72   O     O_3   0.540890 0.289928 0.946091 -0.663963
O73   O     O_3   0.962186 0.790289 0.060072 -0.679307
O74   O     O_3   0.037548 0.789908 0.939801 -0.663576
O75   O     O_R   0.440150 0.000040 0.888660 -0.498696
O76   O     O_R   0.059840 0.499970 0.008270 -0.500003
S1    S     S_3+6 0.560285 0.435885 0.875465 0.037992
S2    S     S_3+6 0.438766 0.563221 0.123773 0.037578
S3    S     S_3+6 0.060321 0.935921 0.875489 0.038451
S4    S     S_3+6 0.938748 0.063206 0.123754 0.037289
S5    S     S_3+6 0.297849 0.566288 0.382022 0.023026
S6    S     S_3+6 0.702503 0.563699 0.614435 0.022821
S7    S     S_3+6 0.797856 0.062745 0.387754 0.022822
S8    S     S_3+6 0.202573 0.072029 0.629698 0.023390

loop_
_geom_bond_atom_site_label_1
_geom_bond_atom_site_label_2
_ccdc_geom_bond_type
Cu6   O19   S    
Cu8   O32   S    
Cu2   O56   S    
H33   O53   S    
C78   O71   S    
C57   O18   A    
Cu11  O33   S    
C24   C99   A    
C21   H27   S    
C107  C112  S    
C14   C18   A    
C35   C39   T    
C61   O40   A    
O60   S5    S    
C4    C8    D    
Cu8   Cu9   S    
C34   C47   T    
C55   O34   A    
C56   O38   A    
C15   C28   A    
C43   C63   S    
Cu3   Cu4   S    
O53   S3    S    
C54   O36   A    
H39   O70   S    
C106  C108  A    
C54   O37   A    
C33   O12   A    
C90   C118  D    
Cu1   O1    S    
C71   H12   S    
H37   O63   S    
C15   H25   S    
Cu7   O13   S    
C44   O11   A    
Cu2   O76   S    
C42   C55   S    
O48   S2    D    
C75   C84   S    
Cu2   O6    S    
C20   C25   A    
C101  C109  S    
O65   S7    D    
C48   O22   A    
C58   O15   A    
Cu11  O39   S    
C9    C58   S    
O57   S4    S    
Cu2   Cu12  S    
Cu6   O10   S    
C24   C29   A    
C62   C117  S    
C72   C78   A    
C109  C116  T    
Cu12  O2    S    
C15   C19   A    
Cu9   O24   S    
C51   O32   A    
C11   H17   S    
O50   S2    S    
O68   S8    D    
O55   S4    D    
Cu1   O12   S    
O52   S3    D    
C12   C17   A    
C70   C74   A    
C70   H1    S    
C24   C38   S    
C23   H29   S    
C13   C28   A    
Cu11  O26   S    
C2    C27   A    
C71   C74   A    
O63   S6    S    
C14   C27   A    
Cu9   O31   S    
C66   S5    S    
C69   O7    A    
C13   C37   S    
C56   C115  S    
C97   C105  A    
C50   O27   A    
Cu6   O18   S    
C65   O67   A    
Cu5   O17   S    
C53   O35   A    
C72   H23   S    
C18   C22   A    
C96   C101  A    
Cu7   O20   S    
Cu3   O7    S    
C17   C30   S    
C73   C75   A    
Cu10  O38   S    
C102  C111  S    
C104  C107  A    
Cu9   O37   S    
C97   H2    S    
C105  H47   S    
Cu4   O75   S    
H31   O47   S    
C19   C32   S    
O46   S1    D    
C47   C67   S    
C105  C108  A    
C25   C99   A    
C7    C11   D    
C4    C90   S    
C85   C87   T    
H41   O72   S    
C7    C93   S    
Cu3   O42   S    
C58   O19   A    
C98   C104  A    
C33   C40   S    
C77   S6    S    
O54   S4    D    
Cu11  O30   S    
C16   H26   S    
C74   C83   S    
C26   H18   S    
C26   C110  A    
C106  H46   S    
Cu4   O3    S    
H36   O60   S    
C80   O73   S    
C12   H22   S    
C4    H9    S    
Cu4   O8    S    
Cu9   O28   S    
C1    O1    A    
C51   O28   A    
C53   O30   A    
C63   O45   A    
Cu5   O16   S    
C16   C29   A    
C82   C86   S    
C83   C94   T    
O51   S3    D    
C98   H3    S    
Cu2   O41   S    
C100  C103  A    
Cu7   O11   S    
C71   C79   A    
C12   C26   A    
C33   O10   A    
C103  H45   S    
C84   C95   T    
C108  C113  S    
C76   C81   A    
Cu6   O9    S    
C19   C23   A    
C17   C21   A    
C5    C9    D    
Cu3   O4    S    
C8    C57   S    
C44   O23   A    
C93   S4    S    
Cu7   O21   S    
Cu5   O34   S    
H42   O73   S    
C51   C119  S    
C63   O76   A    
Cu4   O43   S    
C36   C40   T    
C59   O20   A    
C16   C20   A    
C97   C101  A    
C61   C116  S    
C100  C102  A    
O62   S6    D    
C48   C87   S    
Cu10  O35   S    
C3    C93   D    
C120  H7    S    
Cu8   O22   S    
C62   O43   A    
C96   H48   S    
Cu5   Cu7   S    
C104  H44   S    
C69   O8    A    
O70   S8    S    
O64   S7    D    
C5    C91   S    
C35   C110  S    
C60   O17   A    
C46   C65   S    
C112  C114  T    
C52   C120  S    
C80   C82   A    
H38   O66   S    
Cu8   O27   S    
Cu8   O36   S    
C99   S8    S    
C28   H20   S    
O61   S6    D    
C61   O41   A    
C76   O72   S    
C52   O29   A    
C73   C76   A    
C91   C119  D    
C30   C43   T    
C1    C39   S    
C11   C60   S    
C118  H5    S    
Cu1   O14   S    
C92   S3    S    
H43   O74   S    
C29   H21   S    
C65   O3    A    
C2    C36   S    
C96   C106  A    
Cu5   O23   S    
H32   O50   S    
C27   H19   S    
C45   C64   S    
C55   O13   A    
C50   C118  S    
C119  H6    S    
C32   C46   T    
C8    H14   S    
C22   C77   A    
C49   C89   S    
C14   H24   S    
C69   C95   S    
C86   C89   T    
Cu12  O5    S    
C68   O5    A    
C79   C82   A    
Cu10  O29   S    
C64   O56   A    
C3    H8    S    
C67   O75   A    
C59   O16   A    
C48   O24   A    
H40   O71   S    
C21   C66   A    
C111  C117  T    
C57   O14   A    
C23   C88   A    
C113  C115  T    
C10   C59   S    
C92   C120  D    
C64   O2    A    
Cu1   Cu6   S    
C91   S2    S    
C98   C102  A    
Cu12  O45   S    
O49   S2    D    
Cu3   O67   S    
C3    C53   S    
C78   C81   A    
C72   C75   A    
C5    H10   S    
C70   C80   A    
C22   H28   S    
C6    C92   S    
C54   C114  S    
C13   C88   A    
C52   O33   A    
C41   C44   S    
C79   O74   S    
C9    H15   S    
C50   O31   A    
Cu10  Cu11  S    
O47   S1    S    
C62   O42   A    
O69   S8    D    
C37   C41   T    
C67   O4    A    
C73   H34   S    
C68   C94   S    
C25   H30   S    
C6    C10   D    
C49   O25   A    
C68   O6    A    
C20   C34   S    
C38   C42   T    
C60   O21   A    
H35   O57   S    
C49   O26   A    
C66   C110  A    
C31   C45   T    
Cu10  O25   S    
C2    C77   A    
O59   S5    D    
O58   S5    D    
C103  C107  A    
C18   C31   S    
Cu12  O40   S    
C6    H11   S    
C90   S1    S    
Cu1   O15   S    
C56   O39   A    
C81   C85   S    
O66   S7    S    
C100  H4    S    
C88   S7    S    
C10   H16   S    
O44   S1    D    
C7    H13   S    
C1    O9    A    
