data_mof_unit_21218.cif
_audit_creation_date              2013-03-05T15:39:44-0500
_audit_creation_method            fapswitch 2.2
_symmetry_space_group_name_H-M    P1
_symmetry_Int_Tables_number       1
_space_group_crystal_system       triclinic
_cell_length_a                    19.547626
_cell_length_b                    17.176263
_cell_length_c                    15.52238
_cell_angle_alpha                 90.040871
_cell_angle_beta                  52.941343
_cell_angle_gamma                 89.990768
_cell_volume                      4159.04868404

loop_
_atom_site_label
_atom_site_type_symbol
_atom_site_description
_atom_site_fract_x
_atom_site_fract_y
_atom_site_fract_z
_atom_type_partial_charge
C1    C     C_R   0.339014 0.175567 0.047254 -0.023565
C2    C     C_R   0.661588 0.825060 0.951554 -0.026826
C3    C     C_R   0.659918 0.176752 0.954128 -0.038351
C4    C     C_R   0.376271 0.802273 0.990671 -0.051875
C5    C     C_R   0.875699 0.697387 0.990996 -0.059909
C6    C     C_R   0.122743 0.302064 0.010401 -0.052834
C7    C     C_R   0.162247 0.674069 0.951022 -0.030846
C8    C     C_R   0.875966 0.302658 0.990560 -0.064210
H1    H     H_    0.330405 0.225224 0.094734 0.184884
H2    H     H_    0.673046 0.778295 0.899042 0.186937
H3    H     H_    0.668879 0.225424 0.905037 0.182659
H4    H     H_    0.385448 0.748104 0.015942 0.227852
H5    H     H_    0.884763 0.751914 0.015831 0.225986
H6    H     H_    0.111800 0.247855 0.987014 0.219875
H7    H     H_    0.173097 0.722171 0.900680 0.189279
H8    H     H_    0.885664 0.248098 0.014523 0.217629
N1    N     N_R   0.408680 0.130810 0.995780 -0.054791
N2    N     N_R   0.591320 0.869190 0.004220 -0.049741
N3    N     N_R   0.591320 0.130810 0.004220 -0.055284
N4    N     N_R   0.408680 0.869190 0.995780 -0.069539
N5    N     N_R   0.908680 0.630810 0.995780 -0.069578
N6    N     N_R   0.091320 0.369190 0.004220 -0.070545
N7    N     N_R   0.091320 0.630810 0.004220 -0.049924
N8    N     N_R   0.908680 0.369190 0.995780 -0.068827
C9    C     C_R   0.350244 0.825908 0.222038 0.315852
C10   C     C_R   0.612348 0.195779 0.784097 0.320357
C11   C     C_R   0.606423 0.802112 0.787644 0.296147
C12   C     C_R   0.390116 0.197109 0.214093 0.314072
C13   C     C_R   0.854691 0.321735 0.221426 0.305921
C14   C     C_R   0.106687 0.698143 0.787941 0.296331
C15   C     C_R   0.149231 0.325434 0.778290 0.308024
C16   C     C_R   0.852088 0.676100 0.221867 0.317832
N9    N     N_R   0.421410 0.867210 0.153620 -0.083114
N10   N     N_R   0.578590 0.132790 0.846380 -0.094739
N11   N     N_R   0.578590 0.867210 0.846380 -0.093710
N12   N     N_R   0.421410 0.132790 0.153620 -0.094124
N13   N     N_R   0.921410 0.367210 0.153620 -0.089590
N14   N     N_R   0.078590 0.632790 0.846380 -0.093467
N15   N     N_R   0.078590 0.367210 0.846380 -0.087883
N16   N     N_R   0.921410 0.632790 0.153620 -0.082985
C17   C     C_R   0.370251 0.888054 0.891061 -0.047341
C18   C     C_R   0.669110 0.090587 0.052542 -0.067113
C19   C     C_R   0.669555 0.910055 0.051824 -0.060309
C20   C     C_R   0.327309 0.084694 0.955203 -0.048835
C21   C     C_R   0.868978 0.389352 0.892266 -0.020982
C22   C     C_R   0.172815 0.584293 0.044714 -0.046223
C23   C     C_R   0.129727 0.388247 0.108967 -0.041530
C24   C     C_R   0.869159 0.610890 0.892106 -0.026183
H9    H     H_    0.372132 0.914420 0.826552 0.159620
H10   H     H_    0.686687 0.061441 0.097644 0.164438
H11   H     H_    0.686936 0.939121 0.097224 0.164687
H12   H     H_    0.305252 0.046619 0.921284 0.170466
H13   H     H_    0.870033 0.416678 0.828900 0.161619
H14   H     H_    0.194493 0.546445 0.079260 0.169757
H15   H     H_    0.128087 0.414961 0.173150 0.162376
H16   H     H_    0.870484 0.583963 0.828244 0.159734
N17   N     N_R   0.403840 0.921910 0.935760 -0.073029
N18   N     N_R   0.596160 0.078090 0.064240 -0.067308
N19   N     N_R   0.596160 0.921910 0.064240 -0.066610
N20   N     N_R   0.403840 0.078090 0.935760 -0.069229
N21   N     N_R   0.903840 0.421910 0.935760 -0.069205
N22   N     N_R   0.096160 0.578090 0.064240 -0.066996
N23   N     N_R   0.096160 0.421910 0.064240 -0.072125
N24   N     N_R   0.903840 0.578090 0.935760 -0.070381
C25   C     C_R   0.396211 0.104304 0.309994 -0.178337
C26   C     C_R   0.601945 0.895655 0.690965 -0.167741
C27   C     C_R   0.608052 0.100918 0.687944 -0.152563
C28   C     C_R   0.357840 0.919492 0.316315 -0.163439
C29   C     C_R   0.862746 0.586434 0.317404 -0.169110
C30   C     C_R   0.142258 0.419557 0.683909 -0.160320
C31   C     C_R   0.100966 0.605605 0.691522 -0.193358
C32   C     C_R   0.864845 0.411891 0.317439 -0.170186
H17   H     H_    0.401658 0.076114 0.367841 0.121590
H18   H     H_    0.598429 0.925475 0.632439 0.121395
H19   H     H_    0.605835 0.070553 0.628649 0.118667
H20   H     H_    0.347436 0.953768 0.381527 0.127987
H21   H     H_    0.858074 0.559997 0.383553 0.124174
H22   H     H_    0.152828 0.454140 0.618859 0.127845
H23   H     H_    0.095522 0.577165 0.633763 0.126811
H24   H     H_    0.861353 0.437809 0.383120 0.124379
N25   N     N_R   0.426250 0.076100 0.213650 -0.059959
N26   N     N_R   0.573750 0.923900 0.786350 -0.060446
N27   N     N_R   0.573750 0.076100 0.786350 -0.060669
N28   N     N_R   0.426250 0.923900 0.213650 -0.062252
N29   N     N_R   0.926250 0.576100 0.213650 -0.059061
N30   N     N_R   0.073750 0.423900 0.786350 -0.062393
N31   N     N_R   0.073750 0.576100 0.786350 -0.060407
N32   N     N_R   0.926250 0.423900 0.213650 -0.060548
C33   C     C_R   0.283732 0.146468 0.026966 -0.016336
C34   C     C_R   0.714887 0.851207 0.976075 -0.013564
C35   C     C_R   0.713652 0.150204 0.978000 -0.007997
C36   C     C_R   0.352838 0.810984 0.923250 -0.029101
C37   C     C_R   0.851664 0.687797 0.924244 -0.043863
C38   C     C_R   0.146720 0.311068 0.077295 -0.024670
C39   C     C_R   0.217048 0.645344 0.972095 -0.018441
C40   C     C_R   0.851571 0.312445 0.924131 -0.039766
C41   C     C_R   0.308846 0.858446 0.323858 -0.073094
C42   C     C_R   0.632277 0.175669 0.685478 -0.065330
C43   C     C_R   0.622735 0.819476 0.690034 -0.063691
C44   C     C_R   0.372244 0.179533 0.312332 -0.066079
C45   C     C_R   0.816711 0.350989 0.323767 -0.079361
C46   C     C_R   0.122855 0.681659 0.690174 -0.053276
C47   C     C_R   0.190795 0.358061 0.676460 -0.076983
C48   C     C_R   0.813180 0.646124 0.323967 -0.083650
Ni1   Ni    Ni4+2 0.500000 0.131570 0.000000 0.328111
Ni2   Ni    Ni4+2 0.500000 0.868430 0.000000 0.321908
Ni3   Ni    Ni4+2 0.000000 0.631570 0.000000 0.320962
Ni4   Ni    Ni4+2 0.000000 0.368430 0.000000 0.301250
Ni5   Ni    Ni4+2 0.488900 1.000000 0.862310 0.210879
Ni6   Ni    Ni4+2 0.511100 0.000000 0.137690 0.219555
Ni7   Ni    Ni4+2 0.988900 0.500000 0.862310 0.206770
Ni8   Ni    Ni4+2 0.011100 0.500000 0.137690 0.219672
C49   C     C_3   0.304292 0.203099 0.515829 -0.083218
C50   C     C_3   0.694601 0.798990 0.485079 -0.084910
C51   C     C_3   0.702852 0.196725 0.481578 -0.077032
C52   C     C_3   0.217432 0.845770 0.536184 -0.077364
C53   C     C_3   0.720690 0.657922 0.534808 -0.084941
C54   C     C_3   0.279548 0.344244 0.464577 -0.082101
C55   C     C_3   0.192995 0.704240 0.485510 -0.089266
C56   C     C_3   0.727815 0.337460 0.533824 -0.090044
C57   C     C_3   0.631794 0.693133 0.581266 -0.101047
C58   C     C_3   0.368171 0.307214 0.415841 -0.131191
C59   C     C_3   0.280745 0.740502 0.439353 -0.138075
C60   C     C_3   0.639271 0.301591 0.580692 -0.125855
C61   C     C_3   0.216464 0.239704 0.563104 -0.124507
C62   C     C_3   0.782796 0.764200 0.439879 -0.125662
C63   C     C_3   0.790820 0.232226 0.435867 -0.115235
C64   C     C_3   0.128860 0.809070 0.583758 -0.089246
H25   H     H_    0.568571 0.665884 0.642068 0.186967
H26   H     H_    0.431538 0.333146 0.352544 0.160181
H27   H     H_    0.343968 0.712858 0.379181 0.170987
H28   H     H_    0.575871 0.327923 0.643245 0.170456
H29   H     H_    0.153264 0.212552 0.624474 0.184637
H30   H     H_    0.845703 0.792512 0.380447 0.175208
H31   H     H_    0.854045 0.204916 0.374724 0.182994
H32   H     H_    0.065360 0.835561 0.645475 0.194746
H33   H     H_    0.314303 0.144614 0.536871 0.151910
H34   H     H_    0.683754 0.857360 0.464705 0.151678
H35   H     H_    0.692336 0.138380 0.460702 0.150936
H36   H     H_    0.227501 0.904640 0.556256 0.161083
H37   H     H_    0.731347 0.599148 0.554423 0.154827
H38   H     H_    0.269407 0.402952 0.444231 0.155125
H39   H     H_    0.183092 0.645652 0.464550 0.153482
H40   H     H_    0.737975 0.396082 0.554443 0.154120
C65   C     C_3   0.662603 0.769902 0.596950 0.129755
C66   C     C_3   0.334335 0.230674 0.404227 0.126011
C67   C     C_3   0.249114 0.817209 0.424216 0.123261
C68   C     C_3   0.671843 0.224847 0.593310 0.117622
C69   C     C_3   0.249242 0.316458 0.576300 0.130467
C70   C     C_3   0.753093 0.687232 0.423002 0.124340
C71   C     C_3   0.759228 0.309102 0.421877 0.131146
C72   C     C_3   0.161581 0.732599 0.597523 0.125006
C73   C     C_3   0.336787 0.280633 0.529905 -0.119172
C74   C     C_3   0.665272 0.721109 0.467004 -0.118694
C75   C     C_3   0.671677 0.274612 0.466463 -0.126373
C76   C     C_3   0.248955 0.768519 0.551616 -0.117399
C77   C     C_3   0.750342 0.735497 0.552088 -0.109935
C78   C     C_3   0.246954 0.266913 0.451111 -0.100846
C79   C     C_3   0.161651 0.781693 0.469394 -0.107471
C80   C     C_3   0.759189 0.259884 0.548304 -0.106104
H41   H     H_    0.372410 0.287841 0.564256 0.155378
H42   H     H_    0.631855 0.713507 0.429803 0.168178
H43   H     H_    0.637478 0.282538 0.430328 0.154500
H44   H     H_    0.284142 0.762181 0.586713 0.193213
H45   H     H_    0.784310 0.742318 0.588735 0.194552
H46   H     H_    0.210813 0.260187 0.417353 0.198981
H47   H     H_    0.126926 0.788618 0.433816 0.172332
H48   H     H_    0.793853 0.252640 0.583954 0.202135
C81   C     C_2   0.301882 0.677774 0.931917 0.177543
C82   C     C_2   0.824730 0.250469 0.883854 0.197317
C83   C     C_2   0.825343 0.749755 0.883390 0.184577
C84   C     C_2   0.173639 0.248817 0.117674 0.191844
C85   C     C_2   0.799452 0.180957 0.935094 0.166172
C86   C     C_2   0.326517 0.748409 0.882414 0.181505
C87   C     C_2   0.198710 0.178456 0.067557 0.175659
C88   C     C_2   0.800463 0.819862 0.933661 0.172586
N33   N     N_R   0.337471 0.748129 0.201842 0.214336
O1    O     O_R   0.400321 0.698429 0.157148 -0.317417
O2    O     O_R   0.261293 0.724429 0.238046 -0.401149
N34   N     N_R   0.591139 0.273281 0.825810 0.235129
O3    O     O_R   0.511173 0.294658 0.885908 -0.336352
O4    O     O_R   0.650413 0.326369 0.783057 -0.332608
N35   N     N_R   0.593465 0.725739 0.832774 0.243347
O5    O     O_R   0.543229 0.716321 0.936854 -0.344639
O6    O     O_R   0.633232 0.665480 0.771527 -0.331121
N36   N     N_R   0.407928 0.273821 0.169717 0.229040
O7    O     O_R   0.482190 0.288896 0.079417 -0.342822
O8    O     O_R   0.354225 0.330458 0.223717 -0.341356
N37   N     N_R   0.846659 0.243518 0.197266 0.214358
O9    O     O_R   0.914489 0.199852 0.138945 -0.310256
O10   O     O_R   0.771608 0.214330 0.237449 -0.406786
N38   N     N_R   0.093888 0.774307 0.833656 0.244124
O11   O     O_R   0.043078 0.783556 0.937758 -0.337886
O12   O     O_R   0.133967 0.834605 0.772884 -0.322951
N39   N     N_R   0.160507 0.247291 0.799088 0.213735
O13   O     O_R   0.095222 0.200248 0.851003 -0.308632
O14   O     O_R   0.236480 0.221307 0.760495 -0.401169
N40   N     N_R   0.840284 0.753618 0.199848 0.214618
O15   O     O_R   0.903460 0.802856 0.155237 -0.304621
O16   O     O_R   0.764338 0.777953 0.235815 -0.409358
N41   N     N_R   0.354993 0.636692 0.952270 0.235781
O17   O     O_R   0.322316 0.603899 0.045038 -0.312194
O18   O     O_R   0.437366 0.632971 0.877254 -0.334992
N42   N     N_R   0.817328 0.266347 0.798543 0.227090
O19   O     O_R   0.794060 0.334530 0.788360 -0.365559
O20   O     O_R   0.832376 0.211263 0.731480 -0.400223
N43   N     N_R   0.817760 0.732815 0.798492 0.219485
O21   O     O_R   0.836582 0.786160 0.727773 -0.418695
O22   O     O_R   0.788232 0.666213 0.794235 -0.373410
N44   N     N_R   0.182579 0.266103 0.201380 0.223859
O23   O     O_R   0.210312 0.333531 0.206332 -0.363825
O24   O     O_R   0.166353 0.212499 0.270642 -0.403353
N45   N     N_R   0.855803 0.137449 0.948066 0.244848
O25   O     O_R   0.826607 0.099829 0.036677 -0.298959
O26   O     O_R   0.937947 0.137244 0.870966 -0.303678
N46   N     N_R   0.318828 0.765429 0.797625 0.218854
O27   O     O_R   0.289486 0.832170 0.793434 -0.371045
O28   O     O_R   0.337166 0.712003 0.727096 -0.428067
N47   N     N_R   0.145628 0.137030 0.047401 0.236538
O29   O     O_R   0.178226 0.104687 0.954312 -0.311592
O30   O     O_R   0.063256 0.133275 0.122492 -0.311387
N48   N     N_R   0.856129 0.862719 0.948332 0.244682
O31   O     O_R   0.938198 0.864265 0.871113 -0.325490
O32   O     O_R   0.826295 0.899046 0.038124 -0.294602

loop_
_geom_bond_atom_site_label_1
_geom_bond_atom_site_label_2
_geom_bond_distance
_ccdc_geom_bond_type
N16   N29   1.390278 A    
N25   Ni6   1.868106 S    
C27   N27   1.315719 A    
N8    N21   1.343255 A    
N39   O14   1.300266 A    
C2    N2    1.332274 A    
C55   H39   1.109738 S    
N41   O17   1.300567 A    
N13   N32   1.389367 A    
C29   H21   1.075405 S    
C8    C40   1.382664 A    
N29   Ni8   1.868106 S    
C67   C79   1.530641 S    
C55   C59   1.537291 S    
C18   N18   1.341871 A    
C31   H23   1.080810 S    
N41   O18   1.301062 A    
C51   C63   1.537072 S    
N45   O25   1.300140 A    
C80   H48   1.110331 S    
C60   C68   1.526997 S    
C11   C43   1.380094 A    
C88   N48   1.441009 S    
C22   N22   1.342090 A    
C58   H26   1.109965 S    
N46   O28   1.301769 A    
C12   N36   1.429758 S    
N35   O6    1.298840 A    
C23   N23   1.340298 A    
C50   C62   1.537108 S    
C9    N33   1.428012 S    
C24   N24   1.338005 A    
C30   H22   1.079150 S    
C32   C45   1.370509 A    
C6    N6    1.336722 A    
C34   C88   1.481019 S    
N14   Ni3   1.905637 S    
N19   Ni6   1.890994 S    
C25   H17   1.080693 S    
C35   C85   1.479866 S    
C3    C35   1.384819 A    
C18   C35   1.390401 A    
C54   C58   1.548340 S    
C48   C70   1.436405 S    
N23   Ni8   1.890994 S    
C2    C34   1.381995 A    
C53   C57   1.547288 S    
C28   C41   1.376862 A    
N5    N24   1.342379 A    
C16   N40   1.427747 S    
N20   Ni5   1.890994 S    
C27   C42   1.361114 A    
C38   C84   1.487040 S    
N6    N23   1.342377 A    
C64   C72   1.531289 S    
N7    N22   1.343253 A    
N17   Ni5   1.892528 S    
C22   C39   1.394686 A    
C72   C76   1.529600 S    
C44   C66   1.442031 S    
N33   O2    1.300332 A    
C56   H40   1.109934 S    
C81   C86   1.360095 D    
C16   C48   1.379763 A    
C3    N3    1.330378 A    
C53   C70   1.530692 S    
N8    Ni4   1.825359 S    
C71   C75   1.527163 S    
C4    H4    1.066301 S    
C57   H25   1.110022 S    
C5    H5    1.067265 S    
C7    N7    1.333245 A    
C84   C87   1.358258 D    
C19   N19   1.342967 A    
C63   C71   1.527698 S    
C12   C44   1.377347 A    
N22   Ni8   1.892526 S    
C58   C66   1.530347 S    
C43   C65   1.435597 S    
C21   H13   1.079064 S    
C14   N38   1.436031 S    
C8    H8    1.066743 S    
C40   C82   1.481187 S    
C41   C67   1.449590 S    
C14   C46   1.379985 A    
C1    N1    1.330892 A    
C87   N47   1.439461 S    
C62   H30   1.110495 S    
C17   H9    1.079528 S    
C32   N32   1.322358 A    
N11   N26   1.390281 A    
C10   N10   1.331706 A    
N4    Ni2   1.825359 S    
C59   C76   1.532296 S    
N45   O26   1.301718 A    
N3    N18   1.343253 A    
N15   Ni4   1.905594 S    
C19   C34   1.389850 A    
C24   C37   1.379874 A    
C53   C77   1.539627 S    
N43   O21   1.301796 A    
C28   N28   1.328635 A    
N26   Ni5   1.868106 S    
C1    H1    1.071692 S    
N46   O27   1.300848 A    
C50   C65   1.532480 S    
N13   Ni4   1.905637 S    
C57   C74   1.551538 S    
C77   H45   1.110591 S    
N47   O29   1.300612 A    
C30   C47   1.377134 A    
N24   Ni7   1.890994 S    
C49   C73   1.546591 S    
C7    H7    1.067445 S    
C11   N11   1.333416 A    
C59   H27   1.110463 S    
C51   C68   1.529818 S    
C45   C71   1.427870 S    
C69   C73   1.529534 S    
N28   Ni6   1.869657 S    
C73   H41   1.109936 S    
N38   O12   1.298924 A    
C26   C43   1.367547 A    
C15   C47   1.387877 A    
C54   C69   1.532713 S    
C53   H37   1.109996 S    
N35   O5    1.299546 A    
N2    Ni2   1.825360 S    
N1    Ni1   1.825362 S    
C26   N26   1.321619 A    
C26   H18   1.080877 S    
C65   C77   1.528155 S    
C25   N25   1.325315 A    
C15   N15   1.333532 A    
N12   N25   1.390278 A    
N7    Ni3   1.825357 S    
C22   H14   1.078902 S    
N27   Ni5   1.869657 S    
C13   C45   1.380044 A    
N5    Ni3   1.825362 S    
C61   C78   1.532355 S    
C20   N20   1.340775 A    
N48   O32   1.300396 A    
C39   C81   1.484414 S    
C76   H44   1.110586 S    
N40   O15   1.300129 A    
C61   C69   1.532527 S    
C10   C42   1.376550 A    
N16   Ni3   1.905595 S    
C31   N31   1.328092 A    
N32   Ni8   1.869659 S    
N3    Ni1   1.825357 S    
C9    C41   1.386442 A    
C31   C46   1.370931 A    
N42   O20   1.301847 A    
N44   O23   1.300546 A    
N44   O24   1.301803 A    
C52   C64   1.549293 S    
C85   N45   1.442112 S    
C58   C73   1.552968 S    
C57   C65   1.528779 S    
C54   C78   1.540872 S    
C27   H19   1.080936 S    
N10   N27   1.389370 A    
C33   C87   1.482615 S    
C83   N43   1.441590 S    
C30   N30   1.326910 A    
C16   N16   1.334261 A    
C29   N29   1.325200 A    
N34   O3    1.300112 A    
C78   H46   1.110480 S    
C23   H15   1.079335 S    
C46   C72   1.448021 S    
C29   C48   1.371435 A    
C61   H29   1.110660 S    
C55   C72   1.532726 S    
C24   H16   1.079644 S    
C37   C83   1.481037 S    
C56   C71   1.531821 S    
C1    C33   1.388116 A    
N34   O4    1.299562 A    
C18   H10   1.071983 S    
C51   C75   1.545537 S    
N12   Ni1   1.905595 S    
N18   Ni6   1.892526 S    
N10   Ni1   1.905637 S    
C82   N42   1.442333 S    
C74   H42   1.109853 S    
C55   C79   1.546860 S    
N9    Ni2   1.905637 S    
C25   C44   1.367372 A    
C59   C67   1.532534 S    
C54   H38   1.109824 S    
C86   N46   1.441954 S    
C20   H12   1.078901 S    
C52   C67   1.531751 S    
C5    C37   1.381299 A    
C66   C78   1.528212 S    
C10   N34   1.427675 S    
C28   H20   1.078702 S    
C68   C80   1.526013 S    
C7    C39   1.385769 A    
C83   C88   1.355190 D    
C84   N44   1.442250 S    
N15   N30   1.390280 A    
N14   N31   1.389371 A    
C49   H33   1.109752 S    
C36   C86   1.487951 S    
N38   O11   1.299255 A    
C62   C77   1.532565 S    
C64   H32   1.109741 S    
N30   Ni7   1.868107 S    
N36   O7    1.298934 A    
C17   N17   1.341373 A    
C6    H6    1.066632 S    
C32   H24   1.075988 S    
N11   Ni2   1.905594 S    
C56   C80   1.538960 S    
N31   Ni7   1.869655 S    
C15   N39   1.428494 S    
C62   C70   1.528591 S    
C6    C38   1.381337 A    
C42   C68   1.423653 S    
C60   H28   1.110012 S    
N21   Ni7   1.892528 S    
N6    Ni4   1.825360 S    
C19   H11   1.072121 S    
C63   C80   1.533668 S    
C49   C61   1.536836 S    
C21   N21   1.336806 A    
C8    N8    1.335661 A    
C23   C38   1.382565 A    
C79   H47   1.109850 S    
C13   N37   1.428464 S    
N47   O30   1.301348 A    
C50   H34   1.109667 S    
N37   O9    1.300803 A    
C63   H31   1.110716 S    
N9    N28   1.389368 A    
C11   N35   1.436417 S    
C52   C76   1.541371 S    
C49   C66   1.531425 S    
C3    H3    1.072529 S    
C47   C69   1.445815 S    
N1    N20   1.342379 A    
C81   N41   1.439077 S    
N39   O13   1.301025 A    
C4    N4    1.337682 A    
N2    N19   1.342377 A    
C17   C36   1.383473 A    
C5    N5    1.336570 A    
N42   O19   1.300053 A    
C12   N12   1.334945 A    
C75   H43   1.109982 S    
N33   O1    1.300365 A    
C70   C74   1.529063 S    
C60   C75   1.550781 S    
C13   N13   1.328858 A    
N43   O22   1.300862 A    
N40   O16   1.300320 A    
C14   N14   1.336305 A    
C52   H36   1.109875 S    
N4    N17   1.343255 A    
C51   H35   1.109707 S    
C21   C40   1.379728 A    
N36   O8    1.299597 A    
N48   O31   1.301352 A    
C50   C74   1.546100 S    
C20   C33   1.395220 A    
C56   C60   1.545280 S    
C64   C79   1.552614 S    
C9    N9    1.336829 A    
N37   O10   1.300185 A    
C4    C36   1.380365 A    
C82   C85   1.352847 D    
C2    H2    1.067115 S    
