data_mof_unit_47403.cif
_audit_creation_date              2012-10-26T19:08:22-0400
_audit_creation_method            fapswitch 2.2
_symmetry_space_group_name_H-M    P1
_symmetry_Int_Tables_number       1
_space_group_crystal_system       triclinic
_cell_length_a                    14.668068
_cell_length_b                    14.985567
_cell_length_c                    19.4084
_cell_angle_alpha                 75.332952
_cell_angle_beta                  103.810091
_cell_angle_gamma                 115.387456
_cell_volume                      3686.99645826

loop_
_atom_site_label
_atom_site_type_symbol
_atom_type_description
_atom_site_fract_x
_atom_site_fract_y
_atom_site_fract_z
_atom_type_partial_charge
C1    C     C_R   0.879837 0.312780 0.510025 0.628246
C2    C     C_R   0.298352 0.824568 0.509099 0.056091
C3    C     C_R   0.639062 0.084969 0.533948 -0.051246
C4    C     C_R   0.360796 0.927962 0.508776 -0.043542
C5    C     C_R   0.677787 0.020819 0.589254 0.004303
C6    C     C_R   0.320103 0.000717 0.471050 0.018173
C7    C     C_R   0.531998 0.059955 0.518800 0.000669
C8    C     C_R   0.465024 0.961698 0.541581 -0.015926
C9    C     C_R   0.503063 0.902872 0.599256 -0.095201
C10   C     C_R   0.489644 0.132156 0.488642 -0.065585
C11   C     C_R   0.607469 0.929190 0.621853 0.265540
C12   C     C_R   0.121075 0.687483 0.488838 0.607344
C13   C     C_R   0.383805 0.103236 0.471159 0.312187
C14   C     C_R   0.697880 0.642417 0.367858 -0.129906
C15   C     C_R   0.303941 0.368374 0.640363 -0.165792
C16   C     C_R   0.000831 0.500548 0.632572 0.598847
C17   C     C_R   0.999850 0.500458 0.367554 0.617927
C18   C     C_R   0.788720 0.628802 0.393284 0.065802
C19   C     C_R   0.214632 0.383668 0.612843 0.050299
C20   C     C_R   0.717282 0.509148 0.492343 0.091922
C21   C     C_R   0.279575 0.478493 0.504870 0.103050
C22   C     C_R   0.625223 0.525168 0.472838 0.004388
C23   C     C_R   0.812283 0.206206 0.523938 -0.013680
C24   C     C_R   0.368621 0.456916 0.526784 -0.006419
C25   C     C_R   0.614803 0.588183 0.406061 -0.008394
C26   C     C_R   0.380964 0.404701 0.597531 -0.047017
C27   C     C_R   0.542904 0.480088 0.514877 -0.012064
C28   C     C_R   0.447770 0.490958 0.483364 0.008281
C29   C     C_R   0.433401 0.533857 0.409245 0.281252
C30   C     C_R   0.551506 0.426675 0.587171 0.231779
C31   C     C_R   0.519917 0.590531 0.374505 -0.099395
C32   C     C_R   0.470789 0.391116 0.626499 -0.135810
C33   C     C_R   0.022002 0.428212 0.764712 0.017060
C34   C     C_R   0.191793 0.794438 0.484397 -0.024802
C35   C     C_R   0.990955 0.582233 0.237680 0.011574
C36   C     C_R   0.021832 0.430790 0.836171 -0.118780
C37   C     C_R   0.989100 0.580786 0.165528 -0.127299
C38   C     C_R   0.000491 0.504016 0.853726 -0.022811
C39   C     C_R   0.999714 0.502487 0.145905 -0.026853
C40   C     C_R   0.981217 0.577448 0.798744 -0.130088
C41   C     C_R   0.010769 0.423628 0.199332 -0.128268
C42   C     C_R   0.984245 0.579281 0.726725 0.022799
C43   C     C_R   0.008923 0.420696 0.271616 0.007623
C44   C     C_R   0.002760 0.502771 0.708723 -0.032293
C45   C     C_R   0.785196 0.050530 0.608864 0.059132
C46   C     C_R   0.999517 0.500979 0.291498 -0.033812
C47   C     C_R   0.999608 0.503126 0.069699 0.351895
C48   C     C_R   0.999646 0.503830 0.929693 0.351864
C49   C     C_2   0.038462 0.343494 0.751484 0.563644
C50   C     C_2   0.989952 0.672793 0.254891 0.569078
C51   C     C_3   0.316898 0.568060 0.306802 0.002955
C52   C     C_3   0.327002 0.669215 0.319616 -0.281488
C53   C     C_3   0.301336 0.733052 0.249184 -0.441289
C54   C     C_3   0.631483 0.319495 0.643682 -0.018748
C55   C     C_3   0.734127 0.314538 0.680420 -0.253762
C56   C     C_R   0.216316 0.968894 0.438191 0.040344
C57   C     C_3   0.722262 0.206661 0.712225 -0.440150
C58   C     C_2   0.974046 0.665939 0.672805 0.596673
C59   C     C_2   0.013987 0.330791 0.323937 0.601186
C60   C     C_3   0.630132 0.782375 0.649470 0.019646
C61   C     C_3   0.678804 0.719096 0.707522 -0.240864
C62   C     C_3   0.663681 0.624346 0.682655 -0.420700
C63   C     C_3   0.330299 0.192990 0.520209 0.001210
C64   C     C_3   0.241246 0.105717 0.554899 -0.279958
C65   C     C_3   0.215096 0.132966 0.615967 -0.454509
C66   C     C_2   0.347344 0.751313 0.524511 0.562600
C67   C     C_R   0.850112 0.142342 0.575969 -0.140733
C68   C     C_2   0.677466 0.207029 0.416342 0.591217
C69   C     C_2   0.835189 0.994283 0.667279 0.602913
C70   C     C_2   0.173247 0.037051 0.385202 0.616252
C71   C     C_R   0.152550 0.867399 0.450736 -0.179191
C72   C     C_R   0.708233 0.170884 0.494509 0.006228
Cu1   Cu    Cu3+1 0.081740 0.475680 0.518680 1.046582
Cu2   Cu    Cu3+1 0.918260 0.524320 0.481320 1.027273
H1    H     H_    0.514200 0.632431 0.320649 0.101978
H2    H     H_    0.982762 0.643142 0.124685 0.179713
H3    H     H_    0.966794 0.635735 0.812118 0.169745
H4    H     H_    0.017981 0.362195 0.184485 0.186337
H5    H     H_    0.072345 0.844356 0.428440 0.161151
H6    H     H_    0.931519 0.166353 0.593856 0.146725
H7    H     H_    0.451871 0.836917 0.629380 0.167476
H8    H     H_    0.537821 0.211402 0.482329 0.118294
H9    H     H_    0.992860 0.232110 0.695904 0.330009
H10   H     H_    0.047205 0.776085 0.319725 0.336334
H11   H     H_    0.236815 0.529403 0.282094 0.181799
H12   H     H_    0.480536 0.356623 0.682511 0.123321
H13   H     H_    0.363220 0.575876 0.266385 0.139479
H14   H     H_    0.273664 0.656164 0.356677 0.198155
H15   H     H_    0.405876 0.711301 0.344566 0.194198
H16   H     H_    0.354686 0.749157 0.211312 0.158766
H17   H     H_    0.308447 0.805173 0.260130 0.193263
H18   H     H_    0.221801 0.693604 0.223858 0.161749
H19   H     H_    0.605576 0.283220 0.595073 0.111883
H20   H     H_    0.575800 0.276371 0.682112 0.136103
H21   H     H_    0.787976 0.345911 0.640583 0.184146
H22   H     H_    0.766687 0.359896 0.724306 0.187770
H23   H     H_    0.270773 0.531028 0.457328 0.181750
H24   H     H_    0.670819 0.174411 0.753770 0.158382
H25   H     H_    0.797618 0.204677 0.737978 0.210794
H26   H     H_    0.690188 0.160135 0.669266 0.156013
H27   H     H_    0.022945 0.770373 0.586177 0.342618
H28   H     H_    0.072872 0.224849 0.354422 0.369529
H29   H     H_    0.669916 0.807702 0.601394 0.159331
H30   H     H_    0.548369 0.734934 0.634382 0.145959
H31   H     H_    0.761813 0.763782 0.720523 0.220968
H32   H     H_    0.643727 0.697484 0.757218 0.191370
H33   H     H_    0.581007 0.577062 0.672618 0.151079
H34   H     H_    0.727456 0.451689 0.534911 0.180749
H35   H     H_    0.701665 0.580883 0.725077 0.191490
H36   H     H_    0.696982 0.643680 0.632459 0.204328
H37   H     H_    0.312455 0.260772 0.506021 0.194001
H38   H     H_    0.402060 0.210104 0.559606 0.102445
H39   H     H_    0.172136 0.084652 0.513842 0.212107
H40   H     H_    0.261737 0.039715 0.577320 0.152233
H41   H     H_    0.284188 0.161377 0.655992 0.146601
H42   H     H_    0.157301 0.065451 0.643417 0.182667
H43   H     H_    0.181898 0.190214 0.593918 0.168492
H44   H     H_    0.372432 0.634467 0.592002 0.323343
H45   H     H_    0.154715 0.354483 0.645498 0.168826
H46   H     H_    0.709746 0.313048 0.327367 0.348202
H47   H     H_    0.931845 0.923358 0.695500 0.347843
H48   H     H_    0.193520 0.151545 0.301118 0.362366
H49   H     H_    0.852015 0.668157 0.363030 0.154647
H50   H     H_    0.691446 0.692343 0.317345 0.124155
H51   H     H_    0.312259 0.327502 0.694620 0.124458
H52   H     H_    0.036153 0.373213 0.878367 0.180450
N1    N     N_R   0.983333 0.576603 0.948338 -0.217200
N2    N     N_R   0.015756 0.430374 0.050982 -0.212182
N3    N     N_R   0.983337 0.576251 0.016975 -0.214123
N4    N     N_R   0.015816 0.430763 0.982437 -0.212575
N5    N     N_R   0.795420 0.560800 0.453240 -0.252159
N6    N     N_R   0.204580 0.439200 0.546760 -0.250857
O1    O     O_R   0.977910 0.338110 0.524620 -0.481397
O2    O     O_R   0.977334 0.291860 0.695594 -0.733830
O3    O     O_2   0.936615 0.714656 0.214661 -0.502383
O4    O     O_R   0.053073 0.712915 0.315227 -0.713449
O5    O     O_3   0.333588 0.504565 0.371940 -0.570444
O6    O     O_3   0.642713 0.421111 0.624257 -0.591881
O7    O     O_2   0.914065 0.700325 0.677335 -0.538837
O8    O     O_R   0.036189 0.711288 0.618851 -0.679248
O9    O     O_2   0.962361 0.294493 0.372741 -0.476352
O10   O     O_R   0.075682 0.285469 0.315731 -0.678710
O11   O     O_3   0.639195 0.865020 0.677006 -0.531600
O12   O     O_R   0.022090 0.661890 0.475380 -0.490019
O13   O     O_3   0.343069 0.175244 0.455403 -0.523829
O14   O     O_2   0.400787 0.756200 0.482907 -0.550063
O15   O     O_R   0.334912 0.679325 0.587492 -0.686106
O16   O     O_2   0.601835 0.152013 0.381944 -0.480111
O17   O     O_R   0.738209 0.299484 0.380145 -0.653350
O18   O     O_2   0.824358 0.984125 0.729734 -0.462686
O19   O     O_R   0.900054 0.958613 0.651108 -0.698510
O20   O     O_2   0.085158 0.025890 0.383623 -0.532617
O21   O     O_R   0.231590 0.110681 0.334630 -0.610675
O22   O     O_R   0.839850 0.379180 0.493080 -0.495395
O23   O     O_R   0.160150 0.620820 0.506920 -0.470263
O24   O     O_R   0.069040 0.479450 0.615630 -0.473811
O25   O     O_R   0.930960 0.520550 0.384370 -0.466188
O26   O     O_R   0.930990 0.520520 0.584090 -0.499468
O27   O     O_R   0.069010 0.479480 0.415910 -0.496145
O28   O     O_2   0.103091 0.315958 0.791700 -0.508597

loop_
_geom_bond_atom_site_label_1
_geom_bond_atom_site_label_2
_ccdc_geom_bond_type
C58   O7    D    
C25   C31   A    
C7    C10   A    
C38   C40   A    
C49   O2    S    
C26   C32   A    
C30   O6    S    
C70   O21   S    
C41   C43   A    
Cu1   Cu2   S    
C14   C18   A    
C13   O13   S    
C4    C8    A    
C51   H11   S    
C71   H5    S    
C52   H15   S    
C7    C8    A    
C39   C41   A    
C15   C19   A    
H46   O17   S    
C47   N3    A    
C69   O18   D    
C28   C29   A    
C35   C37   A    
C47   N2    A    
C5    C11   A    
C3    C7    A    
C50   O3    D    
C60   O11   S    
C33   C49   S    
C57   H25   S    
C33   C36   A    
Cu2   O22   S    
C23   C67   A    
C63   H38   S    
H9    O2    S    
C68   O17   S    
H10   O4    S    
C59   O10   S    
C8    C9    A    
C54   H19   S    
C22   C25   A    
C45   C67   A    
C49   O28   D    
C60   H29   S    
C17   O25   A    
C16   C44   S    
C38   C48   S    
C68   O16   D    
H28   O10   S    
C43   C59   S    
C18   H49   S    
C2    C34   A    
C40   C42   A    
Cu1   N6    S    
C19   H45   S    
Cu2   N5    S    
C27   C30   A    
C65   H41   S    
C48   N4    A    
C18   N5    A    
C61   C62   S    
C42   C44   A    
C35   C50   S    
C1    O1    A    
H27   O8    S    
C14   H50   S    
Cu2   O26   S    
C16   O26   A    
C51   C52   S    
C69   O19   S    
C52   H14   S    
C64   H40   S    
C17   C46   S    
C4    C6    A    
C51   H13   S    
C41   H4    S    
C15   C26   A    
C62   H33   S    
C3    C5    A    
C57   H26   S    
C45   C69   S    
C10   H8    S    
H47   O19   S    
C60   C61   S    
C2    C4    A    
N1    N3    A    
C21   N6    A    
C16   O24   A    
C21   H23   S    
C31   H1    S    
C62   H36   S    
C68   C72   S    
C56   C71   A    
C32   H12   S    
Cu1   O23   S    
C53   H18   S    
C70   O20   D    
C61   H32   S    
C9    C11   A    
C66   O15   S    
C53   H17   S    
C51   O5    S    
C55   H21   S    
C37   H2    S    
Cu1   O1    S    
C1    C23   S    
C56   C70   S    
C22   C27   A    
C55   C57   S    
C65   H42   S    
C20   C22   A    
C20   N5    A    
C12   C34   S    
C53   H16   S    
C66   O14   D    
C61   H31   S    
C52   C53   S    
C39   C47   S    
C58   O8    S    
C19   N6    A    
Cu2   O12   S    
C54   C55   S    
H44   O15   S    
C64   H39   S    
Cu2   O25   S    
C33   C44   A    
C23   C72   A    
C36   H52   S    
C67   H6    S    
C24   C28   A    
C6    C56   A    
C55   H22   S    
C2    C66   S    
C10   C13   A    
N2    N4    A    
C29   O5    S    
Cu1   O27   S    
C64   C65   S    
C36   C38   A    
C3    C72   A    
C37   C39   A    
C50   O4    S    
C48   N1    A    
C30   C32   A    
C24   C26   A    
C54   O6    S    
C62   H35   S    
C5    C45   A    
C57   H24   S    
Cu1   O24   S    
H48   O21   S    
C14   C25   A    
C63   H37   S    
C1    O22   A    
C17   O27   A    
C43   C46   A    
C54   H20   S    
C63   C64   S    
C42   C58   S    
C12   O12   A    
C59   O9    D    
C29   C31   A    
C15   H51   S    
C21   C24   A    
C27   C28   A    
C65   H43   S    
C40   H3    S    
C12   O23   A    
C20   H34   S    
C60   H30   S    
C35   C46   A    
C11   O11   S    
C34   C71   A    
C63   O13   S    
C9    H7    S    
C6    C13   A    
