data_mof_unit_38935.cif
_audit_creation_date              2012-12-10T18:07:05-0500
_audit_creation_method            fapswitch 2.2
_symmetry_space_group_name_H-M    P1
_symmetry_Int_Tables_number       1
_space_group_crystal_system       triclinic
_cell_length_a                    10.888903
_cell_length_b                    12.743952
_cell_length_c                    13.877058
_cell_angle_alpha                 97.973398
_cell_angle_beta                  91.586502
_cell_angle_gamma                 91.595231
_cell_volume                      1905.36303625

loop_
_atom_site_label
_atom_site_type_symbol
_atom_type_description
_atom_site_fract_x
_atom_site_fract_y
_atom_site_fract_z
_atom_type_partial_charge
C1    C     C_R   0.501815 0.483407 0.315930 0.908568
C2    C     C_3   0.877303 0.495250 0.499051 -0.234248
C3    C     C_3   0.925893 0.487819 0.609603 0.356531
C4    C     C_3   0.928633 0.602474 0.464108 -0.199156
C5    C     C_1   0.497736 0.526444 0.787527 -0.124344
C6    C     C_2   0.496510 0.543527 0.978540 -0.168227
C7    C     C_2   0.507684 0.457007 0.021606 -0.117435
C8    C     C_1   0.505876 0.465485 0.125448 0.054343
C9    C     C_1   0.497119 0.534918 0.874660 0.023925
C10   C     C_1   0.503999 0.473831 0.212540 -0.052879
C11   C     C_2   0.457464 0.029692 0.475505 -0.138742
C12   C     C_R   0.259847 0.501860 0.501745 0.865143
C13   C     C_2   0.538411 0.969985 0.520874 0.313877
C14   C     C_1   0.526366 0.853908 0.516867 0.138982
C15   C     C_1   0.472774 0.145973 0.481274 0.350186
C16   C     C_R   0.498751 0.516690 0.684099 0.822918
C17   C     C_R   0.739981 0.497767 0.497100 0.871854
C18   C     C_3   0.071109 0.409818 0.420862 0.112227
C19   C     C_3   0.928954 0.397066 0.429657 0.196583
C20   C     C_3   0.073114 0.487059 0.605216 -0.234829
C21   C     C_3   0.071936 0.609456 0.470428 -0.100476
C22   C     C_3   0.122344 0.503014 0.500779 -0.128926
Cu1   Cu    Cu3+1 0.491980 0.395330 0.493960 1.090112
Cu2   Cu    Cu3+1 0.508020 0.604670 0.506040 0.985703
H1    H     H_    0.108850 0.335235 0.439818 0.092787
H2    H     H_    0.893811 0.670409 0.512580 0.200565
H3    H     H_    0.103889 0.561435 0.649265 0.138092
H4    H     H_    0.517677 0.379539 0.979187 0.176564
H5    H     H_    0.486421 0.620983 0.020954 0.157979
H6    H     H_    0.923535 0.330664 0.470819 0.153718
H7    H     H_    0.100923 0.608508 0.394606 0.214517
N1    N     N_1   0.479930 0.238040 0.484880 -0.147836
N2    N     N_1   0.520070 0.761960 0.515120 -0.156654
O1    O     O_R   0.492240 0.399110 0.356330 -0.551992
O2    O     O_R   0.505790 0.575900 0.366540 -0.592703
O3    O     O_R   0.310920 0.411610 0.494880 -0.625783
O4    O     O_R   0.324460 0.588390 0.505090 -0.583638
O5    O     O_R   0.494210 0.424100 0.633460 -0.531029
O6    O     O_R   0.507760 0.600890 0.643670 -0.588673
O7    O     O_R   0.675540 0.411610 0.494910 -0.460997
O8    O     O_R   0.689080 0.588390 0.505120 -0.616406
C23   C     C_3   0.885309 0.588637 0.680762 -0.385893
C24   C     C_3   0.925908 0.594572 0.789172 -0.306426
C25   C     C_3   0.891493 0.699904 0.847095 -0.835602
H8    H     H_    0.939115 0.767123 0.818989 0.256086
H9    H     H_    0.790537 0.709689 0.842116 0.270208
H10   H     H_    0.919563 0.701455 0.924843 0.251920
H11   H     H_    0.879723 0.530835 0.822828 0.295316
H12   H     H_    0.026614 0.586966 0.797575 0.201777
H13   H     H_    0.918466 0.662437 0.657525 0.170623
H14   H     H_    0.783752 0.593658 0.678059 0.225349
S1    S     S_3+6 0.671394 0.029451 0.583912 0.025918
O9    O     O_2   0.756134 0.066809 0.511134 -0.256883
O10   O     O_2   0.636868 0.122276 0.656046 -0.244277
O11   O     O_3   0.743190 0.940587 0.642756 -0.550396
H15   H     H_    0.822508 0.975886 0.666921 0.369419
C26   C     C_3   0.348545 0.979787 0.413198 -0.472537
C27   C     C_3   0.228078 0.033891 0.442674 -0.355126
C28   C     C_3   0.119612 0.984356 0.379161 -0.757861
H16   H     H_    0.132361 0.995532 0.302061 0.268815
H17   H     H_    0.111632 0.898687 0.384318 0.226066
H18   H     H_    0.033451 0.022306 0.404436 0.272541
H19   H     H_    0.210373 0.026608 0.519768 0.221875
H20   H     H_    0.234566 0.119441 0.434871 0.215903
H21   H     H_    0.366049 0.988582 0.336140 0.226533
H22   H     H_    0.337273 0.893664 0.417096 0.201139
S2    S     S_3+6 0.132090 0.411177 0.298592 0.037538
O12   O     O_2   0.037810 0.433333 0.223839 -0.193214
O13   O     O_2   0.235153 0.491872 0.298762 -0.368050
O14   O     O_3   0.187941 0.290946 0.261721 -0.462691
H23   H     H_    0.259733 0.285150 0.305871 0.339600
S3    S     S_3+6 0.838748 0.333454 0.323396 0.047999
O15   O     O_2   0.733486 0.269385 0.355618 -0.250457
O16   O     O_2   0.788300 0.411893 0.262615 -0.339903
O17   O     O_3   0.925150 0.247205 0.254277 -0.437750
H24   H     H_    0.870173 0.216288 0.198904 0.376408
C29   C     C_3   0.145569 0.409946 0.663357 -0.315403
C30   C     C_3   0.143501 0.290602 0.623432 -0.275092
C31   C     C_3   0.189826 0.225670 0.700916 -0.781359
H25   H     H_    0.285938 0.250628 0.724148 0.256019
H26   H     H_    0.131002 0.235904 0.765361 0.285834
H27   H     H_    0.187781 0.140315 0.670801 0.223294
H28   H     H_    0.051149 0.260494 0.597217 0.270312
H29   H     H_    0.205115 0.274714 0.561667 0.199799
H30   H     H_    0.243528 0.437042 0.671451 0.150602
H31   H     H_    0.117127 0.422266 0.739840 0.247169
S4    S     S_3+6 0.851419 0.374762 0.662105 -0.015692
O18   O     O_2   0.728093 0.408298 0.698002 -0.299643
O19   O     O_2   0.829303 0.274676 0.592413 -0.230374
O20   O     O_3   0.928738 0.342911 0.759856 -0.576048
H32   H     H_    0.877682 0.286495 0.783042 0.395740
C32   C     C_3   0.125582 0.722846 0.516766 -0.383949
C33   C     C_3   0.167938 0.746097 0.625016 -0.336281
C34   C     C_3   0.218061 0.859940 0.650525 -0.831260
H33   H     H_    0.296184 0.874786 0.604163 0.254468
H34   H     H_    0.144609 0.916565 0.640480 0.248185
H35   H     H_    0.250898 0.873837 0.727855 0.251358
H36   H     H_    0.091301 0.738183 0.673596 0.210425
H37   H     H_    0.241409 0.693025 0.642878 0.234753
H38   H     H_    0.205153 0.743050 0.473373 0.216960
H39   H     H_    0.057292 0.783052 0.504550 0.194132
C35   C     C_3   0.877706 0.621059 0.361300 -0.318062
C36   C     C_3   0.895953 0.735849 0.341264 -0.418337
C37   C     C_3   0.827535 0.753991 0.247778 -0.764525
H40   H     H_    0.859562 0.699035 0.184902 0.263059
H41   H     H_    0.726976 0.741215 0.254578 0.252140
H42   H     H_    0.845349 0.836766 0.234047 0.252028
H43   H     H_    0.862175 0.792073 0.402606 0.247859
H44   H     H_    0.995122 0.752339 0.332573 0.219495
H45   H     H_    0.923552 0.569969 0.303895 0.279664
H46   H     H_    0.778275 0.600670 0.352014 0.238558

loop_
_geom_bond_atom_site_label_1
_geom_bond_atom_site_label_2
_ccdc_geom_bond_type
S4    O18   D    
C3    C23   S    
C33   C34   S    
C26   H22   S    
O11   H15   S    
C6    C9    S    
C37   H41   S    
C19   S3    S    
C7    C8    S    
C29   C30   S    
S1    O9    D    
C21   H7    S    
C32   H38   S    
C20   C29   S    
Cu1   O7    S    
C12   C22   S    
Cu2   O6    S    
C18   C19   S    
C12   O4    A    
C5    C16   S    
O17   H24   S    
C11   C15   S    
C30   H28   S    
S1    O10   D    
C4    C35   S    
Cu1   Cu2   S    
O14   H23   S    
C12   O3    A    
C24   H11   S    
C33   H37   S    
S1    O11   S    
C23   H14   S    
C29   H30   S    
C28   H16   S    
C21   C22   S    
C2    C17   S    
Cu2   O8    S    
C35   H46   S    
C34   H33   S    
C18   H1    S    
C14   N2    T    
S3    O17   S    
C37   H40   S    
C25   H9    S    
C1    O1    A    
C27   H20   S    
C28   H17   S    
Cu2   O2    S    
C3    S4    S    
S2    O12   D    
C15   N1    T    
S3    O16   D    
C31   H26   S    
C30   C31   S    
C24   H12   S    
C34   H35   S    
C18   S2    S    
C7    H4    S    
S2    O13   D    
C17   O7    A    
C2    C4    S    
C24   C25   S    
C5    C9    T    
C13   S1    S    
Cu1   O1    S    
Cu2   O4    S    
C3    C20   S    
C34   H34   S    
C36   H43   S    
C32   H39   S    
C23   H13   S    
C20   C22   S    
C29   H31   S    
S4    O19   D    
C35   H45   S    
C23   C24   S    
O20   H32   S    
C25   H8    S    
C1    O2    A    
C27   H19   S    
C28   H18   S    
C2    C19   S    
C18   C22   S    
C1    C10   S    
C26   H21   S    
S3    O15   D    
C31   H27   S    
C4    H2    S    
C25   H10   S    
C6    C7    D    
C20   H3    S    
Cu1   O5    S    
Cu2   N2    S    
C36   H44   S    
S2    O14   S    
Cu1   N1    S    
C2    C3    S    
C27   C28   S    
C11   C26   S    
C4    C21   S    
C11   C13   D    
C26   C27   S    
C32   C33   S    
C35   C36   S    
C17   O8    A    
C16   O6    A    
C31   H25   S    
C30   H29   S    
C6    H5    S    
C8    C10   T    
Cu1   O3    S    
S4    O20   S    
C36   C37   S    
C13   C14   S    
C19   H6    S    
C33   H36   S    
C37   H42   S    
C16   O5    A    
C21   C32   S    
