data_mof_unit_19531.cif
_audit_creation_date              2012-12-10T18:29:40-0500
_audit_creation_method            fapswitch 2.2
_symmetry_space_group_name_H-M    P1
_symmetry_Int_Tables_number       1
_space_group_crystal_system       triclinic
_cell_length_a                    11.565287
_cell_length_b                    15.022195
_cell_length_c                    15.454278
_cell_angle_alpha                 81.218348
_cell_angle_beta                  90.765637
_cell_angle_gamma                 104.889932
_cell_volume                      2563.44782262

loop_
_atom_site_label
_atom_site_type_symbol
_atom_type_description
_atom_site_fract_x
_atom_site_fract_y
_atom_site_fract_z
_atom_type_partial_charge
C1    C     C_R   0.482369 0.440607 0.662594 0.848596
C2    C     C_R   0.518357 0.559612 0.337247 0.857274
C3    C     C_R   0.488282 0.351720 0.939118 0.067682
C4    C     C_R   0.587372 0.654899 0.061251 0.086557
C5    C     C_R   0.520062 0.515535 0.953541 0.047772
C6    C     C_R   0.511185 0.491852 0.044535 0.013413
C7    C     C_R   0.500544 0.398621 0.082700 -0.273691
C8    C     C_R   0.571866 0.608871 0.916672 -0.253409
C9    C     C_R   0.493957 0.328703 0.031185 0.174249
C10   C     C_R   0.610543 0.678458 0.969568 0.152967
C11   C     C_R   0.695399 0.840698 0.632546 0.256231
C12   C     C_R   0.325910 0.150608 0.365779 0.388555
C13   C     C_R   0.651258 0.749133 0.613949 0.472201
C14   C     C_R   0.339910 0.236115 0.395367 0.413303
C15   C     C_R   0.521737 0.799152 0.507598 -0.107009
C16   C     C_R   0.507400 0.214335 0.478614 -0.087068
C17   C     C_R   0.566007 0.892795 0.520501 -0.058084
C18   C     C_R   0.488662 0.122195 0.460153 -0.068113
C19   C     C_R   0.647180 0.911249 0.588428 0.007618
C20   C     C_R   0.403541 0.095690 0.395722 -0.034126
C21   C     C_R   0.527589 0.967130 0.470896 0.009940
C22   C     C_R   0.549260 0.055289 0.501791 0.003004
C23   C     C_R   0.718102 0.501317 0.500418 0.889219
C24   C     C_R   0.281864 0.498554 0.499885 0.873599
C25   C     C_R   0.625502 0.069751 0.574767 0.412318
C26   C     C_R   0.468429 0.955861 0.390983 0.409505
C27   C     C_R   0.678364 0.999666 0.612652 -0.225063
C28   C     C_R   0.399972 0.016356 0.358458 -0.240511
C29   C     C_1   0.839521 0.503509 0.500711 -0.175237
C30   C     C_1   0.160490 0.496505 0.499173 -0.169099
C31   C     C_1   0.941215 0.501858 0.500202 0.012276
C32   C     C_1   0.058823 0.498245 0.499398 0.012497
C33   C     C_R   0.470383 0.402173 0.756920 -0.152168
C34   C     C_R   0.534350 0.599703 0.242951 -0.092391
C35   C     C_R   0.486293 0.286708 0.882559 -0.247321
C36   C     C_R   0.628677 0.718087 0.120050 -0.248685
C37   C     C_R   0.487429 0.312905 0.791489 0.112305
C38   C     C_R   0.611759 0.689429 0.211101 0.114327
C39   C     C_R   0.450741 0.460448 0.815336 0.085796
C40   C     C_R   0.475859 0.544665 0.181416 0.067957
C41   C     C_R   0.487426 0.443815 0.902110 0.055403
C42   C     C_R   0.524119 0.563177 0.095928 0.016648
H1    H     H_    0.490855 0.216614 0.908009 0.156191
H2    H     H_    0.681819 0.787829 0.096387 0.154218
H3    H     H_    0.505609 0.381032 0.152964 0.156263
H4    H     H_    0.592183 0.626368 0.847174 0.148153
H5    H     H_    0.738859 0.013032 0.666066 0.198096
H6    H     H_    0.346290 0.002342 0.301672 0.192253
H7    H     H_    0.581610 0.247405 0.514350 0.244704
H8    H     H_    0.450135 0.777347 0.463986 0.213174
N1    N     N_R   0.566020 0.731700 0.552730 -0.142107
N2    N     N_R   0.433980 0.268300 0.447270 -0.181813
O1    O     O_R   0.466720 0.383110 0.605620 -0.609879
O2    O     O_R   0.533280 0.616890 0.394380 -0.609910
O3    O     O_R   0.509090 0.531900 0.639510 -0.560341
O4    O     O_R   0.490910 0.468100 0.360490 -0.632063
O5    O     O_R   0.644370 0.425610 0.483050 -0.621528
O6    O     O_R   0.355630 0.574390 0.516950 -0.618668
O7    O     O_R   0.686740 0.574390 0.516930 -0.549889
O8    O     O_R   0.313260 0.425610 0.483070 -0.606880
Zn1   Zn    Zn3+2 0.471710 0.400660 0.477370 0.938954
Zn2   Zn    Zn3+2 0.528290 0.599340 0.522630 0.981989
C43   C     C_3   0.490410 0.231275 0.077268 -0.429889
C44   C     C_3   0.363443 0.167898 0.082117 -0.812208
H9    H     H_    0.303042 0.197009 0.118320 0.274037
H10   H     H_    0.328604 0.160463 0.015640 0.251113
H11   H     H_    0.363397 0.097729 0.117450 0.253335
H12   H     H_    0.552787 0.200916 0.044663 0.197184
H13   H     H_    0.521785 0.233308 0.145464 0.211585
C45   C     C_3   0.674322 0.775743 0.925581 -0.406449
C46   C     C_3   0.591440 0.840772 0.918279 -0.831852
H14   H     H_    0.512545 0.813647 0.879109 0.260557
H15   H     H_    0.560153 0.847427 0.983984 0.251322
H16   H     H_    0.640172 0.911018 0.884895 0.256273
H17   H     H_    0.756275 0.804361 0.960999 0.200084
H18   H     H_    0.705509 0.774055 0.858275 0.231448
O9    O     O_3   0.645829 0.150397 0.611281 -0.831554
H19   H     H_    0.699977 0.148169 0.661421 0.327770
O10   O     O_3   0.483702 0.888898 0.343060 -0.816317
H20   H     H_    0.438321 0.892189 0.288260 0.328525
C47   C     C_3   0.354042 0.475008 0.200704 -0.391927
C48   C     C_3   0.262747 0.515957 0.240646 -0.834267
H21   H     H_    0.287612 0.531663 0.307121 0.244172
H22   H     H_    0.255292 0.580808 0.198161 0.256466
H23   H     H_    0.173748 0.464805 0.246086 0.260522
H24   H     H_    0.313899 0.452486 0.139329 0.218830
H25   H     H_    0.364681 0.411286 0.241673 0.224710
C49   C     C_3   0.370355 0.526750 0.789828 -0.352331
C50   C     C_3   0.266028 0.510016 0.855337 -0.870115
H26   H     H_    0.217077 0.435042 0.866812 0.263629
H27   H     H_    0.297827 0.532257 0.918604 0.266676
H28   H     H_    0.202914 0.551296 0.828692 0.249719
H29   H     H_    0.421370 0.600854 0.781412 0.211923
H30   H     H_    0.327990 0.515250 0.726182 0.209044
C51   C     C_3   0.679117 0.756655 0.269811 -0.355092
C52   C     C_3   0.786407 0.725766 0.310311 -0.809670
H31   H     H_    0.830251 0.773864 0.355888 0.256608
H32   H     H_    0.759032 0.654074 0.347168 0.252989
H33   H     H_    0.852363 0.727590 0.258051 0.247092
H34   H     H_    0.714114 0.827505 0.231739 0.201135
H35   H     H_    0.619110 0.766683 0.320615 0.264978
C53   C     C_3   0.506436 0.242887 0.735790 -0.348570
C54   C     C_3   0.387358 0.184227 0.707919 -0.762758
H36   H     H_    0.334319 0.142558 0.766570 0.236235
H37   H     H_    0.333966 0.228614 0.671537 0.270632
H38   H     H_    0.404287 0.135639 0.665144 0.261918
H39   H     H_    0.566896 0.277461 0.678730 0.244234
H40   H     H_    0.553830 0.194409 0.773488 0.192737
O11   O     O_3   0.257690 0.285867 0.370310 -0.795485
H41   H     H_    0.297623 0.351521 0.369746 0.385844
O12   O     O_3   0.691739 0.675631 0.655932 -0.735748
H42   H     H_    0.716816 0.687758 0.715393 0.301324
O13   O     O_3   0.786212 0.863528 0.690690 -0.797692
H43   H     H_    0.839366 0.821367 0.690248 0.339793
O14   O     O_3   0.237664 0.118803 0.308005 -0.780257
H44   H     H_    0.194649 0.166962 0.288021 0.377580

loop_
_geom_bond_atom_site_label_1
_geom_bond_atom_site_label_2
_ccdc_geom_bond_type
O6    Zn2   S    
C14   O11   S    
C21   C26   A    
C4    C36   A    
C51   C52   S    
C47   C48   S    
C1    C33   S    
C39   C41   A    
O9    H19   S    
C23   O7    A    
C11   C19   A    
C33   C39   A    
C34   C40   A    
C23   C29   S    
C35   C37   A    
N2    Zn1   S    
C5    C6    A    
O14   H44   S    
C52   H33   S    
C15   C17   A    
C15   H8    S    
C1    O1    A    
C13   N1    A    
O1    Zn1   S    
C3    C41   A    
C43   H13   S    
C22   C25   A    
C52   H32   S    
C38   C51   S    
C53   H40   S    
C45   C46   S    
C15   N1    A    
C50   H27   S    
C19   C27   A    
C47   H24   S    
C12   O14   S    
C2    C34   S    
C40   C42   A    
C24   O6    A    
C9    C43   S    
C21   C22   A    
N1    Zn2   S    
C39   C49   S    
C24   C30   S    
C49   H30   S    
C44   H11   S    
C16   H7    S    
C2    O2    A    
C46   H15   S    
C51   H34   S    
C34   C38   A    
C20   C28   A    
C33   C37   A    
O10   H20   S    
O8    Zn1   S    
C44   H10   S    
C3    C9    A    
C5    C8    A    
C31   C32   S    
C3    C35   A    
C24   O8    A    
C52   H31   S    
C12   C20   A    
C53   H39   S    
C54   H37   S    
C50   H28   S    
C47   H25   S    
C10   C45   S    
C8    C10   A    
C12   C14   A    
C48   H22   S    
C45   H18   S    
C25   O9    S    
C36   H2    S    
C4    C10   A    
C7    H3    S    
C54   H36   S    
C35   H1    S    
O13   H43   S    
C27   H5    S    
C23   O5    A    
C5    C41   A    
C49   H29   S    
C28   H6    S    
O7    Zn2   S    
O12   H42   S    
C18   C22   A    
C40   C47   S    
C16   N2    A    
C46   H16   S    
O5    Zn1   S    
C6    C7    A    
C25   C27   A    
C48   H23   S    
O2    Zn2   S    
C43   H12   S    
C26   C28   A    
C26   O10   S    
C44   H9    S    
C36   C38   A    
C1    O3    A    
C46   H14   S    
C29   C31   T    
C2    O4    A    
O11   H41   S    
C30   C32   T    
C11   C13   A    
C37   C53   S    
C4    C42   A    
O3    Zn2   S    
C13   O12   S    
C14   N2    A    
C17   C19   A    
C54   H38   S    
C18   C20   A    
C53   C54   S    
C11   O13   S    
C8    H4    S    
C43   C44   S    
C7    C9    A    
C49   C50   S    
C16   C18   A    
C48   H21   S    
C6    C42   A    
C45   H17   S    
O4    Zn1   S    
C50   H26   S    
C51   H35   S    
C17   C21   A    
