data_mof_unit_62170.cif
_audit_creation_date              2012-12-10T17:23:29-0500
_audit_creation_method            fapswitch 2.2
_symmetry_space_group_name_H-M    P1
_symmetry_Int_Tables_number       1
_space_group_crystal_system       monoclinic
_cell_length_a                    38.553301
_cell_length_b                    21.720527
_cell_length_c                    21.800341
_cell_angle_alpha                 90.0
_cell_angle_beta                  124.258717
_cell_angle_gamma                 90.0
_cell_volume                      15088.2973372

loop_
_atom_site_label
_atom_site_type_symbol
_atom_type_description
_atom_site_fract_x
_atom_site_fract_y
_atom_site_fract_z
_atom_type_partial_charge
C1    C     C_R   0.000298 0.000122 0.119827 0.860826
C2    C     C_R   0.999702 0.000122 0.880173 0.860828
C3    C     C_R   0.500298 0.500123 0.119827 0.860827
C4    C     C_R   0.499701 0.500123 0.880172 0.860827
C5    C     C_3   0.273972 0.042252 0.219963 0.293229
C6    C     C_3   0.726028 0.042250 0.780038 0.293230
C7    C     C_3   0.773972 0.542249 0.219960 0.293230
C8    C     C_3   0.226028 0.542251 0.780038 0.293230
C9    C     C_3   0.225062 0.044323 0.175455 -0.395072
C10   C     C_3   0.774938 0.044321 0.824546 -0.395074
C11   C     C_3   0.725062 0.544320 0.175452 -0.395074
C12   C     C_3   0.274938 0.544322 0.824546 -0.395072
C13   C     C_1   0.337158 0.001846 0.338111 -0.024222
C14   C     C_1   0.662842 0.001846 0.661890 -0.024221
C15   C     C_1   0.837158 0.501846 0.338110 -0.024221
C16   C     C_1   0.162842 0.501846 0.661889 -0.024221
C17   C     C_1   0.163178 0.000956 0.165953 -0.045599
C18   C     C_1   0.836822 0.000956 0.834048 -0.045599
C19   C     C_1   0.663178 0.500956 0.165952 -0.045599
C20   C     C_1   0.336822 0.500956 0.834048 -0.045599
C21   C     C_1   0.125612 0.000286 0.127505 -0.147860
C22   C     C_1   0.874388 0.000286 0.872495 -0.147860
C23   C     C_1   0.625612 0.500286 0.127505 -0.147860
C24   C     C_1   0.374388 0.500286 0.872495 -0.147860
C25   C     C_R   0.073977 0.032641 0.259825 -0.209848
C26   C     C_R   0.926022 0.032640 0.740174 -0.209848
C27   C     C_R   0.573977 0.532640 0.259826 -0.209848
C28   C     C_R   0.426023 0.532641 0.740174 -0.209848
C29   C     C_R   0.108013 0.058942 0.324185 0.217962
C30   C     C_R   0.891987 0.058941 0.675815 0.217962
C31   C     C_R   0.608013 0.558941 0.324185 0.217961
C32   C     C_R   0.391987 0.558942 0.675815 0.217961
C33   C     C_R   0.102641 0.080656 0.379422 0.230172
C34   C     C_R   0.897359 0.080655 0.620578 0.230171
C35   C     C_R   0.602641 0.580655 0.379422 0.230172
C36   C     C_R   0.397359 0.580656 0.620579 0.230172
C37   C     C_R   0.063296 0.071690 0.369748 0.170970
C38   C     C_R   0.936704 0.071690 0.630251 0.170971
C39   C     C_R   0.563296 0.571690 0.369748 0.170971
C40   C     C_R   0.436704 0.571690 0.630252 0.170971
C41   C     C_R   0.032966 0.031245 0.312705 0.029402
C42   C     C_R   0.967034 0.031245 0.687295 0.029403
C43   C     C_R   0.532966 0.531245 0.312705 0.029402
C44   C     C_R   0.467034 0.531245 0.687295 0.029402
C45   C     C_R   0.081065 0.000027 0.081566 0.870980
C46   C     C_R   0.918935 0.000027 0.918434 0.870979
C47   C     C_R   0.581065 0.500027 0.081566 0.870980
C48   C     C_R   0.418935 0.500027 0.918434 0.870979
C49   C     C_R   0.035906 0.020820 0.252476 -0.005988
C50   C     C_R   0.964094 0.020820 0.747524 -0.005988
C51   C     C_R   0.535906 0.520820 0.252476 -0.005988
C52   C     C_R   0.464094 0.520820 0.747524 -0.005988
C53   C     C_R   0.999708 0.001022 0.312033 -0.178398
C54   C     C_R   0.000292 0.001022 0.687967 -0.178398
C55   C     C_R   0.499708 0.501022 0.312033 -0.178398
C56   C     C_R   0.500292 0.501022 0.687967 -0.178397
C57   C     C_R   0.965814 0.973322 0.245192 0.022055
C58   C     C_R   0.034186 0.973322 0.754808 0.022055
C59   C     C_R   0.465814 0.473322 0.245192 0.022055
C60   C     C_R   0.534186 0.473322 0.754808 0.022055
C61   C     C_R   0.963373 0.983642 0.179446 0.011809
C62   C     C_R   0.036627 0.983643 0.820554 0.011809
C63   C     C_R   0.463373 0.483643 0.179446 0.011809
C64   C     C_R   0.536626 0.483642 0.820554 0.011809
C65   C     C_R   0.000022 0.000927 0.185060 -0.104634
C66   C     C_R   0.999978 0.000927 0.814940 -0.104633
C67   C     C_R   0.500022 0.500927 0.185060 -0.104634
C68   C     C_R   0.499978 0.500927 0.814940 -0.104633
C69   C     C_R   0.933930 0.935791 0.239694 0.159108
C70   C     C_R   0.066070 0.935791 0.760306 0.159109
C71   C     C_R   0.433930 0.435791 0.239694 0.159109
C72   C     C_R   0.566070 0.435790 0.760305 0.159108
C73   C     C_R   0.895825 0.927351 0.171346 -0.171802
C74   C     C_R   0.104175 0.927352 0.828654 -0.171802
C75   C     C_R   0.395825 0.427352 0.171346 -0.171802
C76   C     C_R   0.604174 0.427351 0.828654 -0.171801
C77   C     C_R   0.890896 0.948026 0.106736 0.192308
C78   C     C_R   0.109104 0.948028 0.893264 0.192308
C79   C     C_R   0.390896 0.448027 0.106736 0.192308
C80   C     C_R   0.609104 0.448025 0.893264 0.192307
C81   C     C_R   0.925084 0.973186 0.110029 -0.186006
C82   C     C_R   0.074917 0.973187 0.889971 -0.186006
C83   C     C_R   0.425083 0.473186 0.110029 -0.186006
C84   C     C_R   0.574916 0.473185 0.889971 -0.186005
C85   C     C_R   0.500000 0.880397 0.500000 0.856267
C86   C     C_R   0.000000 0.380397 0.500000 0.856267
C87   C     C_3   0.226176 0.935876 0.219004 -0.371272
C88   C     C_3   0.773824 0.935876 0.780994 -0.371272
C89   C     C_3   0.726175 0.435876 0.219007 -0.371273
C90   C     C_3   0.273824 0.435876 0.780995 -0.371272
C91   C     C_R   0.419056 0.000285 0.419188 0.877326
C92   C     C_R   0.580944 0.000285 0.580812 0.877325
C93   C     C_R   0.919056 0.500285 0.419188 0.877325
C94   C     C_R   0.080944 0.500285 0.580812 0.877324
C95   C     C_R   0.500000 0.119947 0.500000 0.860476
C96   C     C_R   0.000000 0.619947 0.500000 0.860476
C97   C     C_R   0.000000 0.879731 0.500000 0.914875
C98   C     C_R   0.500000 0.379731 0.500000 0.914875
C99   C     C_R   0.999974 0.999258 0.379220 0.906647
C100  C     C_R   0.000025 0.999258 0.620780 0.906648
C101  C     C_R   0.499974 0.499258 0.379220 0.906647
C102  C     C_R   0.500025 0.499258 0.620780 0.906647
C103  C     C_R   0.000000 0.120369 0.500000 0.857699
C104  C     C_R   0.500000 0.620369 0.500000 0.857699
C105  C     C_R   0.437427 0.813872 0.369963 -0.196782
C106  C     C_R   0.562573 0.813872 0.630037 -0.196782
C107  C     C_R   0.937427 0.313872 0.369963 -0.196783
C108  C     C_R   0.062573 0.313872 0.630037 -0.196783
C109  C     C_R   0.411212 0.782613 0.303401 -0.132638
C110  C     C_R   0.588788 0.782613 0.696599 -0.132638
C111  C     C_R   0.911212 0.282613 0.303400 -0.132639
C112  C     C_R   0.088788 0.282613 0.696600 -0.132638
C113  C     C_R   0.916577 0.219693 0.299115 0.243849
C114  C     C_R   0.083423 0.219693 0.700885 0.243848
C115  C     C_R   0.416577 0.719693 0.299115 0.243848
C116  C     C_R   0.583423 0.719693 0.700885 0.243848
C117  C     C_R   0.946827 0.187926 0.363182 -0.171689
C118  C     C_R   0.053173 0.187926 0.636818 -0.171688
C119  C     C_R   0.446827 0.687926 0.363182 -0.171689
C120  C     C_R   0.553173 0.687926 0.636818 -0.171689
C121  C     C_R   0.972301 0.218478 0.432559 0.036465
C122  C     C_R   0.027699 0.218478 0.567441 0.036465
C123  C     C_R   0.472301 0.718478 0.432559 0.036465
C124  C     C_R   0.527699 0.718478 0.567441 0.036465
C125  C     C_3   0.225841 0.026617 0.290182 -0.439205
C126  C     C_3   0.774159 0.026619 0.709819 -0.439205
C127  C     C_3   0.725840 0.526621 0.290179 -0.439206
C128  C     C_3   0.274159 0.526619 0.709819 -0.439204
C129  C     C_R   0.469871 0.782748 0.434309 0.074172
C130  C     C_R   0.530129 0.782748 0.565691 0.074171
C131  C     C_R   0.969871 0.282748 0.434309 0.074172
C132  C     C_R   0.030129 0.282748 0.565691 0.074172
C133  C     C_R   1.000000 0.186664 0.500000 -0.175794
C134  C     C_R   0.500000 0.686664 0.500000 -0.175794
C135  C     C_R   0.500000 0.814317 0.500000 -0.167665
C136  C     C_R   0.000000 0.314317 0.500000 -0.167666
C137  C     C_R   0.562891 0.186392 0.495299 -0.163940
C138  C     C_R   0.437109 0.186392 0.504700 -0.163940
C139  C     C_R   0.062891 0.686392 0.495299 -0.163940
C140  C     C_R   0.937109 0.686392 0.504701 -0.163940
C141  C     C_R   0.589091 0.217869 0.480994 -0.141813
C142  C     C_R   0.410909 0.217869 0.519006 -0.141812
C143  C     C_R   0.089091 0.717869 0.480994 -0.141813
C144  C     C_R   0.910909 0.717869 0.519007 -0.141814
C145  C     C_R   0.083377 0.780508 0.465688 0.212389
C146  C     C_R   0.916623 0.780508 0.534312 0.212389
C147  C     C_R   0.583377 0.280508 0.465688 0.212389
C148  C     C_R   0.416622 0.280508 0.534312 0.212389
C149  C     C_R   0.053123 0.812265 0.469106 -0.152378
C150  C     C_R   0.946877 0.812265 0.530894 -0.152378
C151  C     C_R   0.553123 0.312265 0.469106 -0.152378
C152  C     C_R   0.446877 0.312265 0.530893 -0.152378
C153  C     C_R   0.027809 0.781678 0.488046 0.060217
C154  C     C_R   0.972191 0.781678 0.511954 0.060217
C155  C     C_R   0.527809 0.281678 0.488046 0.060216
C156  C     C_R   0.472191 0.281678 0.511954 0.060218
C157  C     C_R   0.530307 0.217438 0.494766 0.077317
C158  C     C_R   0.469693 0.217438 0.505234 0.077316
C159  C     C_R   0.030307 0.717438 0.494766 0.077316
C160  C     C_R   0.969693 0.717438 0.505234 0.077317
C161  C     C_R   0.000000 0.813431 0.500000 -0.137463
C162  C     C_R   0.500000 0.313431 0.500000 -0.137463
C163  C     C_3   0.274438 0.030260 0.337153 -0.000702
C164  C     C_3   0.725562 0.030262 0.662848 -0.000702
C165  C     C_3   0.774438 0.530265 0.337150 -0.000704
C166  C     C_3   0.225562 0.530262 0.662848 -0.000702
C167  C     C_R   0.500000 0.185906 0.500000 -0.157066
C168  C     C_R   0.000000 0.685906 0.500000 -0.157066
C169  C     C_1   0.374652 0.001045 0.375157 -0.130715
C170  C     C_1   0.625348 0.001045 0.624843 -0.130715
C171  C     C_1   0.874652 0.501045 0.375157 -0.130714
C172  C     C_1   0.125348 0.501045 0.624843 -0.130715
C173  C     C_3   0.208983 0.001904 0.211564 0.229751
C174  C     C_3   0.791016 0.001905 0.788437 0.229750
C175  C     C_3   0.708983 0.501905 0.211563 0.229751
C176  C     C_3   0.291016 0.501904 0.788436 0.229751
C177  C     C_3   0.274596 0.935655 0.270626 -0.423280
C178  C     C_3   0.725404 0.935655 0.729372 -0.423280
C179  C     C_3   0.774596 0.435655 0.270630 -0.423280
C180  C     C_3   0.225404 0.435655 0.729372 -0.423279
C181  C     C_3   0.291379 0.002656 0.292515 0.221144
C182  C     C_3   0.708621 0.002657 0.707485 0.221144
C183  C     C_3   0.791379 0.502657 0.292515 0.221143
C184  C     C_3   0.208621 0.502656 0.707485 0.221143
H1    H     H_    0.284701 0.908025 0.320978 0.216971
H2    H     H_    0.715299 0.908026 0.679019 0.216971
H3    H     H_    0.784701 0.408028 0.320984 0.216971
H4    H     H_    0.215299 0.408026 0.679020 0.216971
H5    H     H_    0.216095 0.917845 0.163670 0.214435
H6    H     H_    0.783905 0.917843 0.836327 0.214434
H7    H     H_    0.716095 0.417842 0.163675 0.214434
H8    H     H_    0.283905 0.417844 0.836328 0.214434
H9    H     H_    0.287880 0.911734 0.243194 0.181939
H10   H     H_    0.712120 0.911732 0.756803 0.181939
H11   H     H_    0.787880 0.411730 0.243200 0.181939
H12   H     H_    0.212120 0.411733 0.756804 0.181939
H13   H     H_    0.077851 0.020402 0.215840 0.150113
H14   H     H_    0.922149 0.020401 0.784160 0.150113
H15   H     H_    0.577851 0.520401 0.215840 0.150113
H16   H     H_    0.422149 0.520402 0.784160 0.150113
H17   H     H_    0.871324 0.899671 0.167547 0.191619
H18   H     H_    0.128676 0.899672 0.832453 0.191619
H19   H     H_    0.371324 0.399671 0.167547 0.191619
H20   H     H_    0.628676 0.399670 0.832453 0.191619
H21   H     H_    0.213320 0.904330 0.241799 0.194321
H22   H     H_    0.786680 0.904331 0.758198 0.194321
H23   H     H_    0.713320 0.404331 0.241804 0.194321
H24   H     H_    0.286680 0.404330 0.758199 0.194321
H25   H     H_    0.921489 0.984092 0.058312 0.150512
H26   H     H_    0.078511 0.984093 0.941688 0.150512
H27   H     H_    0.421489 0.484093 0.058312 0.150512
H28   H     H_    0.578510 0.484091 0.941688 0.150512
H29   H     H_    0.612836 0.807882 0.745025 0.143848
H30   H     H_    0.387164 0.807882 0.254975 0.143848
H31   H     H_    0.112836 0.307882 0.745025 0.143848
H32   H     H_    0.887164 0.307882 0.254975 0.143848
H33   H     H_    0.431669 0.862546 0.370082 0.157722
H34   H     H_    0.568331 0.862546 0.629918 0.157722
H35   H     H_    0.931669 0.362546 0.370082 0.157722
H36   H     H_    0.068331 0.362546 0.629918 0.157722
H37   H     H_    0.950119 0.139387 0.357030 0.160590
H38   H     H_    0.049880 0.139387 0.642969 0.160590
H39   H     H_    0.450119 0.639387 0.357030 0.160590
H40   H     H_    0.549881 0.639387 0.642969 0.160590
H41   H     H_    0.386689 0.193210 0.519570 0.173698
H42   H     H_    0.613311 0.193210 0.480430 0.173698
H43   H     H_    0.886689 0.693210 0.519571 0.173699
H44   H     H_    0.113311 0.693210 0.480429 0.173698
H45   H     H_    0.568672 0.137717 0.506878 0.164364
H46   H     H_    0.431328 0.137717 0.493121 0.164364
H47   H     H_    0.068672 0.637717 0.506878 0.164364
H48   H     H_    0.931328 0.637717 0.493122 0.164364
H49   H     H_    0.049460 0.860612 0.455327 0.175359
H50   H     H_    0.950540 0.860612 0.544674 0.175359
H51   H     H_    0.549460 0.360612 0.455327 0.175359
H52   H     H_    0.450539 0.360612 0.544673 0.175360
H53   H     H_    0.212657 0.073085 0.286634 0.180007
H54   H     H_    0.787343 0.073087 0.713369 0.180007
H55   H     H_    0.712657 0.573090 0.286628 0.180007
H56   H     H_    0.287343 0.573087 0.713368 0.180007
H57   H     H_    0.215455 0.995491 0.317286 0.211843
H58   H     H_    0.784545 0.995494 0.682715 0.211844
H59   H     H_    0.715455 0.495497 0.317285 0.211844
H60   H     H_    0.284545 0.495493 0.682714 0.211843
H61   H     H_    0.283880 0.079297 0.350366 0.171068
H62   H     H_    0.716120 0.079299 0.649637 0.171068
H63   H     H_    0.783880 0.579302 0.350359 0.171069
H64   H     H_    0.216120 0.579299 0.649636 0.171068
H65   H     H_    0.210343 0.030727 0.116599 0.209304
H66   H     H_    0.789657 0.030724 0.883402 0.209305
H67   H     H_    0.710343 0.530721 0.116596 0.209305
H68   H     H_    0.289657 0.530725 0.883402 0.209304
H69   H     H_    0.214187 0.092118 0.173644 0.187862
H70   H     H_    0.785813 0.092117 0.826359 0.187862
H71   H     H_    0.714187 0.592116 0.173638 0.187861
H72   H     H_    0.285813 0.592117 0.826358 0.187861
O1    O     O_R   0.000000 0.948260 0.091620 -0.605508
O2    O     O_R   0.000000 0.948260 0.908380 -0.605508
O3    O     O_R   0.500000 0.448260 0.091620 -0.605509
O4    O     O_R   0.500000 0.448260 0.908380 -0.605509
O5    O     O_R   0.965320 0.000030 0.373720 -0.613366
O6    O     O_R   0.034680 0.000030 0.626280 -0.613367
O7    O     O_R   0.465320 0.500030 0.373720 -0.613366
O8    O     O_R   0.534680 0.500030 0.626280 -0.613367
O9    O     O_R   0.034670 0.000000 0.443070 -0.609993
O10   O     O_R   0.965330 0.000000 0.556930 -0.609994
O11   O     O_R   0.534670 0.500000 0.443070 -0.609993
O12   O     O_R   0.465330 0.500000 0.556930 -0.609993
O13   O     O_R   0.965330 0.091670 0.465370 -0.637145
O14   O     O_R   0.034670 0.091670 0.534630 -0.637146
O15   O     O_R   0.465330 0.591670 0.465370 -0.637145
O16   O     O_R   0.534670 0.591670 0.534630 -0.637146
O17   O     O_R   0.000000 0.051730 0.091640 -0.619739
O18   O     O_R   0.000000 0.051730 0.908360 -0.619740
O19   O     O_R   0.500000 0.551730 0.091640 -0.619739
O20   O     O_R   0.500000 0.551730 0.908360 -0.619740
O21   O     O_R   0.061430 0.948260 0.061430 -0.603655
O22   O     O_R   0.938570 0.948260 0.938570 -0.603654
O23   O     O_R   0.561430 0.448260 0.061430 -0.603654
O24   O     O_R   0.438570 0.448260 0.938570 -0.603654
O25   O     O_R   0.061430 0.051730 0.061450 -0.618338
O26   O     O_R   0.938570 0.051730 0.938550 -0.618338
O27   O     O_R   0.561430 0.551730 0.061450 -0.618338
O28   O     O_R   0.438570 0.551730 0.938550 -0.618338
O29   O     O_R   0.500000 0.908550 0.551750 -0.618579
O30   O     O_R   0.500000 0.908550 0.448250 -0.618579
O31   O     O_R   0.000000 0.408550 0.551750 -0.618580
O32   O     O_R   0.000000 0.408550 0.448250 -0.618579
O33   O     O_R   0.438570 0.000200 0.490310 -0.605657
O34   O     O_R   0.561430 0.000200 0.509690 -0.605656
O35   O     O_R   0.938570 0.500200 0.490310 -0.605657
O36   O     O_R   0.061430 0.500200 0.509690 -0.605656
O37   O     O_R   0.438570 0.000170 0.386870 -0.618906
O38   O     O_R   0.561430 0.000170 0.613130 -0.618905
O39   O     O_R   0.938570 0.500170 0.386870 -0.618906
O40   O     O_R   0.061430 0.500170 0.613130 -0.618905
O41   O     O_R   0.500000 0.091840 0.551720 -0.614056
O42   O     O_R   0.500000 0.091840 0.448280 -0.614055
O43   O     O_R   0.000000 0.591840 0.551720 -0.614056
O44   O     O_R   0.000000 0.591840 0.448280 -0.614055
O45   O     O_R   0.965310 0.908380 0.465300 -0.603455
O46   O     O_R   0.034690 0.908380 0.534700 -0.603456
O47   O     O_R   0.465310 0.408380 0.465300 -0.603454
O48   O     O_R   0.534690 0.408380 0.534700 -0.603456
Zn1   Zn    Zn3+2 0.000000 0.930910 0.000000 1.021769
Zn2   Zn    Zn3+2 0.500000 0.430910 0.000000 1.021769
Zn3   Zn    Zn3+2 0.000000 0.069090 0.000000 0.984000
Zn4   Zn    Zn3+2 0.500000 0.569090 0.000000 0.983999
Zn5   Zn    Zn3+2 0.500000 0.000200 0.569080 0.999335
Zn6   Zn    Zn3+2 0.500000 0.000200 0.430920 0.999334
Zn7   Zn    Zn3+2 0.000000 0.500200 0.569080 0.999335
Zn8   Zn    Zn3+2 1.000000 0.500200 0.430920 0.999335
Zn9   Zn    Zn3+2 0.953690 0.000030 0.453700 0.988647
Zn10  Zn    Zn3+2 0.046310 0.000030 0.546300 0.988646
Zn11  Zn    Zn3+2 0.453690 0.500030 0.453700 0.988647
Zn12  Zn    Zn3+2 0.546310 0.500030 0.546300 0.988646
I1    I     I_    0.298238 0.135875 0.246417 -0.382381
I2    I     I_    0.701762 0.135873 0.753588 -0.382380
I3    I     I_    0.798238 0.635871 0.246406 -0.382378
I4    I     I_    0.201762 0.635874 0.753587 -0.382380
I5    I     I_    0.834281 0.930617 0.003992 -0.442229
I6    I     I_    0.165719 0.930621 0.996008 -0.442231
I7    I     I_    0.334281 0.430619 0.003992 -0.442230
I8    I     I_    0.665718 0.430615 0.996009 -0.442228
C185  C     C_3   0.148308 0.065543 0.328578 -0.894198
H73   H     H_    0.173958 0.088284 0.379716 0.260277
H74   H     H_    0.159334 0.019012 0.326222 0.245361
H75   H     H_    0.142442 0.092818 0.280500 0.239309
C186  C     C_3   0.851692 0.065542 0.671421 -0.894197
H76   H     H_    0.826042 0.088282 0.620284 0.260278
H77   H     H_    0.840666 0.019011 0.673778 0.245361
H78   H     H_    0.857558 0.092817 0.719499 0.239309
C187  C     C_3   0.648308 0.565542 0.328579 -0.894200
H79   H     H_    0.673958 0.588282 0.379716 0.260279
H80   H     H_    0.659334 0.519011 0.326222 0.245362
H81   H     H_    0.642442 0.592817 0.280501 0.239310
C188  C     C_3   0.351692 0.565543 0.671422 -0.894197
H82   H     H_    0.326042 0.588284 0.620284 0.260277
H83   H     H_    0.340666 0.519013 0.673778 0.245361
H84   H     H_    0.357558 0.592819 0.719500 0.239309
C189  C     C_3   0.138195 0.114407 0.446471 -0.878172
H85   H     H_    0.166230 0.084147 0.476654 0.253463
H86   H     H_    0.145947 0.156967 0.428348 0.249128
H87   H     H_    0.131128 0.127731 0.487304 0.244243
C190  C     C_3   0.861804 0.114406 0.553529 -0.878173
H88   H     H_    0.833770 0.084146 0.523345 0.253463
H89   H     H_    0.854053 0.156966 0.571652 0.249128
H90   H     H_    0.868872 0.127730 0.512696 0.244243
C191  C     C_3   0.638195 0.614406 0.446471 -0.878171
H91   H     H_    0.666230 0.584146 0.476655 0.253462
H92   H     H_    0.645947 0.656966 0.428348 0.249128
H93   H     H_    0.631128 0.627730 0.487304 0.244243
C192  C     C_3   0.361805 0.614407 0.553529 -0.878171
H94   H     H_    0.333770 0.584148 0.523346 0.253462
H95   H     H_    0.354054 0.656967 0.571653 0.249128
H96   H     H_    0.368872 0.627731 0.512696 0.244244
C193  C     C_3   0.050838 0.116068 0.407522 -0.842835
H97   H     H_    0.068480 0.105894 0.467594 0.270780
H98   H     H_    0.058043 0.163963 0.400263 0.237004
H99   H     H_    0.016716 0.115130 0.382638 0.208131
C194  C     C_3   0.949161 0.116068 0.592477 -0.842837
H100  H     H_    0.931519 0.105894 0.532405 0.270781
H101  H     H_    0.941957 0.163963 0.599736 0.237005
H102  H     H_    0.983283 0.115130 0.617362 0.208132
C195  C     C_3   0.550838 0.616068 0.407523 -0.842837
H103  H     H_    0.568480 0.605894 0.467594 0.270781
H104  H     H_    0.558043 0.663963 0.400263 0.237005
H105  H     H_    0.516717 0.615130 0.382638 0.208132
C196  C     C_3   0.449162 0.616068 0.592478 -0.842836
H106  H     H_    0.431520 0.605894 0.532406 0.270781
H107  H     H_    0.441958 0.663963 0.599737 0.237005
H108  H     H_    0.483284 0.615130 0.617362 0.208132
I9    I     I_    0.947083 0.862720 0.313097 -0.335316
I10   I     I_    0.052918 0.862720 0.686903 -0.335316
I11   I     I_    0.447082 0.362720 0.313097 -0.335317
I12   I     I_    0.552917 0.362719 0.686903 -0.335318
C197  C     C_3   0.889949 0.185661 0.227019 -0.894234
H109  H     H_    0.867386 0.216855 0.181257 0.245675
H110  H     H_    0.910334 0.164225 0.211934 0.246213
H111  H     H_    0.871955 0.148967 0.232901 0.249531
C198  C     C_3   0.110051 0.185661 0.772981 -0.894234
H112  H     H_    0.132614 0.216855 0.818743 0.245675
H113  H     H_    0.089666 0.164225 0.788065 0.246214
H114  H     H_    0.128045 0.148967 0.767099 0.249531
C199  C     C_3   0.389949 0.685661 0.227019 -0.894235
H115  H     H_    0.367386 0.716854 0.181257 0.245675
H116  H     H_    0.410334 0.664225 0.211934 0.246213
H117  H     H_    0.371955 0.648967 0.232901 0.249531
C200  C     C_3   0.610051 0.685661 0.772981 -0.894236
H118  H     H_    0.632614 0.716855 0.818743 0.245675
H119  H     H_    0.589667 0.664225 0.788065 0.246214
H120  H     H_    0.628045 0.648967 0.767099 0.249531
I13   I     I_    0.120748 0.827886 0.438401 -0.322537
I14   I     I_    0.879252 0.827886 0.561600 -0.322538
I15   I     I_    0.620749 0.327886 0.438401 -0.322538
I16   I     I_    0.379251 0.327886 0.561598 -0.322537
I17   I     I_    0.300673 0.988525 0.444857 -0.369905
I18   I     I_    0.699327 0.988531 0.555143 -0.369906
I19   I     I_    0.800673 0.488536 0.444857 -0.369907
I20   I     I_    0.199327 0.488529 0.555143 -0.369905
C201  C     C_3   0.287342 0.016488 0.170065 -0.831431
H121  H     H_    0.277078 0.048248 0.122825 0.265526
H122  H     H_    0.321966 0.011791 0.201509 0.248529
H123  H     H_    0.272719 0.971131 0.146025 0.242109
C202  C     C_3   0.712658 0.016484 0.829936 -0.831430
H124  H     H_    0.722922 0.048243 0.877177 0.265525
H125  H     H_    0.678034 0.011786 0.798492 0.248528
H126  H     H_    0.727281 0.971127 0.853974 0.242108
C203  C     C_3   0.787342 0.516479 0.170063 -0.831431
H127  H     H_    0.777078 0.548237 0.122821 0.265526
H128  H     H_    0.821966 0.511781 0.201507 0.248528
H129  H     H_    0.772718 0.471122 0.146027 0.242108
C204  C     C_3   0.212658 0.516485 0.829936 -0.831431
H130  H     H_    0.222922 0.548245 0.877176 0.265525
H131  H     H_    0.178034 0.511788 0.798492 0.248528
H132  H     H_    0.227281 0.471128 0.853974 0.242108

loop_
_geom_bond_atom_site_label_1
_geom_bond_atom_site_label_2
_ccdc_geom_bond_type
C10   C174  S    
C81   H25   S    
C193  H97   S    
C12   H72   S    
C55   C59   A    
C154  C161  A    
C40   C196  S    
C165  H63   S    
C14   C170  T    
C72   I12   S    
C188  H82   S    
C48   O28   A    
C5    I1    S    
C179  H11   S    
C187  H79   S    
C53   C99   S    
C7    I3    S    
C177  H9    S    
C70   I10   S    
C26   C50   A    
C60   C72   A    
C90   C176  S    
O9    Zn10  S    
C112  H31   S    
C69   I9    S    
C149  C153  A    
C87   H21   S    
C197  H111  S    
C137  C141  A    
C94   C172  S    
C146  C150  A    
O19   Zn4   S    
C152  C156  A    
C92   C170  S    
C70   C74   A    
C96   C168  S    
C151  C155  A    
C98   O48   A    
C126  C174  S    
C196  H108  S    
C38   C194  S    
C139  C159  A    
C204  H131  S    
C37   C193  S    
C95   O41   A    
O17   Zn3   S    
C41   C49   A    
C192  H95   S    
C17   C173  S    
C158  C167  A    
O48   Zn12  S    
C48   O24   A    
C155  C162  A    
C25   C29   A    
C194  H102  S    
O29   Zn5   S    
C123  C134  A    
C27   C31   A    
C165  C183  S    
C103  O14   A    
C28   C32   A    
C79   I7    S    
C62   C66   A    
C58   C70   A    
C150  H50   S    
C73   H17   S    
C17   C21   T    
C153  C161  A    
C19   C23   T    
C127  H59   S    
O36   Zn8   S    
C142  C148  A    
C87   C177  S    
O30   Zn6   S    
O44   Zn8   S    
C36   C40   A    
C127  C165  S    
C119  H39   S    
C124  C130  A    
C111  C113  A    
C190  H90   S    
C178  C182  S    
C107  H35   S    
O37   Zn6   S    
C45   O25   A    
C131  C136  A    
C193  H99   S    
C105  H33   S    
C198  H112  S    
C128  H60   S    
C202  H126  S    
C126  H54   S    
C110  C116  A    
C188  H84   S    
C142  H41   S    
C187  H81   S    
C106  C130  A    
C91   O33   A    
C178  H10   S    
C9    H69   S    
C105  C129  A    
C16   C184  S    
C57   C61   A    
C152  H52   S    
C119  C123  A    
C59   C63   A    
C7    C183  S    
C60   C64   A    
C166  H64   S    
C156  C158  A    
C104  O15   A    
O20   Zn4   S    
C195  H103  S    
O8    Zn12  S    
C89   H23   S    
C100  O10   A    
C3    O3    A    
C160  C168  A    
C141  C147  A    
C178  H2    S    
C61   C65   A    
O13   Zn9   S    
C99   O5    A    
C92   O34   A    
C77   I5    S    
C139  H47   S    
C203  H127  S    
C202  H124  S    
C75   C79   A    
O42   Zn6   S    
C180  C184  S    
C199  H116  S    
C191  H91   S    
C29   C33   A    
C163  C181  S    
O6    Zn10  S    
C30   C34   A    
C112  C114  A    
C201  H121  S    
C90   H8    S    
C104  C134  S    
C6    C182  S    
C64   C68   A    
C88   C174  S    
C118  H38   S    
C118  C122  A    
C185  H74   S    
C129  C135  A    
C139  C143  A    
C64   C84   A    
C126  H58   S    
C198  H114  S    
C1    C65   S    
C9    C173  S    
C132  C136  A    
C12   C176  S    
C6    I2    S    
C35   C191  S    
C120  H40   S    
C186  H77   S    
C163  I17   S    
O7    Zn11  S    
C27   C51   A    
C21   C45   S    
C189  H86   S    
O33   Zn5   S    
C90   C180  S    
C23   C47   S    
C85   O30   A    
C91   C169  S    
O35   Zn7   S    
C24   C48   S    
C138  H46   S    
O10   Zn9   S    
C27   H15   S    
C109  H30   S    
C195  H105  S    
C4    C68   S    
C75   H19   S    
C149  H49   S    
C116  C120  A    
C10   H66   S    
C96   O43   A    
C147  C151  A    
O25   Zn3   S    
C5    C9    S    
O2    Zn1   S    
C138  C158  A    
O39   Zn8   S    
C8    C12   S    
O40   Zn7   S    
C151  H51   S    
C51   C67   A    
C203  H129  S    
C41   C53   A    
C47   O27   A    
C42   C50   A    
O22   Zn1   S    
C113  C117  A    
C18   C174  S    
C43   C55   A    
C26   C30   A    
C191  H93   S    
C115  C119  A    
C74   C78   A    
C46   O26   A    
C90   H24   S    
C201  H123  S    
O27   Zn4   S    
C198  H113  S    
O43   Zn7   S    
C141  H42   S    
C105  C109  A    
C73   C77   A    
C18   C22   T    
C107  C111  A    
C166  C184  S    
C76   C80   A    
C2    C66   S    
C180  H12   S    
C3    O19   A    
C36   C192  S    
C13   C181  S    
C137  C157  A    
C56   C102  S    
C61   C81   A    
C140  C160  A    
O28   Zn4   S    
C20   C176  S    
O38   Zn5   S    
C177  C181  S    
C8    C204  S    
C95   C167  S    
C37   C41   A    
C26   H14   S    
C19   C175  S    
C197  H110  S    
O47   Zn11  S    
C40   C44   A    
C4    O4    A    
C30   C186  S    
C164  I18   S    
C97   O46   A    
O1    Zn1   S    
C196  H107  S    
C58   C62   A    
C127  H55   S    
C204  H130  S    
C155  C157  A    
C86   O31   A    
C130  C135  A    
C7    C203  S    
C80   C84   A    
C157  C167  A    
O21   Zn1   S    
C192  H94   S    
C88   H6    S    
C194  H101  S    
O45   Zn9   S    
C103  O13   A    
C114  C118  A    
C54   C58   A    
C179  H3    S    
C92   O38   A    
C177  H1    S    
C93   O39   A    
C143  C145  A    
C115  C199  S    
C94   O40   A    
C180  H4    S    
C98   C162  S    
C47   O23   A    
C15   C183  S    
C11   H71   S    
C144  H43   S    
C69   C73   A    
C190  H89   S    
C62   C82   A    
C193  H98   S    
O46   Zn10  S    
O15   Zn11  S    
C5    C181  S    
C188  H83   S    
O18   Zn3   S    
C1    O1    A    
C187  H80   S    
C127  C175  S    
C87   C173  S    
C128  C176  S    
C148  C152  A    
C111  H32   S    
C137  H45   S    
C138  C142  A    
C53   C57   A    
C74   H18   S    
C33   C37   A    
C56   C60   A    
C63   C83   A    
C35   C39   A    
C104  O16   A    
C44   C56   A    
C77   C81   A    
C113  C197  S    
C88   C178  S    
C32   C188  S    
O41   Zn5   S    
C85   O29   A    
C144  C146  A    
C22   C46   S    
C140  H48   S    
C204  H132  S    
C57   C69   A    
C95   O42   A    
C31   C35   A    
C89   C175  S    
O11   Zn12  S    
C32   C36   A    
C192  H96   S    
C125  H53   S    
C147  I15   S    
C199  H115  S    
C33   C189  S    
C93   C171  S    
C145  I13   S    
C10   H70   S    
C140  C144  A    
C6    C10   S    
C84   H28   S    
C25   H13   S    
C124  C134  A    
C128  H56   S    
C11   C175  S    
C12   H68   S    
C195  H104  S    
C42   C54   A    
C79   C83   A    
C43   C51   A    
C46   O22   A    
C31   C187  S    
C29   C185  S    
C185  H73   S    
C25   C49   A    
C164  C182  S    
C108  H36   S    
C108  C112  A    
C78   I6    S    
C200  H119  S    
C116  C200  S    
C145  C149  A    
C97   C161  S    
C82   H26   S    
C186  H76   S    
C117  H37   S    
C143  H44   S    
C72   C76   A    
C125  C173  S    
C189  H85   S    
C7    C11   S    
C28   H16   S    
C49   C65   A    
C8    I4    S    
C38   C42   A    
C202  H125  S    
C96   O44   A    
C2    O18   A    
C159  C168  A    
O16   Zn12  S    
C78   C82   A    
C117  C121  A    
O12   Zn11  S    
C20   C24   T    
C125  H57   S    
C203  H128  S    
C164  H62   S    
C1    O17   A    
C52   C68   A    
C71   I11   S    
C87   H5    S    
C199  H117  S    
C8    C184  S    
C101  O11   A    
C34   C190  S    
C156  C162  A    
C191  H92   S    
C102  O12   A    
C123  C129  A    
C128  C166  S    
C54   C100  S    
C125  C163  S    
C121  C131  A    
C126  C164  S    
C122  C132  A    
C201  H122  S    
O3    Zn2   S    
C179  C183  S    
O24   Zn2   S    
O14   Zn10  S    
C63   C67   A    
C108  C132  A    
C93   O35   A    
C15   C171  T    
C4    O20   A    
C94   O36   A    
C39   C195  S    
C110  H29   S    
C5    C201  S    
C107  C131  A    
O23   Zn2   S    
C39   C43   A    
C165  I19   S    
C166  I20   S    
C91   O37   A    
C11   H67   S    
O4    Zn2   S    
C153  C159  A    
C185  H75   S    
C9    H65   S    
C122  C133  A    
C154  C160  A    
C98   O47   A    
C200  H120  S    
C16   C172  T    
C148  I16   S    
C89   H7    S    
C50   C66   A    
C197  H109  S    
C14   C182  S    
C85   C135  S    
C86   C136  S    
C2    O2    A    
C100  O6    A    
C101  O7    A    
C80   I8    S    
C186  H78   S    
C102  O8    A    
C97   O45   A    
C196  H106  S    
C106  C110  A    
C189  H87   S    
C114  C198  S    
C99   O9    A    
C106  H34   S    
C34   C38   A    
C6    C202  S    
C86   O32   A    
C3    C67   S    
C88   H22   S    
C76   H20   S    
O34   Zn6   S    
C194  H100  S    
C55   C101  S    
C45   O21   A    
O5    Zn9   S    
C121  C133  A    
C103  C133  S    
O26   Zn3   S    
C71   C75   A    
C28   C52   A    
C44   C52   A    
C200  H118  S    
C13   C169  T    
C89   C179  S    
C163  H61   S    
C109  C115  A    
C150  C154  A    
C146  I14   S    
O31   Zn7   S    
C190  H88   S    
O32   Zn8   S    
C83   H27   S    
C120  C124  A    
C59   C71   A    
