data_mof_unit_11706.cif
_audit_creation_date              2012-12-11T16:26:36-0500
_audit_creation_method            fapswitch 2.2
_symmetry_space_group_name_H-M    P1
_symmetry_Int_Tables_number       1
_space_group_crystal_system       triclinic
_cell_length_a                    13.952017
_cell_length_b                    13.961788
_cell_length_c                    31.947962
_cell_angle_alpha                 90.172376
_cell_angle_beta                  89.998258
_cell_angle_gamma                 119.977826
_cell_volume                      5390.71322711

loop_
_atom_site_label
_atom_site_type_symbol
_atom_type_description
_atom_site_fract_x
_atom_site_fract_y
_atom_site_fract_z
_atom_type_partial_charge
C1    C     C_R   0.567154 0.444555 0.810518 0.529613
C2    C     C_R   0.877029 0.432700 0.689600 0.536220
C3    C     C_R   0.556040 0.123285 0.810485 0.534875
C4    C     C_R   0.567071 0.444037 0.689543 0.528584
C5    C     C_R   0.877155 0.433051 0.810557 0.529780
C6    C     C_R   0.555421 0.122458 0.689481 0.529262
C7    C     C_R   0.444335 0.567295 0.310397 0.536263
C8    C     C_R   0.432754 0.876706 0.189512 0.534797
C9    C     C_R   0.123010 0.555951 0.310449 0.528542
C10   C     C_R   0.444109 0.566949 0.189444 0.529834
C11   C     C_R   0.432966 0.877562 0.310514 0.529231
C12   C     C_R   0.122605 0.555448 0.189480 0.529599
C13   C     C_1   0.998282 0.534081 0.019374 -0.029512
C14   C     C_1   0.534162 0.996875 0.481213 -0.029459
C15   C     C_1   0.461122 0.470025 0.018115 -0.029616
C16   C     C_1   0.013907 0.529549 0.482253 -0.029407
C17   C     C_1   0.521904 0.994606 0.018620 -0.028569
C18   C     C_1   0.479083 0.474911 0.480407 -0.028961
C19   C     C_1   0.537499 0.003568 0.518735 -0.029442
C20   C     C_1   0.991053 0.530030 0.981889 -0.029626
C21   C     C_1   0.484539 0.470140 0.517694 -0.029385
C22   C     C_1   0.527156 0.005103 0.981349 -0.028570
C23   C     C_1   0.003682 0.524757 0.519539 -0.028966
C24   C     C_1   0.464303 0.465984 0.980631 -0.029506
C25   C     C_R   0.931928 0.473765 0.851810 0.001887
C26   C     C_R   0.539005 0.065178 0.648572 0.003172
C27   C     C_R   0.525863 0.461184 0.851247 0.003086
C28   C     C_R   0.930398 0.471619 0.648392 0.009231
C29   C     C_R   0.542660 0.071037 0.851883 0.007319
C30   C     C_R   0.528872 0.457247 0.647914 0.003568
C31   C     C_R   0.473860 0.934965 0.351401 0.003175
C32   C     C_R   0.064688 0.538836 0.148752 0.003081
C33   C     C_R   0.458813 0.528333 0.351591 0.009260
C34   C     C_R   0.471610 0.928930 0.148107 0.007251
C35   C     C_R   0.071497 0.542692 0.352059 0.003511
C36   C     C_R   0.458187 0.526234 0.148194 0.001920
C37   C     C_R   0.917480 0.555265 0.872371 -0.139153
C38   C     C_R   0.632517 0.070625 0.629207 -0.136718
C39   C     C_R   0.438403 0.367606 0.870721 -0.139196
C40   C     C_R   0.901684 0.539119 0.624991 -0.141186
C41   C     C_R   0.639379 0.097455 0.874710 -0.141120
C42   C     C_R   0.459126 0.360385 0.625083 -0.140782
C43   C     C_R   0.562100 0.929786 0.370738 -0.136674
C44   C     C_R   0.070800 0.632423 0.129287 -0.139173
C45   C     C_R   0.362612 0.460877 0.375009 -0.141197
C46   C     C_R   0.542020 0.902618 0.125300 -0.141113
C47   C     C_R   0.098669 0.639524 0.374918 -0.140837
C48   C     C_R   0.362242 0.444756 0.127625 -0.139150
C49   C     C_R   0.941285 0.577278 0.914785 -0.118987
C50   C     C_R   0.631145 0.045887 0.586869 -0.116767
C51   C     C_R   0.414225 0.370030 0.912883 -0.118020
C52   C     C_R   0.929976 0.560372 0.583004 -0.120696
C53   C     C_R   0.633863 0.072070 0.916982 -0.120769
C54   C     C_R   0.441765 0.364984 0.582487 -0.120275
C55   C     C_R   0.585549 0.954645 0.413066 -0.116736
C56   C     C_R   0.044181 0.630015 0.087128 -0.118020
C57   C     C_R   0.369688 0.439501 0.416978 -0.120702
C58   C     C_R   0.561827 0.927903 0.083017 -0.120748
C59   C     C_R   0.076562 0.634841 0.417503 -0.120293
C60   C     C_R   0.364061 0.422757 0.085211 -0.119002
C61   C     C_R   0.980822 0.519045 0.937327 0.026448
C62   C     C_R   0.535716 0.013406 0.563319 0.025732
C63   C     C_R   0.475595 0.466496 0.936104 0.026010
C64   C     C_R   0.988183 0.515458 0.563776 0.024972
C65   C     C_R   0.531746 0.019300 0.937058 0.025704
C66   C     C_R   0.493162 0.466402 0.562076 0.025608
C67   C     C_R   0.522517 0.986999 0.436631 0.025695
C68   C     C_R   0.009073 0.533558 0.063900 0.026013
C69   C     C_R   0.472834 0.484238 0.436173 0.024944
C70   C     C_R   0.512312 0.980468 0.062914 0.025721
C71   C     C_R   0.026341 0.533368 0.437874 0.025595
C72   C     C_R   0.461853 0.480983 0.062678 0.026453
C73   C     C_R   0.004680 0.444852 0.916908 -0.114219
C74   C     C_R   0.439164 0.997482 0.582658 -0.114440
C75   C     C_R   0.555505 0.562726 0.916630 -0.113741
C76   C     C_R   0.024261 0.454827 0.586985 -0.114835
C77   C     C_R   0.434316 0.985677 0.914484 -0.114490
C78   C     C_R   0.556090 0.564155 0.584567 -0.115576
C79   C     C_R   0.441728 0.002692 0.417314 -0.114436
C80   C     C_R   0.992763 0.437324 0.083364 -0.113731
C81   C     C_R   0.569521 0.544811 0.412943 -0.114827
C82   C     C_R   0.448393 0.013993 0.085466 -0.114485
C83   C     C_R   0.991461 0.435653 0.415352 -0.115580
C84   C     C_R   0.559898 0.555147 0.083106 -0.114204
C85   C     C_R   0.982452 0.422596 0.874024 -0.020185
C86   C     C_R   0.438684 0.021581 0.625305 -0.019853
C87   C     C_R   0.581325 0.562081 0.874243 -0.018920
C88   C     C_R   0.996688 0.432935 0.629400 -0.022875
C89   C     C_R   0.438519 0.009867 0.871782 -0.021394
C90   C     C_R   0.573449 0.561044 0.627640 -0.021002
C91   C     C_R   0.417040 0.978448 0.374682 -0.019837
C92   C     C_R   0.019252 0.437953 0.125747 -0.018930
C93   C     C_R   0.563806 0.566849 0.370547 -0.022918
C94   C     C_R   0.428472 0.989911 0.128177 -0.021328
C95   C     C_R   0.012075 0.438850 0.372287 -0.020998
C96   C     C_R   0.559901 0.577388 0.125991 -0.020160
Cr1   Cr    Cr6+3 0.504240 0.249200 0.750000 1.015196
Cr2   Cr    Cr6+3 0.744960 0.495760 0.750000 1.016978
Cr3   Cr    Cr6+3 0.750800 0.255040 0.750000 1.015429
Cr4   Cr    Cr6+3 0.249200 0.504240 0.250000 1.017036
Cr5   Cr    Cr6+3 0.495760 0.744960 0.250000 1.015322
Cr6   Cr    Cr6+3 0.255040 0.750800 0.250000 1.015218
H1    H     H_    0.881315 0.597746 0.856310 0.146509
H2    H     H_    0.709566 0.100867 0.646109 0.127949
H3    H     H_    0.392947 0.289668 0.854175 0.133989
H4    H     H_    0.851350 0.570496 0.638361 0.141772
H5    H     H_    0.720534 0.143873 0.860619 0.144328
H6    H     H_    0.423143 0.279812 0.639556 0.146712
H7    H     H_    0.608989 0.899660 0.353823 0.127739
H8    H     H_    0.103289 0.710357 0.145837 0.134138
H9    H     H_    0.280890 0.429628 0.361667 0.141792
H10   H     H_    0.576888 0.856348 0.139414 0.144320
H11   H     H_    0.143415 0.720124 0.360476 0.146788
H12   H     H_    0.283581 0.402287 0.143678 0.146543
H13   H     H_    0.055990 0.704801 0.072251 0.108605
H14   H     H_    0.649447 0.943757 0.427765 0.109258
H15   H     H_    0.288209 0.363800 0.069601 0.105236
H16   H     H_    0.102542 0.710701 0.434868 0.106839
H17   H     H_    0.612076 0.902369 0.065655 0.109071
H18   H     H_    0.294465 0.392031 0.434880 0.111430
H19   H     H_    0.705984 0.056958 0.572153 0.109243
H20   H     H_    0.924405 0.636253 0.930387 0.105237
H21   H     H_    0.391804 0.289094 0.565149 0.106854
H22   H     H_    0.709636 0.097688 0.934361 0.109072
H23   H     H_    0.902263 0.607897 0.565118 0.111385
H24   H     H_    0.351256 0.295250 0.927767 0.108640
H25   H     H_    0.962540 0.362085 0.065043 0.109253
H26   H     H_    0.395888 0.031558 0.435824 0.108990
H27   H     H_    0.636392 0.596671 0.065450 0.109114
H28   H     H_    0.948612 0.356847 0.431406 0.111821
H29   H     H_    0.412673 0.057519 0.069661 0.112736
H30   H     H_    0.649470 0.577188 0.428077 0.114086
H31   H     H_    0.364426 0.968512 0.564161 0.108966
H32   H     H_    0.039626 0.403319 0.934570 0.109119
H33   H     H_    0.592162 0.642925 0.568482 0.111824
H34   H     H_    0.355043 0.942003 0.930267 0.112799
H35   H     H_    0.071701 0.422333 0.571827 0.114032
H36   H     H_    0.600532 0.637974 0.934946 0.109248
O1    O     O_R   0.480350 0.140770 0.796330 -0.500281
O2    O     O_R   0.660420 0.519650 0.703670 -0.502598
O3    O     O_R   0.859230 0.339580 0.796330 -0.500429
O4    O     O_R   0.480350 0.140770 0.703670 -0.501808
O5    O     O_R   0.660420 0.519650 0.796330 -0.500815
O6    O     O_R   0.859230 0.339580 0.703670 -0.502748
O7    O     O_R   0.140770 0.480350 0.296330 -0.502605
O8    O     O_R   0.519650 0.660420 0.203670 -0.500439
O9    O     O_R   0.339580 0.859230 0.296330 -0.501865
O10   O     O_R   0.140770 0.480350 0.203670 -0.500819
O11   O     O_R   0.519650 0.660420 0.296330 -0.502862
O12   O     O_R   0.339580 0.859230 0.203670 -0.500226
O13   O     O_R   0.514930 0.348530 0.793250 -0.504871
O14   O     O_R   0.833600 0.485070 0.706750 -0.505971
O15   O     O_R   0.651470 0.166400 0.793250 -0.505840
O16   O     O_R   0.514930 0.348530 0.706750 -0.505865
O17   O     O_R   0.833600 0.485070 0.793250 -0.503745
O18   O     O_R   0.651470 0.166400 0.706750 -0.505364
O19   O     O_R   0.348530 0.514930 0.293250 -0.505937
O20   O     O_R   0.485070 0.833600 0.206750 -0.505853
O21   O     O_R   0.166400 0.651470 0.293250 -0.505852
O22   O     O_R   0.348530 0.514930 0.206750 -0.503707
O23   O     O_R   0.485070 0.833600 0.293250 -0.505366
O24   O     O_R   0.166400 0.651470 0.206750 -0.504855
O25   O     O_3   0.666667 0.333333 0.750000 -0.226954
O26   O     O_3   0.333333 0.666667 0.250000 -0.226939
C97   C     C_R   0.002219 0.332929 0.143750 0.056808
C98   C     C_R   0.932725 0.285110 0.178474 -0.058840
C99   C     C_R   0.915042 0.184302 0.194374 -0.099521
C100  C     C_R   0.966751 0.131069 0.176018 -0.113726
C101  C     C_R   0.034386 0.177228 0.141052 -0.128028
C102  C     C_R   0.051552 0.277308 0.124810 -0.100211
H37   H     H_    0.891994 0.325462 0.192975 0.091696
H38   H     H_    0.860643 0.146735 0.220705 0.104445
H39   H     H_    0.953747 0.053778 0.188770 0.101504
H40   H     H_    0.073149 0.135438 0.126304 0.102679
H41   H     H_    0.103633 0.311787 0.097549 0.091661
C103  C     C_R   0.331054 0.998523 0.356312 0.055281
C104  C     C_R   0.225135 0.950561 0.374341 -0.099618
C105  C     C_R   0.144944 0.971976 0.357860 -0.123238
C106  C     C_R   0.170442 0.043141 0.323814 -0.112406
C107  C     C_R   0.276261 0.093203 0.306334 -0.099811
C108  C     C_R   0.356320 0.070734 0.322282 -0.058987
H42   H     H_    0.204720 0.896536 0.401116 0.088789
H43   H     H_    0.063367 0.934098 0.371721 0.105143
H44   H     H_    0.108603 0.060267 0.311183 0.100169
H45   H     H_    0.296403 0.150294 0.280708 0.102959
H46   H     H_    0.438163 0.110509 0.308518 0.093006
C109  C     C_R   0.667466 0.651328 0.146369 0.054545
C110  C     C_R   0.703728 0.612469 0.179863 -0.062582
C111  C     C_R   0.808770 0.679188 0.197139 -0.098558
C112  C     C_R   0.877780 0.785312 0.181512 -0.111784
C113  C     C_R   0.842343 0.824518 0.148156 -0.121572
C114  C     C_R   0.737716 0.757807 0.130526 -0.093739
H47   H     H_    0.651639 0.529822 0.191957 0.091958
H48   H     H_    0.837342 0.648014 0.222221 0.104266
H49   H     H_    0.958934 0.836570 0.195075 0.099483
H50   H     H_    0.896294 0.906038 0.135588 0.097621
H51   H     H_    0.711683 0.788780 0.104427 0.090589
C115  C     C_R   0.965905 0.332530 0.349604 0.056269
C116  C     C_R   0.995632 0.253836 0.361174 -0.086345
C117  C     C_R   0.943308 0.149043 0.342568 -0.117437
C118  C     C_R   0.860139 0.121711 0.312770 -0.110548
C119  C     C_R   0.830027 0.199645 0.301227 -0.113596
C120  C     C_R   0.883437 0.305143 0.319223 -0.074862
H52   H     H_    0.058288 0.273304 0.384892 0.092684
H53   H     H_    0.966139 0.088591 0.351750 0.090843
H54   H     H_    0.818661 0.040053 0.298787 0.099466
H55   H     H_    0.764633 0.178063 0.278564 0.091941
H56   H     H_    0.858154 0.364198 0.310508 0.086965
C121  C     C_R   0.364822 0.031860 0.150822 0.055420
C122  C     C_R   0.419421 0.122779 0.177924 -0.082849
C123  C     C_R   0.360969 0.168290 0.196936 -0.114158
C124  C     C_R   0.247439 0.121808 0.189719 -0.107291
C125  C     C_R   0.192537 0.030427 0.163106 -0.120190
C126  C     C_R   0.251126 0.986157 0.143306 -0.078073
H57   H     H_    0.507469 0.159765 0.183535 0.092977
H58   H     H_    0.403802 0.239791 0.217169 0.093875
H59   H     H_    0.202152 0.156786 0.204634 0.109451
H60   H     H_    0.104878 0.994654 0.157408 0.086513
H61   H     H_    0.208245 0.916711 0.122106 0.093211
C127  C     C_R   0.668856 0.627810 0.347415 0.050066
C128  C     C_R   0.729281 0.743803 0.348444 -0.065386
C129  C     C_R   0.832649 0.800796 0.328967 -0.117684
C130  C     C_R   0.877429 0.742309 0.309407 -0.104319
C131  C     C_R   0.818423 0.626704 0.308985 -0.116523
C132  C     C_R   0.713995 0.569490 0.327616 -0.095523
H62   H     H_    0.696680 0.789669 0.364550 0.096224
H63   H     H_    0.878663 0.890201 0.329487 0.086247
H64   H     H_    0.958004 0.786505 0.294761 0.111112
H65   H     H_    0.853695 0.581406 0.294282 0.095008
H66   H     H_    0.669362 0.479919 0.327400 0.098280
C133  C     C_R   0.332557 0.001158 0.643728 0.055247
C134  C     C_R   0.274346 0.048958 0.625791 -0.099433
C135  C     C_R   0.172694 0.027225 0.642336 -0.123231
C136  C     C_R   0.127255 0.955929 0.676362 -0.112362
C137  C     C_R   0.183283 0.906046 0.693755 -0.099743
C138  C     C_R   0.285844 0.928821 0.677737 -0.059101
H67   H     H_    0.307796 0.103108 0.599039 0.088785
H68   H     H_    0.128786 0.064962 0.628541 0.104888
H69   H     H_    0.048261 0.938568 0.689046 0.100284
H70   H     H_    0.146529 0.848864 0.719369 0.103081
H71   H     H_    0.328128 0.889187 0.691435 0.092955
C139  C     C_R   0.016063 0.348637 0.853656 0.054557
C140  C     C_R   0.091269 0.387508 0.820189 -0.062617
C141  C     C_R   0.129582 0.320770 0.802926 -0.098530
C142  C     C_R   0.092359 0.214611 0.818532 -0.111755
C143  C     C_R   0.017630 0.175392 0.851863 -0.121560
C144  C     C_R   0.979736 0.242129 0.869486 -0.093717
H72   H     H_    0.121907 0.470179 0.808110 0.091871
H73   H     H_    0.189408 0.351953 0.777870 0.104086
H74   H     H_    0.122241 0.163340 0.804973 0.099350
H75   H     H_    0.989981 0.093842 0.864416 0.097707
H76   H     H_    0.922669 0.211151 0.895568 0.090575
C145  C     C_R   0.633736 0.667414 0.650282 0.056278
C146  C     C_R   0.742267 0.745886 0.638741 -0.086301
C147  C     C_R   0.794914 0.850714 0.657319 -0.117447
C148  C     C_R   0.739146 0.878304 0.687058 -0.110523
C149  C     C_R   0.630985 0.800599 0.698566 -0.113567
C150  C     C_R   0.578716 0.695063 0.680601 -0.074890
H77   H     H_    0.785410 0.726216 0.615068 0.092609
H78   H     H_    0.878285 0.910991 0.648160 0.090862
H79   H     H_    0.779469 0.959990 0.701020 0.099546
H80   H     H_    0.587223 0.822387 0.721179 0.091958
H81   H     H_    0.494300 0.636182 0.689292 0.087072
C151  C     C_R   0.332935 0.967782 0.849115 0.055311
C152  C     C_R   0.296442 0.876440 0.822218 -0.083256
C153  C     C_R   0.192430 0.830743 0.803232 -0.114297
C154  C     C_R   0.125493 0.877430 0.810281 -0.107292
C155  C     C_R   0.162137 0.969219 0.836692 -0.120112
C156  C     C_R   0.265060 0.013704 0.856459 -0.077693
H82   H     H_    0.347401 0.839269 0.816751 0.093140
H83   H     H_    0.163629 0.758935 0.783152 0.093962
H84   H     H_    0.045180 0.842292 0.795393 0.109504
H85   H     H_    0.110317 0.005128 0.842269 0.086474
H86   H     H_    0.291745 0.083455 0.877517 0.093255
C157  C     C_R   0.040786 0.371977 0.652522 0.050253
C158  C     C_R   0.985510 0.256002 0.651320 -0.065726
C159  C     C_R   0.031900 0.199046 0.670813 -0.117666
C160  C     C_R   0.134906 0.257569 0.690558 -0.104177
C161  C     C_R   0.191221 0.373170 0.691152 -0.116390
C162  C     C_R   0.143966 0.430334 0.672515 -0.095238
H87   H     H_    0.907261 0.210123 0.635071 0.095970
H88   H     H_    0.988727 0.109649 0.670162 0.086257
H89   H     H_    0.171309 0.213408 0.705213 0.111016
H90   H     H_    0.271606 0.418508 0.705991 0.094834
H91   H     H_    0.188677 0.519904 0.672873 0.098100
C163  C     C_R   0.669271 0.667108 0.856220 0.056816
C164  C     C_R   0.647525 0.714862 0.821494 -0.058863
C165  C     C_R   0.730607 0.815657 0.805566 -0.099488
C166  C     C_R   0.835576 0.868945 0.823898 -0.113698
C167  C     C_R   0.857127 0.822852 0.858865 -0.128066
C168  C     C_R   0.774256 0.722782 0.875134 -0.100182
H92   H     H_    0.566421 0.674467 0.807011 0.091660
H93   H     H_    0.713716 0.853167 0.779232 0.104396
H94   H     H_    0.899829 0.946231 0.811128 0.101538
H95   H     H_    0.937707 0.864687 0.873592 0.102658
H96   H     H_    0.791916 0.688350 0.902394 0.091652

loop_
_geom_bond_atom_site_label_1
_geom_bond_atom_site_label_2
_ccdc_geom_bond_type
C68   C80   A    
C44   H8    S    
C4    O16   A    
C79   H26   S    
C112  C113  A    
C82   C94   A    
C46   H10   S    
Cr2   O5    S    
C18   C21   T    
C2    O6    A    
C118  C119  A    
C39   C51   A    
C150  H81   S    
C87   C163  S    
C11   O23   A    
C30   C90   A    
C8    O20   A    
C131  C132  A    
C29   C89   A    
Cr2   O25   S    
C137  C138  A    
C134  H67   S    
C135  H68   S    
Cr2   O14   S    
C144  H76   S    
C78   C90   A    
C159  C160  A    
C15   C72   S    
C16   C71   S    
C45   C57   A    
C54   C66   A    
C97   C98   A    
C31   C43   A    
C163  C168  A    
C93   C127  S    
C86   C133  S    
C146  H77   S    
C40   H4    S    
C91   C103  S    
C88   C157  S    
Cr4   O10   S    
C81   C93   A    
C167  C168  A    
C126  H61   S    
C163  C164  A    
C21   C66   S    
C13   C68   S    
C9    C35   S    
Cr2   O17   S    
C9    O21   A    
C124  H59   S    
C60   C72   A    
C19   C62   S    
C104  H42   S    
C74   H31   S    
Cr3   O15   S    
C84   H27   S    
C3    O15   A    
C117  H53   S    
C33   C45   A    
C141  C142  A    
C83   C95   A    
C47   H11   S    
C149  C150  A    
C84   C96   A    
C42   H6    S    
C9    O7    A    
C20   C61   S    
C3    C29   S    
C44   C56   A    
C113  H50   S    
C134  C135  A    
C132  H66   S    
C38   H2    S    
C73   H32   S    
C25   C37   A    
C7    O11   A    
Cr4   O19   S    
C140  C141  A    
C157  C162  A    
C130  C131  A    
C27   C39   A    
C151  C152  A    
Cr1   O25   S    
C155  H85   S    
C28   C88   A    
C62   C74   A    
C101  H40   S    
C48   C60   A    
C115  C116  A    
C34   C46   A    
C77   H34   S    
C36   C96   A    
C6    O4    A    
C159  H88   S    
C53   C65   A    
C152  C153  A    
C143  C144  A    
C79   C91   A    
C105  H43   S    
C26   C86   A    
C102  H41   S    
C18   C69   S    
C165  H93   S    
C123  H58   S    
C11   C31   S    
C116  C117  A    
C142  C143  A    
C46   C58   A    
C154  C155  A    
C7    C33   S    
C96   C109  S    
C103  C108  A    
C50   H19   S    
C145  C150  A    
C25   C85   A    
C127  C128  A    
Cr3   O3    S    
C105  C106  A    
C36   C48   A    
C71   C83   A    
C143  H75   S    
Cr5   O26   S    
C6    C26   S    
C2    O14   A    
C100  H39   S    
C66   C78   A    
Cr5   O8    S    
C72   C84   A    
C49   C61   A    
C141  H73   S    
C149  H80   S    
C101  C102  A    
C23   C64   S    
Cr3   O6    S    
C108  H46   S    
C67   C79   A    
C83   H28   S    
C121  C122  A    
C119  C120  A    
C111  H48   S    
C99   C100  A    
C37   H1    S    
C130  H64   S    
C26   C38   A    
C81   H30   S    
C125  H60   S    
C61   C73   A    
C40   C52   A    
Cr6   O21   S    
C47   C59   A    
C128  H62   S    
C53   H22   S    
C111  C112  A    
C4    C30   S    
C167  H95   S    
Cr2   O2    S    
C110  C111  A    
C55   H14   S    
C138  H71   S    
C80   C92   A    
C8    O12   A    
C152  H82   S    
C22   C65   S    
C128  C129  A    
C1    O5    A    
C121  C126  A    
Cr6   O9    S    
C4    O2    A    
C65   C77   A    
C37   C49   A    
C154  H84   S    
Cr4   O22   S    
C109  C110  A    
C5    O3    A    
C123  C124  A    
Cr1   O13   S    
Cr4   O7    S    
C14   C67   S    
C77   C89   A    
C148  C149  A    
C161  H90   S    
C166  C167  A    
C64   C76   A    
C51   C63   A    
C60   H15   S    
Cr4   O26   S    
C89   C151  S    
C8    C34   S    
C114  H51   S    
C74   C86   A    
C27   C87   A    
C41   C53   A    
C109  C114  A    
C133  C138  A    
C112  H49   S    
C10   O8    A    
C57   H18   S    
C5    C25   S    
C156  H86   S    
C43   C55   A    
C100  C101  A    
C157  C158  A    
Cr6   O12   S    
Cr5   O20   S    
C92   C97   S    
C24   C63   S    
C31   C91   A    
C119  H55   S    
C164  C165  A    
C52   C64   A    
C116  H52   S    
C50   C62   A    
C78   H33   S    
Cr3   O25   S    
C54   H21   S    
C3    O1    A    
C136  C137  A    
C147  C148  A    
C10   O22   A    
C115  C120  A    
Cr1   O1    S    
Cr6   O24   S    
C63   C75   A    
C48   H12   S    
C106  H44   S    
C135  C136  A    
C75   C87   A    
C113  C114  A    
C39   H3    S    
C76   C88   A    
C147  H78   S    
C103  C104  A    
C41   H5    S    
C13   C20   T    
C29   C41   A    
C164  H92   S    
C51   H24   S    
C14   C19   T    
C90   C145  S    
C151  C156  A    
C58   C70   A    
C166  H94   S    
C34   C94   A    
C75   H36   S    
C33   C93   A    
Cr1   O16   S    
C76   H35   S    
C110  H47   S    
C52   H23   S    
C45   H9    S    
C99   H38   S    
C7    O19   A    
C80   H25   S    
C35   C95   A    
C16   C23   T    
C120  H56   S    
C17   C22   T    
C38   C50   A    
C82   H29   S    
C153  H83   S    
C139  C144  A    
C56   C68   A    
C165  C166  A    
C12   O10   A    
C146  C147  A    
Cr5   O23   S    
C168  H96   S    
C145  C146  A    
C161  C162  A    
C73   C85   A    
C5    O17   A    
C131  H65   S    
C42   C54   A    
C15   C24   T    
C158  C159  A    
C11   O9    A    
C98   C99   A    
C104  C105  A    
C55   C67   A    
C129  H63   S    
C117  C118  A    
C95   C115  S    
C125  C126  A    
C49   H20   S    
C139  C140  A    
Cr5   O11   S    
C85   C139  S    
C56   H13   S    
C10   C36   S    
C127  C132  A    
C1    O13   A    
C118  H54   S    
C136  H69   S    
C122  C123  A    
C129  C130  A    
C70   C82   A    
C6    O18   A    
Cr1   O4    S    
C160  H89   S    
C69   C81   A    
C107  H45   S    
C32   C92   A    
C12   O24   A    
C106  C107  A    
C59   H16   S    
Cr3   O18   S    
C98   H37   S    
C58   H17   S    
C124  C125  A    
C32   C44   A    
C94   C121  S    
Cr6   O26   S    
C140  H72   S    
C158  H87   S    
C153  C154  A    
C133  C134  A    
C1    C27   S    
C28   C40   A    
C160  C161  A    
C30   C42   A    
C2    C28   S    
C43   H7    S    
C57   C69   A    
C35   C47   A    
C148  H79   S    
C17   C70   S    
C97   C102  A    
C137  H70   S    
C12   C32   S    
C107  C108  A    
C122  H57   S    
C59   C71   A    
C155  C156  A    
C142  H74   S    
C162  H91   S    
