data_mof_unit_55347.cif
_audit_creation_date              2012-12-11T15:49:51-0500
_audit_creation_method            fapswitch 2.2
_symmetry_space_group_name_H-M    P1
_symmetry_Int_Tables_number       1
_space_group_crystal_system       triclinic
_cell_length_a                    8.34182
_cell_length_b                    19.091637
_cell_length_c                    27.065712
_cell_angle_alpha                 95.453069
_cell_angle_beta                  92.432384
_cell_angle_gamma                 85.591681
_cell_volume                      4275.57476639

loop_
_atom_site_label
_atom_site_type_symbol
_atom_type_description
_atom_site_fract_x
_atom_site_fract_y
_atom_site_fract_z
_atom_type_partial_charge
Ba1   Ba    Ba6+2 0.854000 0.466860 0.523710 1.754292
Ba2   Ba    Ba6+2 0.335820 0.533080 0.476290 1.793174
C1    C     C_3   0.730268 0.209153 0.650739 -0.262935
C2    C     C_R   0.840779 0.539027 0.168033 0.613597
C3    C     C_2   0.737511 0.526246 0.269935 -0.187239
C4    C     C_3   0.174825 0.306695 0.657631 0.315904
C5    C     C_3   0.730379 0.559816 0.322107 -0.022984
C6    C     C_1   0.979152 0.487389 0.341530 -0.051665
C7    C     C_2   0.012735 0.481777 0.292447 0.295078
C8    C     C_2   0.882059 0.498855 0.253204 0.198343
C9    C     C_R   0.978557 0.479434 0.096849 -0.075689
C10   C     C_R   0.058575 0.432777 0.128533 -0.038399
C11   C     C_R   0.181312 0.384681 0.109195 -0.041036
C12   C     C_3   0.687632 0.281700 0.633169 0.285006
C13   C     C_R   0.861310 0.529679 0.116144 -0.061914
C14   C     C_2   0.846085 0.524601 0.357793 0.026367
C15   C     C_2   0.335759 0.474857 0.641018 -0.372630
C16   C     C_3   0.172498 0.283280 0.709738 -0.319866
C17   C     C_R   0.212997 0.443835 0.981171 -0.023182
C18   C     C_R   0.946472 0.499923 0.959959 0.062240
C19   C     C_R   0.100570 0.470317 0.945390 -0.001674
C20   C     C_R   0.375723 0.429030 0.967299 0.360036
C21   C     C_R   0.418451 0.434214 0.918382 -0.052066
C22   C     C_R   0.303210 0.452457 0.881525 -0.082576
C23   C     C_3   0.505555 0.630596 0.627481 0.341640
C24   C     C_R   0.143200 0.468240 0.894774 -0.082542
C25   C     C_R   0.026171 0.482983 0.857608 -0.042549
C26   C     C_R   0.069246 0.476311 0.807164 0.672169
C27   C     C_R   0.346844 0.459275 0.832315 0.620250
C28   C     C_3   0.193770 0.318637 0.417756 0.288215
C29   C     C_2   0.415954 0.442812 0.724410 -0.154311
C30   C     C_3   0.475457 0.467231 0.677662 -0.026172
C31   C     C_1   0.205231 0.512100 0.657812 -0.048011
C32   C     C_2   0.173661 0.518730 0.707153 0.398136
C33   C     C_2   0.275622 0.474193 0.742500 0.190075
C34   C     C_3   0.478318 0.650325 0.683029 0.597535
C35   C     C_R   0.157520 0.435952 0.029338 0.052990
C36   C     C_R   0.017092 0.476229 0.045883 0.003505
C37   C     C_R   0.915950 0.513255 0.011931 0.046762
C38   C     C_R   0.232253 0.387307 0.060841 -0.018394
C39   C     C_R   0.770919 0.571468 0.083505 -0.061286
C40   C     C_3   0.225194 0.239976 0.402527 0.267842
C41   C     C_R   0.830032 0.513769 0.921803 -0.014951
C42   C     C_R   0.868321 0.503702 0.871695 -0.039800
C43   C     C_R   0.792337 0.562537 0.031738 0.424511
C44   C     C_R   0.399436 0.297512 0.520987 -0.354046
C45   C     C_3   0.062101 0.680068 0.341913 0.303119
C46   C     C_R   0.538487 0.274231 0.495559 -0.042759
C47   C     C_R   0.587784 0.200649 0.490722 0.360473
C48   C     C_R   0.490412 0.152117 0.509373 0.050106
C49   C     C_R   0.345741 0.177358 0.531970 -0.105709
C50   C     C_R   0.301156 0.249628 0.537771 -0.006928
C51   C     C_R   0.553514 0.034895 0.545361 0.335254
C52   C     C_3   0.008092 0.689068 0.592607 0.607560
C53   C     C_R   0.607036 0.963404 0.539962 -0.055992
C54   C     C_R   0.644638 0.929189 0.493316 -0.063387
C55   C     C_R   0.623264 0.967155 0.451441 -0.050881
C56   C     C_3   0.050642 0.699658 0.288439 0.227305
C57   C     C_R   0.566562 0.038567 0.456027 0.428716
C58   C     C_R   0.536512 0.074380 0.503494 -0.020943
C59   C     C_R   0.842175 0.827404 0.465247 -0.118540
C60   C     C_R   0.896777 0.755811 0.465504 -0.007021
C61   C     C_R   0.660911 0.734393 0.509809 0.060506
C62   C     C_R   0.607265 0.805514 0.510614 -0.114105
C63   C     C_R   0.698012 0.852939 0.488787 0.010778
C64   C     C_3   0.032869 0.767814 0.604973 0.215397
C65   C     C_R   0.805827 0.710777 0.488215 -0.244829
C66   C     C_3   0.678212 0.377287 0.375265 0.302928
C67   C     C_3   0.555336 0.720623 0.361604 0.349548
C68   C     C_3   0.683320 0.355186 0.319848 -0.317646
C69   C     C_3   0.542565 0.792304 0.340677 0.247938
C70   C     C_R   0.011726 0.434511 0.178460 0.679669
Cl1   Cl    Cl    0.042189 0.200811 0.384198 -0.552939
Cl2   Cl    Cl    0.227801 0.789712 0.590988 -0.651023
Cl3   Cl    Cl    0.663455 0.665561 0.716848 -0.631632
Cl4   Cl    Cl    0.351592 0.838073 0.352072 -0.583224
Cl5   Cl    Cl    0.538229 0.417818 0.010489 -0.731633
Cl6   Cl    Cl    0.831886 0.562026 0.418932 -0.703742
Cl7   Cl    Cl    0.509114 0.072084 0.605709 -0.698560
Cl8   Cl    Cl    0.523860 0.079692 0.400856 -0.559285
H1    H     H_    0.778535 0.291144 0.606388 0.111346
H2    H     H_    0.769938 0.308426 0.312851 0.185383
H3    H     H_    0.721899 0.398432 0.299883 0.025500
H4    H     H_    0.561852 0.341833 0.305172 0.134843
H5    H     H_    0.566624 0.282285 0.614486 -0.023089
H6    H     H_    0.633309 0.194524 0.673738 0.158067
H7    H     H_    0.394669 0.609957 0.609749 -0.036212
H8    H     H_    0.605084 0.588525 0.623288 -0.000116
H9    H     H_    0.428982 0.605651 0.698875 0.009328
H10   H     H_    0.844581 0.208871 0.673146 0.144226
H11   H     H_    0.245777 0.317261 0.735793 0.064286
H12   H     H_    0.308098 0.231907 0.371113 0.116229
H13   H     H_    0.163344 0.639383 0.345206 0.065115
H14   H     H_    0.948497 0.657767 0.350009 -0.002628
H15   H     H_    0.061867 0.650371 0.262876 0.075720
H16   H     H_    0.151223 0.732237 0.281329 0.135903
H17   H     H_    0.685149 0.702172 0.362160 -0.086642
H18   H     H_    0.513849 0.726989 0.400435 0.057639
H19   H     H_    0.636915 0.824930 0.358866 0.003941
H20   H     H_    0.117338 0.361319 0.658365 0.047955
H21   H     H_    0.561629 0.785608 0.300065 0.121434
H22   H     H_    0.242128 0.346324 0.131923 0.135250
H23   H     H_    0.281427 0.212889 0.433855 0.003833
H24   H     H_    0.490830 0.404768 0.743912 0.161457
H25   H     H_    0.543751 0.423885 0.909270 0.141615
H26   H     H_    0.324958 0.348247 0.047619 0.146473
H27   H     H_    0.634041 0.534381 0.244965 0.157283
H28   H     H_    0.680238 0.610759 0.098204 0.123121
H29   H     H_    0.705658 0.528910 0.929302 0.159836
H30   H     H_    0.302478 0.306083 0.647056 -0.036418
H31   H     H_    0.774644 0.514854 0.843975 0.182407
H32   H     H_    0.328004 0.437709 0.608235 0.079629
H33   H     H_    0.496713 0.824089 0.528727 0.148735
H34   H     H_    0.044707 0.672725 0.554050 0.023739
H35   H     H_    0.620735 0.934369 0.572586 0.143804
H36   H     H_    0.646057 0.940690 0.414951 0.142203
H37   H     H_    0.047208 0.287471 0.722558 0.140053
H38   H     H_    0.913032 0.863092 0.448159 0.121294
H39   H     H_    0.266368 0.140727 0.544291 0.149305
H40   H     H_    0.852378 0.657342 0.491622 0.131495
H41   H     H_    0.361406 0.353174 0.524802 0.081253
H42   H     H_    0.223019 0.227822 0.709964 0.152807
H43   H     H_    0.309896 0.340991 0.428602 -0.071873
H44   H     H_    0.112790 0.326211 0.449651 0.049970
H45   H     H_    0.013502 0.783290 0.645038 0.118230
H46   H     H_    0.825145 0.690881 0.633351 0.331415
H47   H     H_    0.423307 0.751506 0.685314 0.375968
H48   H     H_    0.904348 0.783918 0.295778 0.333341
H49   H     H_    0.221043 0.429963 0.295364 0.333338
H50   H     H_    0.015117 0.599833 0.703787 0.350873
H51   H     H_    0.617516 0.634688 0.020602 0.320707
H52   H     H_    0.766195 0.208471 0.447793 0.369531
H53   H     H_    0.944093 0.799690 0.582959 0.020721
H54   H     H_    0.799783 0.390383 0.389254 0.031378
H55   H     H_    0.591355 0.424114 0.381488 0.058536
H56   H     H_    0.745843 0.169915 0.618116 0.143448
N1    N     N_R   0.911149 0.490165 0.199291 -0.414326
N2    N     N_R   0.230212 0.468773 0.794373 -0.417760
O1    O     O_2   0.913240 0.537010 0.617740 -0.442449
O2    O     O_2   0.234153 0.749449 0.461629 -0.431344
O3    O     O_3   0.089267 0.740046 0.374578 -0.566506
O4    O     O_3   0.145240 0.536960 0.557560 -0.477438
O5    O     O_3   0.557280 0.416300 0.475860 -0.477733
O6    O     O_2   0.376710 0.670070 0.522470 -0.434176
O7    O     O_3   0.543192 0.690578 0.605493 -0.572978
O8    O     O_2   0.394123 0.540785 0.323343 -0.462537
O9    O     O_3   0.461541 0.673188 0.331971 -0.597499
O10   O     O_2   0.059040 0.385953 0.202893 -0.548031
O11   O     O_2   0.489483 0.458735 0.824014 -0.598716
O12   O     O_3   0.629893 0.320530 0.398484 -0.618698
O13   O     O_2   0.763139 0.591911 0.185263 -0.560882
O14   O     O_2   0.962629 0.476675 0.774836 -0.521529
O15   O     O_3   0.669960 0.410470 0.588880 -0.505825
O16   O     O_2   0.812252 0.452426 0.674411 -0.408873
O17   O     O_3   0.096550 0.648915 0.625885 -0.622460
O18   O     O_3   0.688908 0.332370 0.674186 -0.604715
O19   O     O_2   0.812980 0.329910 0.477500 -0.455132
O20   O     O_3   0.078660 0.374870 0.564770 -0.504312
O21   O     O_2   0.967336 0.250089 0.534285 -0.447769
O22   O     O_3   0.847231 0.679757 0.597609 -0.790663
O23   O     O_3   0.088708 0.260558 0.624800 -0.594380
O24   O     O_3   0.366801 0.708987 0.690418 -0.637093
O25   O     O_3   0.901214 0.735629 0.278387 -0.699387
O26   O     O_3   0.167781 0.467813 0.276585 -0.664284
O27   O     O_3   0.082333 0.576219 0.729104 -0.638825
O28   O     O_3   0.701014 0.605596 0.001166 -0.720320
O29   O     O_3   0.728471 0.173861 0.468544 -0.651379
O30   O     O_2   0.276450 0.462960 0.382230 -0.473760
O31   O     O_3   0.044470 0.462980 0.442430 -0.420377
O32   O     O_3   0.519740 0.589470 0.411120 -0.422242
O33   O     O_3   0.123031 0.350562 0.377084 -0.625060
O34   O     O_3   0.632420 0.583650 0.524140 -0.431520
O35   O     O_3   0.111040 0.625070 0.435230 -0.449159
P1    P     P_3+3 0.082480 0.557670 0.610090 1.051914
P2    P     P_3+3 0.635220 0.340300 0.462910 1.017245
P3    P     P_3+3 0.108702 0.283218 0.564388 0.968754
P4    P     P_3+3 0.107220 0.442270 0.389900 1.047262
P5    P     P_3+3 0.083726 0.717663 0.435756 1.046635
P6    P     P_3+3 0.660324 0.416711 0.653357 0.997638
P7    P     P_3+3 0.556038 0.670931 0.541139 1.100689
P8    P     P_3+3 0.525225 0.587735 0.346415 1.026744

loop_
_geom_bond_atom_site_label_1
_geom_bond_atom_site_label_2
_ccdc_geom_bond_type
C34   H9    S    
C53   C54   A    
O15   P6    S    
C39   H28   S    
C7    O26   S    
Ba2   O6    S    
H52   O29   S    
O5    P2    S    
C19   C24   A    
C40   H23   S    
O4    P1    S    
C27   N2    Am   
C24   C25   A    
C60   C65   A    
C1    H10   S    
C16   H11   S    
Ba1   O20   S    
C17   C19   A    
C22   C24   A    
C32   C33   S    
C35   C38   A    
C33   N2    S    
C3    H27   S    
C36   C37   A    
O18   P6    S    
C55   C57   A    
C20   Cl5   S    
O30   P4    D    
C21   H25   S    
C44   C50   A    
C23   H7    S    
C54   C55   A    
C51   Cl7   S    
Ba1   Ba2   S    
C67   C69   S    
C56   H16   S    
C22   C27   A    
C11   C38   A    
Ba1   O4    S    
C17   C35   A    
C2    N1    Am   
C9    C13   A    
C25   C42   A    
O6    P7    D    
H51   O28   S    
C6    C7    D    
C49   H39   S    
C21   C22   A    
C44   H41   S    
C67   H17   S    
Ba2   P4    S    
C32   O27   S    
C68   H4    S    
C65   H40   S    
C50   P3    S    
C40   H12   S    
Ba1   O1    S    
C37   C43   A    
C46   P2    S    
C67   H18   S    
O34   P7    S    
O12   P2    S    
C69   H21   S    
C57   C58   A    
C6    C14   D    
O16   P6    D    
C1    H6    S    
C34   O24   S    
Ba2   O5    S    
C4    H30   S    
C52   O22   S    
C15   C31   D    
C56   O25   S    
C6    P4    S    
C43   O28   S    
O31   P4    S    
C51   C58   A    
C48   C49   A    
C55   H36   S    
C44   C46   A    
C51   C53   A    
C4    C16   S    
C61   C65   A    
Ba1   P1    S    
C5    P8    S    
O3    P5    S    
C68   H3    S    
C17   C20   A    
C26   N2    Am   
C13   C39   A    
C52   O17   S    
C3    C5    S    
O23   P3    S    
Ba2   O31   S    
C70   O10   D    
C69   H19   S    
C23   H8    S    
C61   P7    S    
C49   C50   A    
H49   O26   S    
C4    H20   S    
C9    C36   A    
C56   H15   S    
C35   C36   A    
Ba1   O5    S    
C34   Cl3   S    
C64   H53   S    
O2    P5    D    
C29   C30   S    
C4    O23   S    
C46   C47   A    
C31   C32   D    
C45   H13   S    
Ba1   O19   S    
C30   P6    S    
C28   H43   S    
O33   P4    S    
Ba1   O15   S    
C31   P1    S    
C16   H37   S    
C1    C12   S    
Ba2   O35   S    
O19   P2    D    
O17   P1    S    
O20   P3    S    
C70   N1    Am   
C8    N1    S    
C16   H42   S    
C26   O14   D    
H47   O24   S    
O21   P3    D    
C41   C42   A    
C67   O9    S    
C29   C33   D    
C15   H32   S    
Ba2   O30   S    
C1    H56   S    
C18   C41   A    
C38   H26   S    
C7    C8    S    
C18   C37   A    
C2    O13   D    
Ba1   P2    S    
C40   Cl1   S    
C62   H33   S    
O8    P8    D    
C12   O18   S    
C59   H38   S    
Ba2   O32   S    
C66   H55   S    
C5    C14   S    
C12   H5    S    
C28   H44   S    
C57   Cl8   S    
C60   P5    S    
C9    C10   A    
C47   O29   S    
C52   C64   S    
H46   O22   S    
C45   O3    S    
Ba1   O34   S    
C64   H45   S    
C48   C58   S    
C29   H24   S    
C2    C13   A    
C66   H54   S    
C3    C8    D    
O32   P8    S    
C62   C63   A    
C45   C56   S    
H50   O27   S    
O9    P8    S    
C69   Cl4   S    
C53   H35   S    
O35   P5    S    
Ba2   O4    S    
C52   H34   S    
O7    P7    S    
Ba1   O31   S    
C45   H14   S    
C14   Cl6   S    
H48   O25   S    
C10   C70   A    
C59   C60   A    
C68   H2    S    
C28   O33   S    
C66   O12   S    
C23   C34   S    
C27   O11   D    
C61   C62   A    
C42   H31   S    
C59   C63   A    
C18   C19   A    
C66   C68   S    
C47   C48   A    
C25   C26   A    
C15   C30   S    
C39   C43   A    
C20   C21   A    
C28   C40   S    
O1    P1    D    
C23   O7    S    
C41   H29   S    
C12   H1    S    
C10   C11   A    
C11   H22   S    
C54   C63   S    
Ba2   O34   S    
C64   Cl2   S    
