data_mof_unit_26466.cif
_audit_creation_date              2012-12-10T17:15:15-0500
_audit_creation_method            fapswitch 2.2
_symmetry_space_group_name_H-M    P1
_symmetry_Int_Tables_number       1
_space_group_crystal_system       triclinic
_cell_length_a                    10.189146
_cell_length_b                    10.702732
_cell_length_c                    12.877744
_cell_angle_alpha                 91.022346
_cell_angle_beta                  92.376867
_cell_angle_gamma                 95.745715
_cell_volume                      1395.74059944

loop_
_atom_site_label
_atom_site_type_symbol
_atom_type_description
_atom_site_fract_x
_atom_site_fract_y
_atom_site_fract_z
_atom_type_partial_charge
C1    C     C_R   0.445732 0.266973 0.486557 0.799284
C2    C     C_R   0.677238 0.517736 0.044230 -0.235631
C3    C     C_R   0.334344 0.487701 0.849278 -0.198541
C4    C     C_R   0.665508 0.511209 0.150652 -0.202906
C5    C     C_R   0.573928 0.515643 0.873435 -0.288486
C6    C     C_R   0.425913 0.483599 0.126566 -0.290135
C7    C     C_R   0.563229 0.508316 0.979287 0.193948
C8    C     C_R   0.436596 0.490689 0.020686 0.192845
C9    C     C_2   0.418252 0.134314 0.459448 0.263653
C10   C     C_2   0.590204 0.867591 0.497470 0.272377
C11   C     C_2   0.521637 0.067582 0.449061 -0.240709
C12   C     C_R   0.555825 0.733263 0.504945 0.772241
C13   C     C_2   0.504183 0.932633 0.445617 -0.209499
C14   C     C_3   0.718802 0.914766 0.645581 0.097553
C15   C     C_3   0.841975 0.993875 0.688549 -0.844077
C16   C     C_3   0.241446 0.094488 0.346994 0.085075
C17   C     C_3   0.104355 0.025073 0.332097 -0.859028
C18   C     C_3   0.911976 0.704009 0.425544 0.136152
C19   C     C_3   0.842713 0.774353 0.341103 -0.770868
C20   C     C_3   0.082865 0.290460 0.566633 0.123146
C21   C     C_3   0.148000 0.213927 0.648952 -0.747103
C22   C     C_2   0.071572 0.491200 0.510561 0.353054
C23   C     C_2   0.928136 0.506382 0.487681 0.346159
C24   C     C_R   0.475203 0.503633 0.698367 0.874891
C25   C     C_R   0.524754 0.496194 0.301621 0.853155
C26   C     C_R   0.539747 0.495526 0.191432 -0.057168
C27   C     C_R   0.460121 0.503831 0.808547 -0.063233
C28   C     C_R   0.322595 0.481109 0.955713 -0.235703
H1    H     H_    0.328638 0.469797 0.158302 0.156886
H2    H     H_    0.134344 0.589487 0.388797 0.144064
H3    H     H_    0.726652 0.815767 0.667855 0.144568
H4    H     H_    0.631457 0.949623 0.681826 0.142514
H5    H     H_    0.836655 0.093940 0.668984 0.256763
H6    H     H_    0.850137 0.986058 0.774389 0.209038
H7    H     H_    0.930975 0.960427 0.654638 0.252926
H8    H     H_    0.305928 0.055311 0.289301 0.141406
H9    H     H_    0.234388 0.195578 0.331138 0.143563
H10   H     H_    0.037844 0.059144 0.390199 0.257164
H11   H     H_    0.063130 0.040878 0.252790 0.211503
H12   H     H_    0.671214 0.529603 0.841734 0.157761
H13   H     H_    0.110301 0.922986 0.341602 0.256137
H14   H     H_    0.018135 0.738558 0.427422 0.097545
H15   H     H_    0.875393 0.728906 0.502539 0.184256
H16   H     H_    0.736866 0.738188 0.332129 0.252945
H17   H     H_    0.850133 0.876012 0.361607 0.235776
H18   H     H_    0.889527 0.761732 0.265773 0.224783
H19   H     H_    0.120360 0.267961 0.489472 0.181251
H20   H     H_    0.975765 0.259049 0.563269 0.099981
H21   H     H_    0.255305 0.244428 0.657707 0.257481
H22   H     H_    0.102712 0.226909 0.724873 0.223661
H23   H     H_    0.754111 0.520701 0.200783 0.201443
H24   H     H_    0.134198 0.112792 0.626180 0.229438
H25   H     H_    0.245772 0.477962 0.799086 0.198358
H26   H     H_    0.225185 0.467758 0.987042 0.139392
H27   H     H_    0.774649 0.530937 0.012890 0.139846
H28   H     H_    0.411930 0.887110 0.411231 0.186368
H29   H     H_    0.622530 0.111881 0.455256 0.204861
H30   H     H_    0.866432 0.412097 0.611746 0.146790
N1    N     N_2   0.162330 0.550370 0.457540 -0.225114
N2    N     N_2   0.837670 0.449630 0.542460 -0.226632
O1    O     O_R   0.567930 0.307680 0.508550 -0.630100
O2    O     O_3   0.289606 0.078503 0.449838 -0.610600
O3    O     O_3   0.890375 0.573515 0.402334 -0.610513
O4    O     O_3   0.109009 0.419782 0.593441 -0.607957
O5    O     O_R   0.432070 0.692320 0.491450 -0.623598
O6    O     O_R   0.351090 0.340020 0.481290 -0.590330
O7    O     O_R   0.648910 0.659980 0.518710 -0.593264
O8    O     O_R   0.590490 0.486480 0.665020 -0.627072
O9    O     O_R   0.409510 0.513520 0.334980 -0.634149
O10   O     O_R   0.373660 0.518820 0.637760 -0.557305
O11   O     O_R   0.626340 0.481180 0.362240 -0.561971
O12   O     O_3   0.710651 0.925663 0.536482 -0.621969
Zn1   Zn    Zn3+2 0.644780 0.478400 0.518200 0.959703
Zn2   Zn    Zn3+2 0.355220 0.521600 0.481800 0.961959

loop_
_geom_bond_atom_site_label_1
_geom_bond_atom_site_label_2
_ccdc_geom_bond_type
O10   Zn2   S    
C2    C4    A    
C19   H17   S    
C20   O4    S    
C25   O11   A    
C3    H25   S    
C12   O5    A    
C16   H9    S    
C15   H6    S    
C4    C26   A    
C2    C7    A    
C14   C15   S    
C24   C27   S    
C5    C27   A    
C14   H3    S    
C2    H27   S    
C13   H28   S    
C14   O12   S    
H2    N1    S    
C23   O3    S    
C1    O6    A    
C25   C26   S    
C19   H18   S    
C24   O10   A    
C7    C8    A    
C20   H20   S    
C18   H15   S    
C16   H8    S    
C11   C13   S    
N1    Zn2   S    
C6    C26   A    
C10   C12   S    
O7    Zn1   S    
C21   H21   S    
C3    C27   A    
C21   H22   S    
C15   H5    S    
C17   H10   S    
C9    C11   D    
C10   O12   S    
C23   N2    D    
C8    C28   A    
C12   O7    A    
C17   H13   S    
C18   O3    S    
C20   H19   S    
C25   O9    A    
C24   O8    A    
C4    H23   S    
H30   N2    S    
C9    O2    S    
O6    Zn2   S    
C19   H16   S    
N2    Zn1   S    
O9    Zn2   S    
C6    H1    S    
C1    C9    S    
C20   C21   S    
C5    C7    A    
C18   C19   S    
C17   H11   S    
C5    H12   S    
C15   H7    S    
C22   N1    D    
O11   Zn1   S    
C28   H26   S    
C22   C23   S    
C3    C28   A    
C6    C8    A    
C18   H14   S    
O1    Zn1   S    
O8    Zn1   S    
C11   H29   S    
C22   O4    S    
C16   O2    S    
C21   H24   S    
O5    Zn2   S    
C14   H4    S    
C16   C17   S    
C10   C13   D    
C1    O1    A    
