data_mof_unit_9448.cif
_audit_creation_date              2012-12-11T20:46:44-0500
_audit_creation_method            fapswitch 2.2
_symmetry_space_group_name_H-M    P1
_symmetry_Int_Tables_number       1
_space_group_crystal_system       triclinic
_cell_length_a                    8.333832
_cell_length_b                    18.920296
_cell_length_c                    18.713169
_cell_angle_alpha                 100.840324
_cell_angle_beta                  93.33
_cell_angle_gamma                 91.960028
_cell_volume                      2890.0524801

loop_
_atom_site_label
_atom_site_type_symbol
_atom_type_description
_atom_site_fract_x
_atom_site_fract_y
_atom_site_fract_z
_atom_type_partial_charge
Ba1   Ba    Ba6+2 0.153490 0.533960 0.468530 1.672883
Ba2   Ba    Ba6+2 0.656680 0.466030 0.531410 1.665477
C1    C     C_3   0.342442 0.704229 0.209052 -0.368189
C2    C     C_R   0.099185 0.906022 0.554290 -0.098262
C3    C     C_R   0.232364 0.046032 0.539242 -0.122479
C4    C     C_3   0.914064 0.724723 0.316033 0.361933
C5    C     C_R   0.073046 0.021546 0.513951 0.023925
C6    C     C_R   0.283841 0.117545 0.545540 -0.087906
C7    C     C_R   0.181652 0.167834 0.523973 0.021864
C8    C     C_R   0.026528 0.143636 0.491424 0.008462
C9    C     C_R   0.971947 0.069985 0.486173 0.014658
C10   C     C_R   0.231951 0.241248 0.532091 0.051590
C11   C     C_R   0.127015 0.289867 0.509462 -0.286640
C12   C     C_3   0.376906 0.685635 0.283842 0.368604
C13   C     C_R   0.978427 0.266895 0.472824 0.042890
C14   C     C_R   0.927970 0.192561 0.462548 -0.033256
C15   C     C_R   0.856176 0.926052 0.486459 0.018473
C16   C     C_3   0.947114 0.796608 0.293275 -0.377908
C17   C     C_R   0.796304 0.854532 0.490750 -0.035046
C18   C     C_R   0.891073 0.808584 0.527373 -0.030210
C19   C     C_R   0.037363 0.839469 0.563997 0.193560
C20   C     C_R   0.783932 0.165017 0.423118 -0.037470
C21   C     C_R   0.728678 0.093817 0.419326 -0.101137
C22   C     C_R   0.817352 0.045301 0.453116 0.009078
C23   C     C_3   0.576896 0.693273 0.745365 0.506803
C24   C     C_R   0.758277 0.973169 0.453993 0.026895
C25   C     C_R   0.601490 0.947358 0.426537 -0.104868
C26   C     C_R   0.639106 0.830470 0.460935 -0.031000
C27   C     C_R   0.544074 0.878078 0.429834 -0.093181
C28   C     C_3   0.742726 0.341105 0.299077 0.468135
C29   C     C_R   0.579590 0.760233 0.464702 -0.019551
C30   C     C_R   0.675549 0.715216 0.498640 -0.296031
C31   C     C_R   0.831788 0.735839 0.527768 0.062373
C32   C     C_2   0.593304 0.530752 0.298983 -0.116350
C33   C     C_3   0.693363 0.568633 0.251555 -0.051485
C34   C     C_3   0.498367 0.712947 0.817944 -0.440061
C35   C     C_2   0.656124 0.546363 0.170552 0.100164
C36   C     C_2   0.527348 0.500356 0.145403 -0.091924
C37   C     C_2   0.441665 0.462267 0.197742 0.042697
C38   C     C_1   0.475002 0.482458 0.270177 0.077348
C39   C     C_R   0.358210 0.476677 0.924945 0.441674
C40   C     C_3   0.645320 0.276688 0.252854 -0.380553
C41   C     C_R   0.469225 0.486949 0.066594 0.474150
C42   C     C_R   0.388484 0.513449 0.804351 -0.184422
C43   C     C_R   0.324912 0.522138 0.735738 -0.007968
C44   C     C_R   0.081737 0.454225 0.752880 0.040578
C45   C     C_3   0.896533 0.271733 0.677724 0.427167
C46   C     C_R   0.143990 0.447520 0.822303 -0.157253
C47   C     C_R   0.296745 0.478314 0.849269 -0.047862
C48   C     C_R   0.168125 0.494333 0.710543 -0.028758
C49   C     C_3   0.072938 0.692810 0.711494 0.425488
C50   C     C_3   0.083181 0.768495 0.763186 -0.005502
C51   C     C_3   0.287016 0.312451 0.363378 0.281763
C52   C     C_3   0.237512 0.233449 0.329345 -0.112004
C53   C     C_3   0.946845 0.771010 0.877789 -0.247291
C54   C     C_3   0.259384 0.108942 0.344428 -0.259429
C55   C     C_3   0.556437 0.799457 0.683960 -0.179922
C56   C     C_3   0.836576 0.197658 0.688772 -0.334920
C57   C     C_3   0.341103 0.197180 0.801258 -0.232099
C58   C     C_3   0.690019 0.649550 0.112551 -0.210221
C59   C     C_3   0.208156 0.379452 0.154671 -0.148397
C60   C     C_3   0.463614 0.322096 0.716486 0.372450
C61   C     C_3   0.501686 0.306497 0.792959 -0.025972
C62   C     C_R   0.012592 0.950621 0.516229 -0.010923
H1    H     H_    0.308646 0.634435 0.285280 0.086041
H2    H     H_    0.216422 0.720147 0.202464 0.158061
H3    H     H_    0.104278 0.226337 0.325763 0.096300
H4    H     H_    0.276682 0.219858 0.272681 0.115899
H5    H     H_    0.507843 0.678793 0.291535 -0.067355
H6    H     H_    0.359805 0.656364 0.166384 0.068816
H7    H     H_    0.674931 0.656571 0.753046 0.044697
H8    H     H_    0.439068 0.664733 0.832256 0.080366
H9    H     H_    0.589193 0.735557 0.862741 0.073880
H10   H     H_    0.409030 0.753990 0.814353 0.126195
H11   H     H_    0.424763 0.749419 0.201901 0.093378
H12   H     H_    0.588945 0.244110 0.288930 0.095684
H13   H     H_    0.887662 0.839792 0.329603 0.076140
H14   H     H_    0.844364 0.278767 0.623578 0.089403
H15   H     H_    0.703592 0.193128 0.684975 0.134604
H16   H     H_    0.880212 0.155065 0.645931 0.086190
H17   H     H_    0.881428 0.188224 0.743115 0.105965
H18   H     H_    0.349799 0.350440 0.715536 -0.039219
H19   H     H_    0.559791 0.358872 0.705150 0.095795
H20   H     H_    0.537905 0.358616 0.829688 0.064531
H21   H     H_    0.605848 0.271462 0.793613 0.120271
H22   H     H_    0.966465 0.728179 0.372649 0.071222
H23   H     H_    0.549734 0.294478 0.217741 0.116130
H24   H     H_    0.164961 0.346241 0.517656 0.071825
H25   H     H_    0.406078 0.132351 0.566916 0.107697
H26   H     H_    0.711048 0.198072 0.394622 0.077460
H27   H     H_    0.421518 0.863305 0.409134 0.111979
H28   H     H_    0.626283 0.662816 0.503501 0.093039
H29   H     H_    0.322613 0.010915 0.553851 0.071297
H30   H     H_    0.211161 0.924419 0.584822 0.053784
H31   H     H_    0.616071 0.078194 0.388308 0.059547
H32   H     H_    0.781283 0.715867 0.314908 -0.078012
H33   H     H_    0.517302 0.980159 0.403472 0.062676
H34   H     H_    0.725081 0.241884 0.217315 0.097327
H35   H     H_    0.507760 0.536160 0.823460 0.103493
H36   H     H_    0.073369 0.418336 0.855021 0.104367
H37   H     H_    0.078306 0.810064 0.297327 0.149714
H38   H     H_    0.898914 0.794190 0.236240 0.102618
H39   H     H_    0.663306 0.374352 0.335896 0.030814
H40   H     H_    0.168264 0.643415 0.793545 0.163822
H41   H     H_    0.963886 0.634212 0.780090 0.188710
H42   H     H_    0.184245 0.800915 0.870176 0.194766
H43   H     H_    0.972038 0.764897 0.935179 0.114028
H44   H     H_    0.860222 0.727105 0.851467 0.105600
H45   H     H_    0.180209 0.687830 0.679299 0.066317
H46   H     H_    0.894260 0.824173 0.877805 0.091490
H47   H     H_    0.429050 0.191928 0.382895 0.202641
H48   H     H_    0.306587 0.075847 0.383309 0.116652
H49   H     H_    0.309118 0.090124 0.290666 0.099665
H50   H     H_    0.126153 0.101279 0.338989 0.122683
H51   H     H_    0.719074 0.789519 0.768974 0.161568
H52   H     H_    0.633173 0.844213 0.671590 0.075159
H53   H     H_    0.455118 0.822689 0.714957 0.076408
H54   H     H_    0.510458 0.765805 0.631167 0.124556
H55   H     H_    0.110518 0.316519 0.656909 0.110282
H56   H     H_    0.195259 0.796584 0.752308 0.012789
H57   H     H_    0.117018 0.280074 0.732283 0.207371
H58   H     H_    0.349941 0.294185 0.875082 0.203057
H59   H     H_    0.227626 0.179726 0.822485 0.099187
H60   H     H_    0.442992 0.171382 0.825627 0.094796
H61   H     H_    0.332153 0.178920 0.741220 0.163076
H62   H     H_    0.123821 0.850729 0.665978 0.120335
H63   H     H_    0.236027 0.801211 0.606302 0.187628
H64   H     H_    0.868239 0.581475 0.133381 0.225314
H65   H     H_    0.768681 0.672134 0.075670 0.109157
H66   H     H_    0.694187 0.687651 0.165700 0.090916
H67   H     H_    0.982792 0.801846 0.749957 0.098647
H68   H     H_    0.565799 0.643463 0.086793 0.117957
H69   H     H_    0.444925 0.362412 0.128691 0.177665
H70   H     H_    0.163092 0.338707 0.185056 0.109648
H71   H     H_    0.179046 0.358817 0.095567 0.091833
H72   H     H_    0.145009 0.429923 0.170586 0.160399
H73   H     H_    0.654697 0.609479 0.385920 0.126960
H74   H     H_    0.704301 0.525156 0.396088 0.209890
H75   H     H_    0.973677 0.526914 0.657243 0.216141
H76   H     H_    0.134501 0.560026 0.635490 0.175303
H77   H     H_    0.723554 0.398895 0.216232 0.112231
H78   H     H_    0.180625 0.340213 0.385098 0.024947
H79   H     H_    0.894681 0.356116 0.220171 0.173803
H80   H     H_    0.381519 0.315883 0.408427 0.048917
N1    N     N_R   0.255254 0.470458 0.977400 -0.248967
N2    N     N_2   0.362547 0.274841 0.820454 -0.439106
N3    N     N_3   0.117442 0.809842 0.619732 -0.493194
N4    N     N_2   0.745521 0.580301 0.122474 -0.397451
N5    N     N_2   0.380522 0.390356 0.169453 -0.432285
N6    N     N_3   0.615852 0.555444 0.375999 -0.432624
N7    N     N_3   0.089627 0.511334 0.645340 -0.428145
N8    N     N_3   0.813049 0.386091 0.252309 -0.479385
N9    N     N_R   0.309630 0.475764 0.046760 -0.253407
N10   N     N_R   0.572276 0.491131 0.013673 -0.215464
N11   N     N_R   0.518034 0.486501 0.944500 -0.248401
N12   N     N_3   0.071522 0.635964 0.754492 -0.537657
N13   N     N_2   0.094706 0.766550 0.840926 -0.435952
N14   N     N_2   0.306669 0.183900 0.371565 -0.446281
N15   N     N_2   0.651622 0.757566 0.726518 -0.404418
N16   N     N_3   0.071384 0.272274 0.678138 -0.514186
O1    O     O_2   0.117290 0.676350 0.548250 -0.466411
O2    O     O_2   0.750845 0.457894 0.750352 -0.501838
O3    O     O_3   0.846910 0.325213 0.734488 -0.632424
O4    O     O_3   0.869060 0.586940 0.542720 -0.467940
O5    O     O_3   0.438990 0.460930 0.412890 -0.471176
O6    O     O_2   0.623700 0.539890 0.674570 -0.456628
O7    O     O_3   0.460183 0.661935 0.689737 -0.645354
O8    O     O_2   0.570453 0.243677 0.534839 -0.502525
O9    O     O_3   0.457193 0.258088 0.664049 -0.635669
O10   O     O_3   0.356990 0.628630 0.417250 -0.456610
O11   O     O_2   0.244070 0.755339 0.469555 -0.490166
O12   O     O_3   0.346281 0.344975 0.308679 -0.653195
O13   O     O_3   0.930127 0.683940 0.665222 -0.625420
O14   O     O_3   0.328460 0.741550 0.337439 -0.609627
O15   O     O_2   0.186600 0.460070 0.325400 -0.433340
O16   O     O_3   0.942970 0.591450 0.378940 -0.487286
O17   O     O_2   0.022692 0.530824 0.246329 -0.484590
O18   O     O_3   0.984393 0.669518 0.268246 -0.599722
O19   O     O_2   0.693010 0.323600 0.451730 -0.493421
O20   O     O_3   0.941240 0.413050 0.457220 -0.463362
O21   O     O_3   0.453310 0.371360 0.582690 -0.485704
O22   O     O_3   0.868544 0.313269 0.336295 -0.649070
O23   O     O_3   0.371310 0.539060 0.587050 -0.431806
O24   O     O_3   0.867330 0.408540 0.621000 -0.475049
P1    P     P_3+3 0.945300 0.665790 0.568510 1.024354
P2    P     P_3+3 0.360080 0.438780 0.334620 1.024871
P3    P     P_3+3 0.910885 0.587008 0.285187 0.959024
P4    P     P_3+3 0.865000 0.334200 0.431430 0.975915
P5    P     P_3+3 0.885494 0.411560 0.715501 0.932043
P6    P     P_3+3 0.379184 0.721801 0.423439 0.945927
P7    P     P_3+3 0.447659 0.567765 0.677551 0.951677
P8    P     P_3+3 0.429259 0.278418 0.576557 0.921874

loop_
_geom_bond_atom_site_label_1
_geom_bond_atom_site_label_2
_ccdc_geom_bond_type
C42   C47   A    
C60   H19   S    
Ba1   O16   S    
C25   C27   A    
Ba1   O10   S    
C17   C18   A    
C58   H68   S    
C32   N6    S    
O23   P7    S    
C51   C52   S    
H74   N6    S    
C5    C9    A    
C10   C11   A    
C29   P6    S    
O13   P1    S    
C24   C25   A    
C60   C61   S    
C32   C38   D    
C15   C24   A    
C19   N3    S    
C26   C27   A    
C33   C35   S    
H47   N14   S    
C22   C24   A    
O6    P7    D    
C40   H34   S    
C15   C62   A    
C36   C37   S    
O21   P8    S    
C45   C56   S    
C38   P2    S    
C13   C14   A    
C9    C22   A    
C50   N13   S    
C32   C33   S    
C16   H38   S    
C49   O13   S    
O1    P1    D    
O20   P4    S    
C51   O12   S    
C15   C17   A    
C48   N7    S    
C43   P7    S    
C25   H33   S    
Ba1   O4    S    
O12   P2    S    
C6    C7    A    
H57   N16   S    
C28   H39   S    
C23   N15   S    
C54   N14   S    
C54   H49   S    
C23   H7    S    
C41   N10   A    
C1    H11   S    
C7    C8    A    
Ba2   O6    S    
C61   N2    S    
C56   H16   S    
C45   O3    S    
C44   C48   A    
C60   H18   S    
Ba1   O1    S    
C49   H45   S    
C61   H21   S    
C57   H59   S    
C28   O22   S    
C2    C62   A    
Ba2   O20   S    
C4    C16   S    
C39   C47   S    
C59   H70   S    
C55   H52   S    
C45   N16   S    
Ba1   O23   S    
C46   H36   S    
C44   C46   A    
C49   N12   S    
C49   C50   S    
C1    H6    S    
H69   N5    S    
C51   H78   S    
O4    P1    S    
C8    C9    A    
C56   H17   S    
C58   H66   S    
C37   C38   D    
C3    C5    A    
H55   N16   S    
O22   P4    S    
C52   H3    S    
Ba1   P2    S    
C23   O7    S    
O11   P6    D    
C53   H43   S    
C16   H37   S    
C35   C36   D    
C52   N14   S    
C28   N8    S    
C29   C30   A    
H76   N7    S    
Ba1   O5    S    
C21   C22   A    
C20   H26   S    
C39   N1    A    
O3    P5    S    
Ba2   O24   S    
H40   N12   S    
C17   C26   A    
Ba2   O5    S    
N10   N11   A    
C1    C12   S    
C34   H10   S    
C56   H15   S    
O14   P6    S    
C2    H30   S    
C18   C31   A    
C50   H56   S    
H79   N8    S    
C4    H32   S    
C11   C13   A    
C53   H46   S    
C45   H14   S    
C12   H5    S    
H73   N6    S    
C1    H2    S    
C54   H48   S    
Ba2   O19   S    
O18   P3    S    
C44   P5    S    
Ba2   O4    S    
C27   H27   S    
C42   C43   A    
C59   H71   S    
O16   P3    S    
C55   H53   S    
C57   H60   S    
C60   O9    S    
C37   N5    S    
O17   P3    D    
Ba1   O15   S    
C14   C20   A    
C10   P8    S    
O24   P5    S    
C50   H67   S    
C42   H35   S    
C26   C29   A    
H64   N4    S    
C4    H22   S    
C58   H65   S    
C3    C6    A    
C3    H29   S    
H62   N3    S    
O19   P4    D    
Ba1   P1    S    
C57   H61   S    
H42   N13   S    
O7    P7    S    
C13   P4    S    
O10   P6    S    
C40   H12   S    
O5    P2    S    
O8    P8    D    
C53   H44   S    
C51   H80   S    
C30   C31   A    
N1    N9    A    
C36   C41   S    
C12   O14   S    
C8    C14   A    
O15   P2    D    
C2    C19   A    
C30   H28   S    
C59   N5    S    
C43   C48   A    
C16   H13   S    
C46   C47   A    
Ba1   Ba2   S    
C11   H24   S    
H75   N7    S    
Ba1   O20   S    
C12   H1    S    
C21   H31   S    
Ba2   O23   S    
H58   N2    S    
C35   N4    S    
C55   N15   S    
C7    C10   A    
Ba2   P4    S    
C5    C62   A    
C40   H23   S    
C34   H9    S    
C23   C34   S    
C57   N2    S    
C53   N13   S    
H41   N12   S    
C52   H4    S    
C18   C19   A    
C59   H72   S    
C33   P3    S    
H51   N15   S    
C54   H50   S    
C20   C21   A    
C28   C40   S    
C31   P1    S    
C6    H25   S    
C58   N4    S    
O9    P8    S    
C41   N9    A    
C61   H20   S    
Ba2   O21   S    
O2    P5    D    
C4    O18   S    
C34   H8    S    
H77   N8    S    
H63   N3    S    
C55   H54   S    
C39   N11   A    
