data_mof_unit_57064.cif
_audit_creation_date              2012-12-10T19:04:46-0500
_audit_creation_method            fapswitch 2.2
_symmetry_space_group_name_H-M    P1
_symmetry_Int_Tables_number       1
_space_group_crystal_system       triclinic
_cell_length_a                    15.883872
_cell_length_b                    10.867946
_cell_length_c                    9.542724
_cell_angle_alpha                 89.867702
_cell_angle_beta                  89.960515
_cell_angle_gamma                 90.201677
_cell_volume                      1647.29833641

loop_
_atom_site_label
_atom_site_type_symbol
_atom_type_description
_atom_site_fract_x
_atom_site_fract_y
_atom_site_fract_z
_atom_type_partial_charge
C1    C     C_R   0.499566 0.262658 0.500016 0.815387
C2    C     C_3   0.083345 0.500459 0.502167 0.070319
C3    C     C_3   0.971768 0.599757 0.574277 -0.251788
C4    C     C_3   0.916575 0.502549 0.498972 0.037366
C5    C     C_3   0.028205 0.603285 0.442571 0.430828
C6    C     C_3   0.972081 0.508939 0.365363 -0.350368
C7    C     C_1   0.174880 0.500194 0.501022 0.082459
C8    C     C_1   0.825074 0.501731 0.499454 0.035184
C9    C     C_R   0.501251 0.061550 0.621487 0.077005
C10   C     C_R   0.498573 0.129990 0.498589 -0.090593
C11   C     C_R   0.495438 0.064787 0.370762 -0.200304
C12   C     C_R   0.339890 0.499914 0.500040 0.830973
C13   C     C_R   0.495896 0.935691 0.370445 -0.185442
C14   C     C_R   0.499660 0.869791 0.497937 -0.095034
C15   C     C_R   0.502364 0.937362 0.620860 -0.049172
C16   C     C_3   0.508475 0.927890 0.776974 0.198220
C17   C     C_3   0.506933 0.070322 0.777347 0.157466
C18   C     C_R   0.544233 0.587368 0.073381 0.279103
C19   C     C_R   0.449721 0.421977 0.074691 -0.072503
C20   C     C_R   0.449456 0.422387 0.925773 -0.060076
C21   C     C_R   0.544369 0.587175 0.926004 0.323701
C22   C     C_3   0.637042 0.609159 0.920176 -0.516022
C23   C     C_R   0.500167 0.737271 0.499700 0.811375
C24   C     C_3   0.636842 0.609795 0.079171 -0.516002
C25   C     C_R   0.660098 0.500243 0.499973 0.812566
C26   C     C_3   0.971329 0.399413 0.558921 0.409526
C27   C     C_3   0.027052 0.405850 0.428642 0.339063
C28   C     C_1   0.250321 0.500025 0.500331 -0.142640
C29   C     C_1   0.749644 0.500998 0.499789 -0.181736
C30   C     C_3   0.027449 0.494200 0.635175 -0.326941
Cu1   Cu    Cu3+1 0.500000 0.499980 0.640670 0.980772
Cu2   Cu    Cu3+1 0.500000 0.500020 0.359330 0.958570
H1    H     H_    0.949657 0.515707 0.255476 0.169397
N1    N     N_R   0.500530 0.500930 0.147930 -0.193141
N2    N     N_R   0.500530 0.500890 0.852020 -0.197073
O1    O     O_R   0.500000 0.319640 0.618810 -0.563293
O2    O     O_R   0.500010 0.319680 0.381230 -0.597120
O3    O     O_R   0.379070 0.499970 0.618770 -0.571392
O4    O     O_R   0.379080 0.500010 0.381190 -0.567894
O5    O     O_R   0.499990 0.680320 0.618770 -0.559445
O6    O     O_R   0.500000 0.680360 0.381190 -0.587873
O7    O     O_R   0.620920 0.499990 0.618810 -0.584798
O8    O     O_R   0.620930 0.500030 0.381230 -0.582899
O9    O     O_3   0.057327 0.303650 0.355899 -0.704623
H2    H     H_    0.006593 0.261060 0.319575 0.338014
H3    H     H_    0.568951 0.887903 0.813130 0.087135
O10   O     O_3   0.433173 0.119402 0.834714 -0.698874
H4    H     H_    0.442372 0.120836 0.937510 0.328248
H5    H     H_    0.565949 0.115446 0.814059 0.072763
H6    H     H_    0.410341 0.357051 0.130749 0.150863
H7    H     H_    0.409361 0.358663 0.870013 0.188073
H8    H     H_    0.672302 0.530126 0.875809 0.225782
H9    H     H_    0.652946 0.700109 0.873609 0.190659
H10   H     H_    0.672243 0.531366 0.124918 0.225257
H11   H     H_    0.652233 0.701299 0.124426 0.197730
O11   O     O_3   0.939468 0.291033 0.618008 -0.715838
H12   H     H_    0.989544 0.243614 0.647921 0.335513
O12   O     O_3   0.060491 0.710885 0.382315 -0.698083
H13   H     H_    0.010575 0.759330 0.353828 0.326096
H14   H     H_    0.948284 0.681410 0.631799 0.167967
H15   H     H_    0.050282 0.486283 0.744728 0.180488
H16   H     H_    0.492877 0.112763 0.271241 0.162580
H17   H     H_    0.493506 0.888279 0.270797 0.176163
O13   O     O_3   0.437719 0.871926 0.839998 -0.683107
H18   H     H_    0.386390 0.896508 0.787653 0.371464

loop_
_geom_bond_atom_site_label_1
_geom_bond_atom_site_label_2
_ccdc_geom_bond_type
C14   C23   S    
C25   O7    A    
C3    C30   S    
C4    C26   S    
Cu2   O6    S    
C6    H1    S    
C2    C27   S    
C21   N2    A    
Cu1   O7    S    
C22   H9    S    
C18   C21   A    
C11   C13   A    
C9    C10   A    
C19   C20   A    
C6    C27   S    
C13   H17   S    
Cu1   O3    S    
C1    O2    A    
C4    C8    S    
C11   H16   S    
O13   H18   S    
C25   O8    A    
C12   O4    A    
C9    C15   A    
C13   C14   A    
C3    H14   S    
C24   H11   S    
C25   C29   S    
C18   N1    A    
C19   H6    S    
C26   C27   S    
C26   O11   S    
C5    O12   S    
C12   C28   S    
C18   C24   S    
C8    C29   T    
C9    C17   S    
Cu2   O8    S    
C26   C30   S    
C20   H7    S    
C22   C24   S    
Cu1   O1    S    
C12   O3    A    
C5    C6    S    
Cu1   N2    S    
C30   H15   S    
C2    C5    S    
Cu2   O2    S    
C15   C16   S    
C7    C28   T    
C17   H5    S    
C3    C4    S    
O10   H4    S    
C17   O10   S    
C2    C30   S    
O11   H12   S    
C22   H8    S    
C4    C6    S    
C10   C11   A    
Cu2   O4    S    
C16   H3    S    
C23   O5    A    
C14   C15   A    
C16   O13   S    
Cu2   N1    S    
Cu1   O5    S    
C21   C22   S    
O12   H13   S    
C24   H10   S    
C27   O9    S    
C20   N2    A    
Cu1   Cu2   S    
O9    H2    S    
C2    C7    S    
C1    O1    A    
C1    C10   S    
C16   C17   S    
C3    C5    S    
C19   N1    A    
C23   O6    A    
