data_mof_unit_26571.cif
_audit_creation_date              2012-12-10T17:36:40-0500
_audit_creation_method            fapswitch 2.2
_symmetry_space_group_name_H-M    P1
_symmetry_Int_Tables_number       1
_space_group_crystal_system       triclinic
_cell_length_a                    12.174202
_cell_length_b                    12.770464
_cell_length_c                    15.684498
_cell_angle_alpha                 93.162836
_cell_angle_beta                  88.07065
_cell_angle_gamma                 95.046292
_cell_volume                      2424.30259845

loop_
_atom_site_label
_atom_site_type_symbol
_atom_type_description
_atom_site_fract_x
_atom_site_fract_y
_atom_site_fract_z
_atom_type_partial_charge
C1    C     C_R   0.523230 0.700082 0.498201 0.905711
C2    C     C_R   0.476922 0.300022 0.502607 0.872255
C3    C     C_R   0.614420 0.967473 0.425632 -0.221941
C4    C     C_R   0.384928 0.032689 0.576829 -0.195096
C5    C     C_R   0.616969 0.860581 0.437392 0.192106
C6    C     C_R   0.384383 0.140964 0.567365 0.222800
C7    C     C_R   0.464760 0.869921 0.542330 -0.278005
C8    C     C_R   0.534238 0.129864 0.459691 -0.258363
C9    C     C_R   0.461971 0.975614 0.530529 0.132087
C10   C     C_R   0.536800 0.024370 0.471365 0.145521
C11   C     C_R   0.949411 0.466336 0.391192 -0.191991
C12   C     C_R   0.050589 0.534372 0.608709 -0.182901
C13   C     C_R   0.835784 0.456250 0.406062 -0.086765
C14   C     C_R   0.164233 0.544113 0.593873 -0.089131
C15   C     C_R   0.861617 0.520978 0.550039 0.515043
C16   C     C_R   0.138329 0.479366 0.449896 0.528534
C17   C     C_R   0.977638 0.513836 0.540390 -0.080128
C18   C     C_R   0.022345 0.486744 0.459523 -0.082334
C19   C     C_R   0.501461 0.500172 0.661498 0.873710
C20   C     C_R   0.498509 0.499692 0.338490 0.895663
C21   C     C_3   0.455503 0.585262 0.032375 0.415570
C22   C     C_3   0.543744 0.412575 0.967456 0.443279
C23   C     C_3   0.561934 0.586778 0.975251 -0.339139
C24   C     C_3   0.437269 0.411101 0.024593 -0.309469
C25   C     C_1   0.504390 0.500405 0.750198 -0.107499
C26   C     C_1   0.495387 0.498652 0.249745 -0.101964
C27   C     C_3   0.398066 0.499681 0.972983 0.102063
C28   C     C_3   0.601220 0.498200 0.026847 0.114717
C29   C     C_3   0.502844 0.499906 0.916295 -0.077889
C30   C     C_3   0.496405 0.497975 0.083582 -0.066609
C31   C     C_1   0.504726 0.500498 0.825466 0.068576
C32   C     C_1   0.494772 0.497866 0.174446 0.073702
C33   C     C_R   0.461354 0.188218 0.508598 -0.094613
C34   C     C_R   0.539317 0.812139 0.494631 -0.062058
H1    H     H_    0.612403 0.657633 0.953727 0.199756
H2    H     H_    0.386678 0.340297 0.046079 0.204083
H3    H     H_    0.591989 0.167887 0.414353 0.167439
H4    H     H_    0.406345 0.831434 0.586937 0.163916
H5    H     H_    0.672162 0.005528 0.380472 0.156549
H6    H     H_    0.328932 0.992912 0.622030 0.156457
H7    H     H_    0.217733 0.564842 0.646841 0.170264
H8    H     H_    0.782298 0.435554 0.353085 0.171545
H9    H     H_    0.978166 0.459960 0.325450 0.222596
H10   H     H_    0.021848 0.541029 0.674442 0.223757
N1    N     N_R   0.207800 0.519340 0.515560 -0.151537
N2    N     N_R   0.792200 0.480660 0.484440 -0.151122
O1    O     O_R   0.421700 0.658830 0.504150 -0.627134
O2    O     O_R   0.578300 0.341170 0.495850 -0.621454
O3    O     O_R   0.609310 0.646410 0.494170 -0.545686
O4    O     O_R   0.390690 0.353590 0.505830 -0.548142
O5    O     O_R   0.406210 0.506220 0.628210 -0.663381
O6    O     O_R   0.593790 0.493780 0.371790 -0.652268
O7    O     O_R   0.593830 0.493800 0.618230 -0.514085
O8    O     O_R   0.406170 0.506200 0.381770 -0.520337
Zn1   Zn    Zn3+2 0.374730 0.508290 0.506660 1.031008
Zn2   Zn    Zn3+2 0.625270 0.491710 0.493340 1.029982
S1    S     S_3+6 0.399481 0.701341 0.077053 0.061996
O9    O     O_2   0.323261 0.674190 0.151424 -0.240610
O10   O     O_2   0.491491 0.779180 0.107434 -0.275773
O11   O     O_3   0.328931 0.754793 0.002626 -0.487673
H11   H     H_    0.380793 0.761381 0.952797 0.350971
S2    S     S_3+6 0.598394 0.296279 0.921829 0.059177
O12   O     O_2   0.505977 0.224381 0.884393 -0.253506
O13   O     O_2   0.682145 0.323596 0.852205 -0.280947
O14   O     O_3   0.657266 0.234284 0.997902 -0.495977
H12   H     H_    0.725263 0.279392 0.012002 0.365816
N3    N     N_2   0.710441 0.496893 0.060500 -0.310292
H13   H     H_    0.719942 0.539510 0.117928 0.241125
C35   C     C_3   0.800799 0.520550 0.000546 -0.683817
H14   H     H_    0.879629 0.506117 0.029609 0.234881
H15   H     H_    0.804530 0.604452 0.984476 0.248609
H16   H     H_    0.791375 0.469645 0.941274 0.287720
N4    N     N_2   0.288938 0.501082 0.939185 -0.287238
H17   H     H_    0.278791 0.456219 0.882866 0.231032
C36   C     C_3   0.198476 0.480968 0.999776 -0.611220
H18   H     H_    0.119675 0.493260 0.969695 0.227667
H19   H     H_    0.207661 0.535501 0.057006 0.295384
H20   H     H_    0.194800 0.398425 0.019372 0.225721
N5    N     N_2   0.313971 0.204307 0.619262 -0.282292
H21   H     H_    0.353944 0.268962 0.650828 0.229139
C37   C     C_3   0.221370 0.154935 0.666808 -0.697192
H22   H     H_    0.168434 0.216260 0.693020 0.244179
H23   H     H_    0.250972 0.113644 0.721007 0.242932
H24   H     H_    0.170622 0.099026 0.624252 0.252236
N6    N     N_2   0.691413 0.801112 0.387228 -0.307501
H25   H     H_    0.696604 0.819909 0.323995 0.241416
C38   C     C_3   0.799360 0.801535 0.423161 -0.660268
H26   H     H_    0.849131 0.746724 0.384201 0.232670
H27   H     H_    0.792480 0.775108 0.489535 0.289806
H28   H     H_    0.842564 0.881922 0.423238 0.230586
S3    S     S_3+6 0.185218 0.404595 0.356611 0.041127
O15   O     O_2   0.094597 0.326280 0.324309 -0.318400
O16   O     O_2   0.217718 0.479551 0.287684 -0.299266
O17   O     O_3   0.289515 0.331684 0.372332 -0.517032
H29   H     H_    0.311010 0.302985 0.314788 0.367237
S4    S     S_3+6 0.814662 0.595655 0.643385 0.023812
O18   O     O_2   0.783248 0.520671 0.712494 -0.290245
O19   O     O_2   0.905095 0.674531 0.675175 -0.326952
O20   O     O_3   0.709581 0.667857 0.628308 -0.545290
H30   H     H_    0.689135 0.697271 0.685860 0.368602

loop_
_geom_bond_atom_site_label_1
_geom_bond_atom_site_label_2
_ccdc_geom_bond_type
C25   C31   T    
C38   H26   S    
C11   C18   A    
C26   C32   T    
C22   C29   S    
C27   C29   S    
N4    H17   S    
C24   C27   S    
C37   H22   S    
C6    N5    S    
N6    H25   S    
C24   H2    S    
C23   C29   S    
C13   N2    A    
S1    O10   D    
S3    O16   D    
S4    O20   S    
C7    C9    A    
C35   H15   S    
S2    O13   D    
C2    O4    A    
C4    H6    S    
S4    O19   D    
C12   C17   A    
C11   H9    S    
C9    C10   A    
C5    N6    S    
C19   O7    A    
C21   C27   S    
C3    H5    S    
C22   C28   S    
C5    C34   A    
N4    C36   S    
O17   H29   S    
C13   H8    S    
C37   H23   S    
C1    C34   S    
C14   N1    A    
N6    C38   S    
N3    H13   S    
C28   N3    S    
C20   O8    A    
C15   S4    S    
N5    C37   S    
C1    O1    A    
S1    O11   S    
C2    O2    A    
O11   H11   S    
N3    C35   S    
C35   H16   S    
C36   H18   S    
C21   S1    S    
S2    O12   D    
C22   S2    S    
O20   H30   S    
C29   C31   S    
S4    O18   D    
C17   C18   A    
C16   C18   A    
C23   C28   S    
C36   H19   S    
C14   H7    S    
C2    C33   S    
C4    C6    A    
C12   C14   A    
C23   H1    S    
C21   C23   S    
C7    C34   A    
C22   C24   S    
C8    H3    S    
S3    O15   D    
C37   H24   S    
O1    Zn1   S    
O7    Zn2   S    
O2    Zn2   S    
O8    Zn1   S    
S2    O14   S    
C3    C5    A    
C16   N1    A    
C15   C17   A    
O3    Zn2   S    
C21   C30   S    
O4    Zn1   S    
C6    C33   A    
C28   C30   S    
C20   O6    A    
C3    C10   A    
S3    O17   S    
C30   C32   S    
C11   C13   A    
S1    O9    D    
C20   C26   S    
C7    H4    S    
O5    Zn1   S    
C8    C33   A    
C35   H14   S    
C19   C25   S    
C36   H20   S    
C24   C30   S    
N5    H21   S    
C19   O5    A    
N1    Zn1   S    
C16   S3    S    
C8    C10   A    
O14   H12   S    
C38   H28   S    
N2    Zn2   S    
C38   H27   S    
C12   H10   S    
C15   N2    A    
C4    C9    A    
C27   N4    S    
C1    O3    A    
O6    Zn2   S    
