data_mof_unit_50027.cif
_audit_creation_date              2012-12-11T14:05:42-0500
_audit_creation_method            fapswitch 2.2
_symmetry_space_group_name_H-M    P1
_symmetry_Int_Tables_number       1
_space_group_crystal_system       triclinic
_cell_length_a                    17.705256
_cell_length_b                    17.705256
_cell_length_c                    17.705265
_cell_angle_alpha                 90.00006
_cell_angle_beta                  90.00006
_cell_angle_gamma                 90.0
_cell_volume                      5550.17724506

loop_
_atom_site_label
_atom_site_type_symbol
_atom_type_description
_atom_site_fract_x
_atom_site_fract_y
_atom_site_fract_z
_atom_type_partial_charge
C1    C     C_R   0.685443 0.782687 0.217313 0.128263
C2    C     C_R   0.314556 0.782688 0.217312 0.128263
C3    C     C_R   0.902346 0.815102 0.610796 0.522351
C4    C     C_R   0.097654 0.389203 0.815102 0.522349
C5    C     C_R   0.902346 0.610797 0.184898 0.522349
C6    C     C_R   0.097654 0.815102 0.610797 0.522349
C7    C     C_R   0.902346 0.184898 0.389203 0.522349
C8    C     C_R   0.815102 0.902346 0.610796 0.522351
C9    C     C_R   0.184898 0.097654 0.389203 0.522351
C10   C     C_R   0.610797 0.902346 0.184898 0.522349
C11   C     C_R   0.389203 0.097654 0.815102 0.522349
C12   C     C_R   0.184898 0.902346 0.389203 0.522349
C13   C     C_R   0.217312 0.314557 0.782687 0.128263
C14   C     C_R   0.815102 0.097654 0.610797 0.522349
C15   C     C_R   0.389204 0.902346 0.815102 0.522355
C16   C     C_R   0.610796 0.097654 0.184898 0.522355
C17   C     C_R   0.184898 0.097654 0.610796 0.522350
C18   C     C_R   0.815102 0.902346 0.389203 0.522350
C19   C     C_R   0.389203 0.097654 0.184898 0.522355
C20   C     C_R   0.610797 0.902346 0.815102 0.522355
C21   C     C_R   0.815102 0.097654 0.389203 0.522352
C22   C     C_R   0.184898 0.902346 0.610797 0.522352
C23   C     C_R   0.610797 0.097654 0.815102 0.522350
C24   C     C_R   0.782687 0.685443 0.217313 0.128263
C25   C     C_R   0.389203 0.902346 0.184898 0.522350
C26   C     C_R   0.314557 0.782687 0.782688 0.128261
C27   C     C_R   0.685442 0.217312 0.217312 0.128261
C28   C     C_R   0.782688 0.685443 0.782687 0.128263
C29   C     C_R   0.217312 0.314557 0.217312 0.128263
C30   C     C_R   0.217313 0.217313 0.685442 0.128258
C31   C     C_R   0.782687 0.782687 0.314558 0.128258
C32   C     C_R   0.217311 0.782688 0.314556 0.128263
C33   C     C_R   0.314557 0.217312 0.782687 0.128263
C34   C     C_R   0.782688 0.217312 0.685444 0.128263
C35   C     C_R   0.782688 0.217311 0.314556 0.128263
C36   C     C_R   0.217312 0.782688 0.685444 0.128263
C37   C     C_R   0.782687 0.782687 0.685442 0.128261
C38   C     C_R   0.217313 0.217313 0.314558 0.128261
C39   C     C_R   0.633196 0.828732 0.828731 -0.398995
C40   C     C_R   0.366804 0.171268 0.171269 -0.398995
C41   C     C_R   0.171268 0.633196 0.828732 -0.398994
C42   C     C_R   0.828731 0.366804 0.171268 -0.398994
C43   C     C_R   0.366804 0.171268 0.828731 -0.398991
C44   C     C_R   0.217312 0.685442 0.217312 0.128261
C45   C     C_R   0.633196 0.828731 0.171269 -0.398991
C46   C     C_R   0.828731 0.366806 0.828731 -0.398996
C47   C     C_R   0.171269 0.633194 0.171269 -0.398996
C48   C     C_R   0.633194 0.171269 0.171269 -0.398996
C49   C     C_R   0.366806 0.828731 0.828731 -0.398996
C50   C     C_R   0.171268 0.366804 0.171269 -0.398995
C51   C     C_R   0.828732 0.633196 0.828731 -0.398995
C52   C     C_R   0.366804 0.828731 0.171268 -0.398994
C53   C     C_R   0.633196 0.171268 0.828732 -0.398994
C54   C     C_R   0.828731 0.633196 0.171269 -0.398991
C55   C     C_R   0.782687 0.314557 0.782688 0.128261
C56   C     C_R   0.171268 0.366804 0.828731 -0.398991
C57   C     C_R   0.828732 0.171268 0.633196 -0.398993
C58   C     C_R   0.171268 0.828732 0.366804 -0.398993
C59   C     C_R   0.828731 0.828731 0.366805 -0.398993
C60   C     C_R   0.171269 0.171269 0.633195 -0.398993
C61   C     C_R   0.171269 0.171269 0.366805 -0.398994
C62   C     C_R   0.828731 0.828731 0.633195 -0.398994
C63   C     C_R   0.171268 0.828732 0.633196 -0.398993
C64   C     C_R   0.828732 0.171268 0.366804 -0.398993
C65   C     C_R   0.717993 0.717993 0.186106 -0.208338
C66   C     C_R   0.314557 0.217312 0.217312 0.128263
C67   C     C_R   0.282007 0.282007 0.813894 -0.208338
C68   C     C_R   0.282008 0.717992 0.186106 -0.208331
C69   C     C_R   0.717992 0.282008 0.813894 -0.208331
C70   C     C_R   0.282006 0.282006 0.186105 -0.208337
C71   C     C_R   0.717993 0.717993 0.813895 -0.208337
C72   C     C_R   0.717992 0.282008 0.186106 -0.208331
C73   C     C_R   0.282008 0.717992 0.813894 -0.208331
C74   C     C_R   0.186105 0.717994 0.717994 -0.208340
C75   C     C_R   0.813895 0.282006 0.282005 -0.208340
C76   C     C_R   0.186107 0.282008 0.717991 -0.208330
C77   C     C_R   0.685443 0.782688 0.782687 0.128263
C78   C     C_R   0.813893 0.717992 0.282008 -0.208330
C79   C     C_R   0.186107 0.282008 0.282008 -0.208333
C80   C     C_R   0.813893 0.717992 0.717991 -0.208333
C81   C     C_R   0.186106 0.717992 0.282007 -0.208334
C82   C     C_R   0.813894 0.282008 0.717993 -0.208334
C83   C     C_R   0.717994 0.186105 0.717994 -0.208340
C84   C     C_R   0.282006 0.813895 0.282005 -0.208340
C85   C     C_R   0.717992 0.186106 0.282007 -0.208334
C86   C     C_R   0.282008 0.813894 0.717993 -0.208334
C87   C     C_R   0.282008 0.186107 0.282008 -0.208333
C88   C     C_R   0.782688 0.314556 0.217312 0.128263
C89   C     C_R   0.717992 0.813893 0.717991 -0.208333
C90   C     C_R   0.282008 0.186107 0.717991 -0.208330
C91   C     C_R   0.717992 0.813893 0.282008 -0.208330
C92   C     C_R   0.610797 0.815102 0.902346 0.522350
C93   C     C_R   0.389203 0.184898 0.097654 0.522350
C94   C     C_R   0.184898 0.610797 0.902346 0.522352
C95   C     C_R   0.815102 0.389203 0.097654 0.522352
C96   C     C_R   0.389203 0.184898 0.902346 0.522346
C97   C     C_R   0.610797 0.815102 0.097654 0.522346
C98   C     C_R   0.815102 0.389203 0.902346 0.522352
C99   C     C_R   0.217312 0.685444 0.782688 0.128263
C100  C     C_R   0.184898 0.610796 0.097654 0.522352
C101  C     C_R   0.610796 0.184898 0.097654 0.522352
C102  C     C_R   0.389203 0.815102 0.902346 0.522352
C103  C     C_R   0.184898 0.389203 0.097654 0.522350
C104  C     C_R   0.815102 0.610797 0.902346 0.522350
C105  C     C_R   0.389203 0.815102 0.097654 0.522352
C106  C     C_R   0.610797 0.184898 0.902346 0.522352
C107  C     C_R   0.815102 0.610797 0.097654 0.522346
C108  C     C_R   0.184898 0.389203 0.902346 0.522346
C109  C     C_R   0.902346 0.610797 0.815102 0.522355
C110  C     C_R   0.685444 0.217312 0.782688 0.128263
C111  C     C_R   0.097654 0.389203 0.184898 0.522355
C112  C     C_R   0.902346 0.184898 0.610797 0.522352
C113  C     C_R   0.097654 0.815102 0.389203 0.522352
C114  C     C_R   0.902346 0.389203 0.184898 0.522350
C115  C     C_R   0.097654 0.610797 0.815102 0.522350
C116  C     C_R   0.902346 0.815102 0.389203 0.522350
C117  C     C_R   0.097654 0.184898 0.610796 0.522350
C118  C     C_R   0.097654 0.610796 0.184898 0.522355
C119  C     C_R   0.902346 0.389204 0.815102 0.522355
C120  C     C_R   0.097654 0.184898 0.389203 0.522351
H1    H     H_    0.700152 0.700152 0.131216 0.178184
H2    H     H_    0.868786 0.299845 0.299845 0.178181
H3    H     H_    0.131218 0.299850 0.700149 0.178185
H4    H     H_    0.868782 0.700150 0.299850 0.178185
H5    H     H_    0.131217 0.299850 0.299850 0.178182
H6    H     H_    0.868782 0.700150 0.700150 0.178182
H7    H     H_    0.131217 0.700151 0.299848 0.178180
H8    H     H_    0.868783 0.299849 0.700152 0.178180
H9    H     H_    0.700155 0.131214 0.700155 0.178181
H10   H     H_    0.299845 0.868786 0.299845 0.178181
H11   H     H_    0.700151 0.131217 0.299848 0.178180
H12   H     H_    0.299848 0.299848 0.868784 0.178184
H13   H     H_    0.299849 0.868783 0.700152 0.178180
H14   H     H_    0.299850 0.131217 0.299850 0.178182
H15   H     H_    0.700150 0.868782 0.700150 0.178182
H16   H     H_    0.299850 0.131218 0.700149 0.178185
H17   H     H_    0.700150 0.868782 0.299850 0.178185
H18   H     H_    0.577611 0.712683 0.884272 0.311863
H19   H     H_    0.422389 0.287317 0.115728 0.311863
H20   H     H_    0.287316 0.577610 0.884273 0.311864
H21   H     H_    0.712684 0.422390 0.115727 0.311864
H22   H     H_    0.422388 0.287317 0.884274 0.311865
H23   H     H_    0.299850 0.700150 0.131217 0.178182
H24   H     H_    0.577612 0.712683 0.115726 0.311865
H25   H     H_    0.712683 0.422391 0.884274 0.311866
H26   H     H_    0.287317 0.577609 0.115726 0.311866
H27   H     H_    0.577609 0.287317 0.115726 0.311866
H28   H     H_    0.422391 0.712683 0.884274 0.311866
H29   H     H_    0.287317 0.422389 0.115728 0.311863
H30   H     H_    0.712683 0.577611 0.884272 0.311863
H31   H     H_    0.422390 0.712684 0.115727 0.311864
H32   H     H_    0.577610 0.287316 0.884273 0.311864
H33   H     H_    0.712683 0.577612 0.115726 0.311865
H34   H     H_    0.700150 0.299850 0.868782 0.178182
H35   H     H_    0.287317 0.422388 0.884274 0.311865
H36   H     H_    0.884274 0.577610 0.712683 0.311866
H37   H     H_    0.115726 0.422389 0.287317 0.311866
H38   H     H_    0.884273 0.287317 0.577612 0.311865
H39   H     H_    0.115727 0.712683 0.422388 0.311865
H40   H     H_    0.884274 0.422386 0.287317 0.311864
H41   H     H_    0.115726 0.577614 0.712682 0.311864
H42   H     H_    0.884274 0.712683 0.422391 0.311865
H43   H     H_    0.115726 0.287317 0.577609 0.311865
H44   H     H_    0.115727 0.577610 0.287317 0.311864
H45   H     H_    0.299846 0.299846 0.131213 0.178183
H46   H     H_    0.884273 0.422390 0.712683 0.311864
H47   H     H_    0.115727 0.287317 0.422390 0.311864
H48   H     H_    0.884273 0.712683 0.577609 0.311864
H49   H     H_    0.115725 0.422392 0.712684 0.311866
H50   H     H_    0.884275 0.577608 0.287316 0.311866
H51   H     H_    0.115726 0.712682 0.577614 0.311867
H52   H     H_    0.884274 0.287318 0.422385 0.311867
H53   H     H_    0.712683 0.884273 0.577609 0.311864
H54   H     H_    0.287317 0.115726 0.422390 0.311864
H55   H     H_    0.577608 0.884275 0.287316 0.311866
H56   H     H_    0.700154 0.700154 0.868787 0.178183
H57   H     H_    0.422392 0.115725 0.712684 0.311866
H58   H     H_    0.287318 0.884274 0.422385 0.311867
H59   H     H_    0.712682 0.115726 0.577614 0.311867
H60   H     H_    0.422390 0.884273 0.712683 0.311864
H61   H     H_    0.577610 0.115727 0.287317 0.311864
H62   H     H_    0.287317 0.115726 0.577609 0.311865
H63   H     H_    0.712683 0.884274 0.422391 0.311865
H64   H     H_    0.422389 0.115726 0.287317 0.311866
H65   H     H_    0.577610 0.884274 0.712683 0.311866
H66   H     H_    0.712683 0.115727 0.422388 0.311865
H67   H     H_    0.700150 0.299850 0.131217 0.178182
H68   H     H_    0.287317 0.884273 0.577612 0.311865
H69   H     H_    0.577614 0.115726 0.712682 0.311864
H70   H     H_    0.422386 0.884274 0.287317 0.311864
H71   H     H_    0.299850 0.700150 0.868782 0.178182
H72   H     H_    0.131214 0.700155 0.700155 0.178181
N1    N     N_R   0.584840 0.879720 0.932190 -0.119452
N2    N     N_R   0.415160 0.879720 0.932190 -0.119452
N3    N     N_R   0.120280 0.415160 0.067810 -0.119452
N4    N     N_R   0.879720 0.584840 0.932190 -0.119452
N5    N     N_R   0.415160 0.879720 0.067810 -0.119452
N6    N     N_R   0.584840 0.120280 0.932190 -0.119452
N7    N     N_R   0.879720 0.584840 0.067810 -0.119452
N8    N     N_R   0.120280 0.415160 0.932190 -0.119452
N9    N     N_R   0.932190 0.584840 0.879720 -0.119452
N10   N     N_R   0.067810 0.415160 0.120280 -0.119452
N11   N     N_R   0.932190 0.120280 0.584840 -0.119452
N12   N     N_R   0.415160 0.120280 0.067810 -0.119452
N13   N     N_R   0.067810 0.879720 0.415160 -0.119452
N14   N     N_R   0.932190 0.415160 0.120280 -0.119451
N15   N     N_R   0.067810 0.584840 0.879720 -0.119451
N16   N     N_R   0.932190 0.879720 0.415160 -0.119453
N17   N     N_R   0.067810 0.120280 0.584840 -0.119453
N18   N     N_R   0.067810 0.584840 0.120280 -0.119452
N19   N     N_R   0.932190 0.415160 0.879720 -0.119452
N20   N     N_R   0.067810 0.120280 0.415160 -0.119452
N21   N     N_R   0.932190 0.879720 0.584840 -0.119452
N22   N     N_R   0.067810 0.415160 0.879720 -0.119452
N23   N     N_R   0.120280 0.584840 0.932190 -0.119452
N24   N     N_R   0.932190 0.584840 0.120280 -0.119452
N25   N     N_R   0.067810 0.879720 0.584840 -0.119451
N26   N     N_R   0.932190 0.120280 0.415160 -0.119451
N27   N     N_R   0.879720 0.932190 0.584840 -0.119452
N28   N     N_R   0.120280 0.067810 0.415160 -0.119452
N29   N     N_R   0.584840 0.932190 0.120280 -0.119452
N30   N     N_R   0.415160 0.067810 0.879720 -0.119452
N31   N     N_R   0.120280 0.932190 0.415160 -0.119451
N32   N     N_R   0.879720 0.067810 0.584840 -0.119451
N33   N     N_R   0.415160 0.932190 0.879720 -0.119452
N34   N     N_R   0.879720 0.415160 0.067810 -0.119452
N35   N     N_R   0.584840 0.067810 0.120280 -0.119452
N36   N     N_R   0.120280 0.067810 0.584840 -0.119453
N37   N     N_R   0.879720 0.932190 0.415160 -0.119453
N38   N     N_R   0.415160 0.067810 0.120280 -0.119452
N39   N     N_R   0.584840 0.932190 0.879720 -0.119452
N40   N     N_R   0.879720 0.067810 0.415160 -0.119452
N41   N     N_R   0.120280 0.932190 0.584840 -0.119452
N42   N     N_R   0.584840 0.067810 0.879720 -0.119451
N43   N     N_R   0.415160 0.932190 0.120280 -0.119451
N44   N     N_R   0.415160 0.120280 0.932190 -0.119452
N45   N     N_R   0.584840 0.879720 0.067810 -0.119452
N46   N     N_R   0.879720 0.415160 0.932190 -0.119452
N47   N     N_R   0.120280 0.584840 0.067810 -0.119452
N48   N     N_R   0.584840 0.120280 0.067810 -0.119452
Ni1   Ni    Ni4+2 0.500000 0.880920 0.000000 0.305895
Ni2   Ni    Ni4+2 0.119080 0.000000 0.500000 0.305895
Ni3   Ni    Ni4+2 0.500000 1.000000 0.119080 0.305894
Ni4   Ni    Ni4+2 0.500000 0.000000 0.880920 0.305894
Ni5   Ni    Ni4+2 0.500000 0.119080 0.000000 0.305894
Ni6   Ni    Ni4+2 0.119080 0.500000 0.000000 0.305894
Ni7   Ni    Ni4+2 0.880920 0.500000 0.000000 0.305895
Ni8   Ni    Ni4+2 0.000000 0.500000 0.880920 0.305894
Ni9   Ni    Ni4+2 0.000000 0.500000 0.119080 0.305894
Ni10  Ni    Ni4+2 0.000000 0.119080 0.500000 0.305895
Ni11  Ni    Ni4+2 0.000000 0.880920 0.500000 0.305895
Ni12  Ni    Ni4+2 0.880920 0.000000 0.500000 0.305895
O1    O     O_3   0.586181 0.746189 0.928339 -0.640794
O2    O     O_3   0.413818 0.746189 0.928340 -0.640794
O3    O     O_3   0.253811 0.413819 0.071661 -0.640794
O4    O     O_3   0.746189 0.586181 0.928339 -0.640794
O5    O     O_3   0.413818 0.746189 0.071660 -0.640796
O6    O     O_3   0.586182 0.253811 0.928340 -0.640796
O7    O     O_3   0.746189 0.586184 0.071660 -0.640797
O8    O     O_3   0.253811 0.413816 0.928340 -0.640797
O9    O     O_3   0.928340 0.586183 0.746189 -0.640798
O10   O     O_3   0.071660 0.413817 0.253811 -0.640798
O11   O     O_3   0.928339 0.253811 0.586182 -0.640794
O12   O     O_3   0.413819 0.253811 0.071661 -0.640794
O13   O     O_3   0.071660 0.746189 0.413818 -0.640794
O14   O     O_3   0.928340 0.413818 0.253811 -0.640799
O15   O     O_3   0.071660 0.586182 0.746189 -0.640799
O16   O     O_3   0.928340 0.746189 0.413818 -0.640796
O17   O     O_3   0.071660 0.253811 0.586182 -0.640796
O18   O     O_3   0.071661 0.586180 0.253811 -0.640796
O19   O     O_3   0.928339 0.413820 0.746189 -0.640796
O20   O     O_3   0.071660 0.253811 0.413818 -0.640795
O21   O     O_3   0.928340 0.746189 0.586182 -0.640795
O22   O     O_3   0.071659 0.413816 0.746189 -0.640796
O23   O     O_3   0.253811 0.586182 0.928340 -0.640796
O24   O     O_3   0.928341 0.586184 0.253811 -0.640796
O25   O     O_3   0.071660 0.746189 0.586183 -0.640796
O26   O     O_3   0.928340 0.253811 0.413817 -0.640796
O27   O     O_3   0.746189 0.928340 0.586182 -0.640795
O28   O     O_3   0.253811 0.071660 0.413818 -0.640795
O29   O     O_3   0.586184 0.928341 0.253811 -0.640796
O30   O     O_3   0.413816 0.071659 0.746189 -0.640796
O31   O     O_3   0.253811 0.928340 0.413817 -0.640796
O32   O     O_3   0.746189 0.071660 0.586183 -0.640796
O33   O     O_3   0.413820 0.928339 0.746189 -0.640796
O34   O     O_3   0.746189 0.413818 0.071660 -0.640796
O35   O     O_3   0.586180 0.071661 0.253811 -0.640796
O36   O     O_3   0.253811 0.071660 0.586182 -0.640796
O37   O     O_3   0.746189 0.928340 0.413818 -0.640796
O38   O     O_3   0.413817 0.071660 0.253811 -0.640798
O39   O     O_3   0.586183 0.928340 0.746189 -0.640798
O40   O     O_3   0.746189 0.071660 0.413818 -0.640794
O41   O     O_3   0.253811 0.928339 0.586182 -0.640794
O42   O     O_3   0.586182 0.071660 0.746189 -0.640799
O43   O     O_3   0.413818 0.928340 0.253811 -0.640799
O44   O     O_3   0.413816 0.253811 0.928340 -0.640797
O45   O     O_3   0.586184 0.746189 0.071660 -0.640797
O46   O     O_3   0.746189 0.413818 0.928340 -0.640794
O47   O     O_3   0.253811 0.586182 0.071660 -0.640794
O48   O     O_3   0.586182 0.253811 0.071660 -0.640794

loop_
_geom_bond_atom_site_label_1
_geom_bond_atom_site_label_2
_ccdc_geom_bond_type
C27   C48   S    
C1    C65   A    
C68   H23   S    
C40   C93   A    
N21   N27   A    
N34   Ni7   S    
C32   C81   A    
C77   C89   A    
C54   C107  A    
C29   C70   A    
C17   N36   A    
C24   C54   S    
C111  N10   A    
C100  N47   A    
C31   C59   S    
C23   N42   A    
C53   C106  A    
C46   C55   S    
N14   N34   A    
C58   C113  A    
N40   Ni12  S    
N18   Ni9   S    
H51   O25   S    
C92   O1    S    
C105  N5    A    
C46   C98   A    
C50   C103  A    
C1    C91   A    
C4    C56   A    
C101  N48   A    
N26   Ni10  S    
C102  N2    A    
N3    Ni6   S    
H59   O32   S    
C4    N22   A    
C42   C95   A    
C44   C81   A    
N25   N41   A    
C94   O23   S    
N20   N28   A    
C36   C86   A    
C51   C104  A    
H57   O30   S    
N13   N31   A    
N29   N45   A    
C6    C63   A    
C12   N31   A    
C6    N25   A    
C30   C76   A    
C41   C94   A    
N30   N44   A    
C43   C96   A    
C60   C117  A    
N43   Ni3   S    
C2    C52   S    
C24   C65   A    
C9    N28   A    
N27   Ni12  S    
N48   Ni5   S    
C28   C71   A    
H33   O7    S    
C97   N45   A    
C14   C57   A    
H49   O22   S    
C117  O17   S    
C3    N21   A    
C95   O34   S    
C119  O19   S    
C69   H34   S    
C120  O20   S    
C85   H11   S    
C66   C70   A    
C80   H6    S    
N35   N48   A    
C84   H10   S    
N11   N32   A    
C15   O33   S    
C15   C49   A    
C11   O30   S    
C22   O41   S    
H22   O44   S    
C8    C62   A    
C120  N20   A    
H40   O14   S    
H46   O19   S    
H65   O39   S    
H66   O40   S    
N33   Ni4   S    
C15   N33   A    
N47   Ni6   S    
C9    C61   A    
N2    N33   A    
C83   H9    S    
C2    C68   A    
C114  O14   S    
C48   C101  A    
N6    Ni5   S    
C71   H56   S    
C107  O7    S    
H60   O33   S    
C56   C108  A    
C21   C64   A    
C22   C63   A    
C42   C114  A    
N24   Ni9   S    
C19   O38   S    
N8    N22   A    
C9    O28   S    
N17   N36   A    
C23   O42   S    
N12   Ni5   S    
N17   Ni10  S    
C13   C56   S    
C79   H5    S    
C20   N39   A    
C25   O43   S    
C61   C120  A    
C87   H14   S    
C41   C115  A    
C23   C53   A    
C37   C80   A    
C5    C54   A    
H47   O20   S    
H63   O37   S    
C70   H45   S    
C112  O11   S    
C21   N40   A    
C100  O47   S    
C113  N13   A    
N46   Ni7   S    
C72   H67   S    
C69   C110  A    
N26   N40   A    
C10   C45   A    
C83   C110  A    
C21   O40   S    
C55   C69   A    
C16   O35   S    
C82   H8    S    
C116  N16   A    
C52   C105  A    
C31   C91   A    
N20   Ni10  S    
C71   C77   A    
C8    O27   S    
H31   O5    S    
N29   Ni3   S    
C3    C62   A    
N1    Ni1   S    
C116  O16   S    
H29   O3    S    
C119  N19   A    
N45   Ni1   S    
N18   N47   A    
C117  N17   A    
N39   Ni4   S    
C25   C52   A    
C8    N27   A    
C107  N7    A    
C35   C85   A    
C1    C45   S    
H41   O15   S    
H42   O16   S    
C50   C111  A    
N21   Ni11  S    
C44   C68   A    
C19   C40   A    
N32   Ni12  S    
C17   C60   A    
C18   C59   A    
N10   Ni9   S    
C51   C109  A    
N42   Ni4   S    
N25   Ni11  S    
N4    N9    A    
C118  O18   S    
C98   O46   S    
C89   H15   S    
N2    Ni1   S    
C75   H2    S    
C103  O3    S    
C2    C84   A    
C67   H12   S    
C32   C58   S    
C30   C90   A    
C37   C62   S    
N5    N43   A    
H28   O2    S    
N5    Ni1   S    
C94   N23   A    
H43   O17   S    
H20   O23   S    
C28   C51   S    
C38   C79   A    
C26   C73   A    
C27   C85   A    
C7    N26   A    
H24   O45   S    
C47   C118  A    
C59   C116  A    
C41   C99   S    
C65   H1    S    
N16   N37   A    
C106  N6    A    
C93   O12   S    
H37   O10   S    
C40   C66   S    
C81   H7    S    
C20   O39   S    
C103  N3    A    
C115  O15   S    
C3    O21   S    
C32   C84   A    
C97   O45   S    
C92   N1    A    
C26   C49   S    
C17   O36   S    
H25   O46   S    
C14   O32   S    
N28   Ni2   S    
C102  O2    S    
C111  O10   S    
C22   N41   A    
C86   H13   S    
C29   C79   A    
H58   O31   S    
N15   N23   A    
C104  N4    A    
N19   N46   A    
C36   C74   A    
C24   C78   A    
N4    Ni7   S    
N1    N39   A    
C109  O9    S    
C39   C92   A    
C49   C102  A    
C31   C78   A    
H69   O42   S    
C20   C39   A    
H44   O18   S    
C105  O5    S    
N44   Ni5   S    
C18   N37   A    
C74   C99   A    
C98   N46   A    
C37   C89   A    
C38   C87   A    
C4    O22   S    
C109  N9    A    
C19   N38   A    
H61   O35   S    
C12   O31   S    
H62   O36   S    
H36   O9    S    
H32   O6    S    
N23   Ni6   S    
H38   O11   S    
N22   Ni8   S    
C112  N11   A    
C6    O25   S    
H52   O26   S    
C27   C72   A    
H53   O27   S    
C53   C110  S    
H54   O28   S    
C16   N35   A    
C115  N15   A    
H50   O24   S    
N15   Ni8   S    
C16   C48   A    
N3    N10   A    
H26   O47   S    
C35   C75   A    
C39   C77   S    
C10   O29   S    
C14   N32   A    
N35   Ni3   S    
C57   C112  A    
N31   Ni2   S    
N11   Ni10  S    
N14   Ni9   S    
C93   N12   A    
N38   Ni3   S    
C10   N29   A    
C91   H17   S    
C30   C60   S    
C34   C57   S    
C11   C43   A    
C35   C64   S    
C36   C63   S    
C78   H4    S    
H68   O41   S    
C44   C47   S    
N7    Ni7   S    
C38   C61   S    
C12   C58   A    
H70   O43   S    
N9    Ni8   S    
H19   O12   S    
C11   N30   A    
C72   C88   A    
C29   C50   S    
C18   O37   S    
N7    N24   A    
C33   C43   S    
C101  O48   S    
N6    N42   A    
N8    Ni6   S    
C66   C87   A    
N30   Ni4   S    
C5    N24   A    
C47   C100  A    
C114  N14   A    
N16   Ni11  S    
N19   Ni8   S    
C108  N8    A    
C96   O44   S    
N13   Ni11  S    
C90   H16   S    
N41   Ni2   S    
H30   O4    S    
C13   C76   A    
C26   C86   A    
C7    O26   S    
C96   N44   A    
C5    O24   S    
C55   C82   A    
C73   H71   S    
H48   O21   S    
C74   H72   S    
C108  O8    S    
C42   C88   S    
C34   C83   A    
H18   O1    S    
H64   O38   S    
H21   O34   S    
C33   C67   A    
C13   C67   A    
C73   C99   A    
C76   H3    S    
H39   O13   S    
C34   C82   A    
C104  O4    S    
C118  N18   A    
C95   N34   A    
C45   C97   A    
C33   C90   A    
H35   O8    S    
C46   C119  A    
N12   N38   A    
C28   C80   A    
C113  O13   S    
C7    C64   A    
N37   Ni12  S    
C75   C88   A    
N36   Ni2   S    
H27   O48   S    
C25   N43   A    
C106  O6    S    
H55   O29   S    
