data_mof_unit_58059.cif
_audit_creation_date              2012-10-26T19:15:05-0400
_audit_creation_method            fapswitch 2.2
_symmetry_space_group_name_H-M    P1
_symmetry_Int_Tables_number       1
_space_group_crystal_system       triclinic
_cell_length_a                    10.90925
_cell_length_b                    10.891128
_cell_length_c                    9.533839
_cell_angle_alpha                 90.699475
_cell_angle_beta                  91.612049
_cell_angle_gamma                 90.360818
_cell_volume                      1132.19622309

loop_
_atom_site_label
_atom_site_type_symbol
_atom_type_description
_atom_site_fract_x
_atom_site_fract_y
_atom_site_fract_z
_atom_type_partial_charge
C1    C     C_R   0.498030 0.262830 0.499086 0.547456
C2    C     C_R   0.487138 0.940229 0.621761 -0.005453
C3    C     C_3   0.572086 0.933624 0.747584 -0.243981
C4    C     C_R   0.261791 0.500225 0.497373 0.540654
C5    C     C_3   0.586591 0.072600 0.740905 -0.115295
C6    C     C_R   0.600008 0.541286 0.077783 0.158975
C7    C     C_R   0.412457 0.438392 0.070716 -0.022784
C8    C     C_R   0.411084 0.440212 0.921673 -0.015827
C9    C     C_R   0.600346 0.540701 0.930334 0.151703
C10   C     C_3   0.654666 0.665944 0.930380 -0.281846
C11   C     C_3   0.657199 0.665105 0.089240 -0.269338
C12   C     C_R   0.940871 0.466846 0.620592 0.004563
C13   C     C_R   0.493228 0.738014 0.499527 0.531867
C14   C     C_R   0.737394 0.497743 0.501368 0.546190
C15   C     C_R   0.067322 0.466460 0.615618 0.008045
C16   C     C_R   0.127634 0.491011 0.490970 0.011939
C17   C     C_R   0.055017 0.500484 0.364049 -0.029829
C18   C     C_R   0.927590 0.494129 0.371350 -0.153088
C19   C     C_R   0.869752 0.487449 0.500038 -0.016269
C20   C     C_3   0.102352 0.535866 0.222084 -0.236347
C21   C     C_3   0.124856 0.674621 0.216823 -0.289457
C22   C     C_3   0.161938 0.713978 0.070889 -0.454474
C23   C     C_3   0.942140 0.532731 0.758489 -0.274418
C24   C     C_3   0.716805 0.120791 0.708405 -0.249564
C25   C     C_3   0.780540 0.057915 0.584370 -0.293015
C26   C     C_3   0.895102 0.129117 0.544566 -0.448998
C27   C     C_2   0.411988 0.878189 0.233701 0.191463
C28   C     C_3   0.080818 0.529786 0.755175 -0.268379
C29   C     C_R   0.496672 0.065772 0.620069 0.028074
C30   C     C_R   0.485296 0.130933 0.496990 -0.029350
C31   C     C_R   0.452685 0.067022 0.373276 -0.131297
C32   C     C_R   0.447220 0.937791 0.370245 -0.014976
C33   C     C_R   0.475700 0.871795 0.496639 -0.039486
Cu1   Cu    Cu3+1 0.499990 0.499980 0.640670 0.930100
Cu2   Cu    Cu3+1 0.500010 0.500020 0.359330 0.918604
H1    H     H_    0.655640 0.879072 0.728789 0.128632
H2    H     H_    0.905748 0.627349 0.749252 0.128251
H3    H     H_    0.903605 0.476228 0.843214 0.132222
H4    H     H_    0.123560 0.622424 0.748190 0.143193
H5    H     H_    0.122373 0.469511 0.836574 0.125962
H6    H     H_    0.433994 0.117888 0.278114 0.180474
H7    H     H_    0.520499 0.908492 0.841836 0.163049
H8    H     H_    0.245967 0.665085 0.039017 0.165815
H9    H     H_    0.086238 0.694036 0.993656 0.144621
H10   H     H_    0.180164 0.814349 0.071110 0.171299
H11   H     H_    0.039477 0.723840 0.243775 0.156443
H12   H     H_    0.547023 0.120508 0.832757 0.151699
H13   H     H_    0.197062 0.701551 0.295591 0.165956
H14   H     H_    0.183347 0.482900 0.194241 0.163440
H15   H     H_    0.033988 0.510886 0.137421 0.117175
H16   H     H_    0.869358 0.220979 0.504678 0.162291
H17   H     H_    0.958949 0.140161 0.636768 0.155951
H18   H     H_    0.942857 0.078625 0.460463 0.143743
H19   H     H_    0.808874 0.963653 0.613229 0.152822
H20   H     H_    0.718401 0.051490 0.490526 0.179884
H21   H     H_    0.710374 0.220908 0.688881 0.176982
H22   H     H_    0.775778 0.110149 0.804394 0.137386
H23   H     H_    0.343652 0.386161 0.123307 0.103200
H24   H     H_    0.375549 0.786137 0.228150 0.145705
H25   H     H_    0.338438 0.393008 0.863014 0.118836
H26   H     H_    0.746935 0.669235 0.885571 0.111434
H27   H     H_    0.587635 0.730283 0.886405 0.156712
H28   H     H_    0.751584 0.662214 0.136017 0.115349
H29   H     H_    0.596603 0.734902 0.135798 0.179293
H30   H     H_    0.873043 0.505326 0.275688 0.133778
N1    N     N_R   0.500790 0.500930 0.147930 -0.233858
N2    N     N_R   0.500790 0.500890 0.852020 -0.232629
O1    O     O_R   0.500000 0.319640 0.618810 -0.506214
O2    O     O_R   0.500010 0.319680 0.381230 -0.506744
O3    O     O_R   0.319650 0.499970 0.618810 -0.506155
O4    O     O_R   0.319660 0.500010 0.381230 -0.520187
O5    O     O_R   0.499990 0.680320 0.618770 -0.493217
O6    O     O_R   0.500000 0.680360 0.381190 -0.526872
O7    O     O_R   0.680340 0.499990 0.618770 -0.501471
O8    O     O_R   0.680350 0.500030 0.381190 -0.506365
O9    O     O_2   0.421619 0.933086 0.123516 -0.564046

loop_
_geom_bond_atom_site_label_1
_geom_bond_atom_site_label_2
_ccdc_geom_bond_type
C3    H7    S    
C17   C20   S    
C6    C9    A    
C4    O3    A    
C7    C8    A    
C18   H30   S    
C5    H12   S    
C12   C23   S    
Cu2   O8    S    
C20   H14   S    
C2    C29   A    
C14   O7    A    
Cu1   Cu2   S    
C11   H28   S    
C30   C31   A    
C28   H5    S    
C15   C16   A    
C1    O1    A    
C18   C19   A    
C20   H15   S    
C22   H9    S    
C31   C32   A    
C16   C17   A    
C9    C10   S    
Cu1   O3    S    
C7    H23   S    
C21   H13   S    
Cu2   O4    S    
C21   C22   S    
C10   H27   S    
C5    C29   S    
C24   C25   S    
C11   H29   S    
Cu1   O1    S    
C6    C11   S    
C24   H22   S    
C28   H4    S    
C25   C26   S    
C23   H2    S    
C1    O2    A    
C4    C16   S    
C9    N2    A    
C13   C33   S    
C29   C30   A    
C26   H17   S    
C22   H8    S    
C12   C15   A    
C17   C18   A    
C23   C28   S    
C25   H19   S    
Cu1   O7    S    
C2    C33   A    
C13   O6    A    
C10   H26   S    
C27   O9    D    
C26   H18   S    
Cu1   O5    S    
C21   H11   S    
Cu2   O6    S    
C31   H6    S    
C27   C32   S    
C14   C19   S    
C25   H20   S    
C3    C5    S    
Cu1   N2    S    
C13   O5    A    
C24   H21   S    
C23   H3    S    
Cu2   N1    S    
C32   C33   A    
C2    C3    S    
C27   H24   S    
C26   H16   S    
C14   O8    A    
C7    N1    A    
C15   C28   S    
C5    C24   S    
C3    H1    S    
C12   C19   A    
C1    C30   S    
C10   C11   S    
C6    N1    A    
C22   H10   S    
C20   C21   S    
Cu2   O2    S    
C8    N2    A    
C4    O4    A    
C8    H25   S    
