data_mof_unit_16222.cif
_audit_creation_date              2012-12-10T18:35:11-0500
_audit_creation_method            fapswitch 2.2
_symmetry_space_group_name_H-M    P1
_symmetry_Int_Tables_number       1
_space_group_crystal_system       triclinic
_cell_length_a                    18.835729
_cell_length_b                    18.697762
_cell_length_c                    18.818941
_cell_angle_alpha                 109.403852
_cell_angle_beta                  109.624882
_cell_angle_gamma                 109.174775
_cell_volume                      5115.18802261

loop_
_atom_site_label
_atom_site_type_symbol
_atom_type_description
_atom_site_fract_x
_atom_site_fract_y
_atom_site_fract_z
_atom_type_partial_charge
C1    C     C_R   0.382454 0.501955 0.381581 0.801722
C2    C     C_R   0.684457 0.812704 0.782540 0.411820
C3    C     C_R   0.953548 0.731121 0.956367 -0.086954
C4    C     C_R   0.942670 0.718859 0.022185 -0.141343
C5    C     C_R   0.007769 0.776856 0.109659 0.115129
C6    C     C_R   0.274959 0.550611 0.939233 -0.154554
C7    C     C_R   0.191323 0.479176 0.880377 -0.084435
C8    C     C_R   0.167751 0.400764 0.882661 0.108258
C9    C     C_R   0.231212 0.393208 0.940616 -0.188429
C10   C     C_R   0.314730 0.464809 0.999582 -0.119494
C11   C     C_R   0.336444 0.543647 0.999259 -0.112737
C12   C     C_R   0.076999 0.255464 0.753280 -0.252310
C13   C     C_R   0.823529 0.825757 0.585313 0.363794
C14   C     C_R   0.997466 0.184036 0.684459 -0.042052
C15   C     C_R   0.918977 0.178527 0.678365 0.033491
C16   C     C_R   0.922165 0.242775 0.745578 -0.281419
C17   C     C_R   0.002221 0.315117 0.814878 -0.085750
C18   C     C_R   0.080696 0.323335 0.816966 -0.013760
C19   C     C_R   0.798934 0.114458 0.527837 -0.189814
C20   C     C_R   0.728211 0.041365 0.449171 0.492453
C21   C     C_R   0.689322 0.961497 0.446557 -0.152763
C22   C     C_R   0.723251 0.954189 0.520382 -0.135130
C23   C     C_R   0.794862 0.026532 0.597856 -0.167528
C24   C     C_R   0.815689 0.816435 0.504106 -0.207793
C25   C     C_R   0.834139 0.106725 0.601813 0.034652
C26   C     C_R   0.742050 0.744722 0.424596 -0.056701
C27   C     C_R   0.682619 0.678748 0.426363 -0.240070
C28   C     C_R   0.687888 0.688294 0.504676 -0.131770
C29   C     C_R   0.753975 0.765510 0.584072 -0.097777
C30   C     C_R   0.647475 0.734271 0.286979 -0.156687
C31   C     C_R   0.629208 0.727116 0.205709 -0.164807
C32   C     C_R   0.686032 0.721519 0.174602 -0.126533
C33   C     C_R   0.619620 0.619357 0.501286 0.820881
C34   C     C_R   0.761230 0.723180 0.224795 -0.117793
C35   C     C_R   0.779863 0.730823 0.306299 -0.106188
C36   C     C_R   0.723307 0.736608 0.338168 0.152988
C37   C     C_R   0.409750 0.762842 0.554389 -0.240595
C38   C     C_R   0.359595 0.680829 0.479518 -0.091553
C39   C     C_R   0.372432 0.666463 0.407778 0.055518
C40   C     C_R   0.433596 0.736673 0.410677 -0.242864
C41   C     C_R   0.481288 0.820083 0.484361 0.513300
C42   C     C_R   0.471104 0.832168 0.557321 -0.227037
C43   C     C_R   0.250693 0.577594 0.257703 -0.241825
C44   C     C_R   0.617746 0.498868 0.618880 0.787962
C45   C     C_R   0.184679 0.497550 0.184019 -0.069578
C46   C     C_R   0.180877 0.418947 0.177839 0.016137
C47   C     C_R   0.248367 0.423027 0.242462 -0.257720
C48   C     C_R   0.314934 0.503081 0.316104 -0.079991
C49   C     C_R   0.313744 0.581182 0.326168 0.017566
C50   C     C_R   0.058373 0.271686 0.120675 -0.232464
C51   C     C_R   0.992582 0.188182 0.052065 -0.207823
C52   C     C_R   0.976394 0.163457 0.966902 0.533802
C53   C     C_R   0.029753 0.222797 0.951937 -0.214634
C54   C     C_R   0.093513 0.307044 0.020075 -0.202625
C55   C     C_R   0.379236 0.381071 0.498007 0.791680
C56   C     C_R   0.108792 0.331902 0.104824 0.132437
C57   C     C_R   0.181717 0.499716 0.541894 -0.152810
C58   C     C_R   0.208140 0.440526 0.552496 -0.152583
C59   C     C_R   0.220280 0.388979 0.488907 0.134621
C60   C     C_R   0.205600 0.397507 0.414656 -0.122533
C61   C     C_R   0.178420 0.456270 0.403985 -0.150032
C62   C     C_R   0.166623 0.507396 0.467572 -0.130121
C63   C     C_R   0.175499 0.252922 0.494977 -0.241151
C64   C     C_R   0.185331 0.182449 0.496325 -0.069849
C65   C     C_R   0.258661 0.176904 0.497493 0.000739
C66   C     C_R   0.666081 0.845765 0.726312 -0.270251
C67   C     C_R   0.320696 0.242756 0.497159 -0.249866
C68   C     C_R   0.311007 0.313599 0.496202 -0.081018
C69   C     C_R   0.237664 0.319019 0.495152 -0.005024
C70   C     C_R   0.343676 0.116212 0.565117 -0.137747
C71   C     C_R   0.356759 0.046250 0.562972 -0.149743
C72   C     C_R   0.298196 0.962284 0.491517 -0.143374
C73   C     C_R   0.226622 0.948203 0.421977 -0.132637
C74   C     C_R   0.212761 0.017817 0.424223 -0.122769
C75   C     C_R   0.271128 0.102319 0.496044 0.124804
C76   C     C_R   0.556270 0.570097 0.865353 -0.172450
C77   C     C_R   0.694092 0.834985 0.665821 -0.215694
C78   C     C_R   0.624057 0.569592 0.850474 -0.142252
C79   C     C_R   0.606874 0.501687 0.774438 0.126655
C80   C     C_R   0.521070 0.433660 0.714331 -0.121893
C81   C     C_R   0.453490 0.434358 0.729616 -0.125229
C82   C     C_R   0.471036 0.502643 0.804883 -0.121215
C83   C     C_R   0.745004 0.499710 0.822110 -0.245551
C84   C     C_R   0.814698 0.497977 0.811906 -0.082590
C85   C     C_R   0.819959 0.497441 0.738745 -0.009161
C86   C     C_R   0.753740 0.496785 0.676057 -0.236458
C87   C     C_R   0.683665 0.497858 0.685884 -0.058863
C88   C     C_R   0.740424 0.790032 0.659894 0.163566
C89   C     C_R   0.679350 0.500409 0.760164 0.027747
C90   C     C_R   0.947504 0.564763 0.722071 -0.137396
C91   C     C_R   0.012983 0.560927 0.704367 -0.137068
C92   C     C_R   0.022578 0.487054 0.687773 -0.132263
C93   C     C_R   0.966957 0.417069 0.689236 -0.134889
C94   C     C_R   0.901911 0.420975 0.707785 -0.119189
C95   C     C_R   0.891747 0.494891 0.724191 0.123549
C96   C     C_R   0.998845 0.879574 0.381444 0.783820
C97   C     C_R   0.881518 0.882479 0.501766 0.867702
C98   C     C_R   0.998719 0.117736 0.618423 0.845013
C99   C     C_R   0.762097 0.759487 0.718375 -0.153806
C100  C     C_R   0.118735 0.116993 0.498100 0.779562
C101  C     C_R   0.001399 0.381238 0.882229 0.798181
C102  C     C_R   0.118454 0.498424 0.117459 0.792567
C103  C     C_R   0.999150 0.618912 0.117735 0.789840
C104  C     C_R   0.881432 0.498635 0.879665 0.787432
C105  C     C_R   0.089241 0.762465 0.545444 -0.130281
C106  C     C_R   0.084310 0.775825 0.475490 -0.093197
C107  C     C_R   0.005875 0.726558 0.396035 0.098532
C108  C     C_R   0.934168 0.660215 0.386066 -0.192281
C109  C     C_R   0.939184 0.647235 0.456231 -0.124483
C110  C     C_R   0.738761 0.774887 0.783199 0.411769
C111  C     C_R   0.016535 0.698650 0.536024 -0.080139
C112  C     C_R   0.997443 0.675439 0.253560 -0.240527
C113  C     C_R   0.998140 0.685844 0.183607 -0.071820
C114  C     C_R   0.000710 0.760539 0.179454 -0.000410
C115  C     C_R   0.999116 0.822111 0.244582 -0.271580
C116  C     C_R   0.999419 0.812274 0.315266 -0.079663
C117  C     C_R   0.000948 0.739247 0.321233 -0.011013
C118  C     C_R   0.082657 0.848331 0.130427 -0.152869
C119  C     C_R   0.093268 0.860221 0.064394 -0.135951
C120  C     C_R   0.029132 0.801197 0.977411 -0.121610
Cu1   Cu    Cu3+1 0.499980 0.561800 0.561790 0.935706
Cu2   Cu    Cu3+1 0.500020 0.438200 0.438210 0.945354
Cu3   Cu    Cu3+1 0.061810 0.999960 0.561770 1.036081
Cu4   Cu    Cu3+1 0.938190 0.999990 0.438190 0.917048
Cu5   Cu    Cu3+1 0.061800 0.561770 0.999960 0.964739
Cu6   Cu    Cu3+1 0.938200 0.438190 0.000000 0.942893
H1    H     H_    0.671859 0.715997 0.111697 0.116800
H2    H     H_    0.805281 0.718988 0.200732 0.138421
H3    H     H_    0.838840 0.733796 0.345290 0.103705
H4    H     H_    0.510087 0.895469 0.615804 0.129909
H5    H     H_    0.400420 0.772841 0.609866 0.146394
H6    H     H_    0.310820 0.628447 0.477514 0.151224
H7    H     H_    0.442661 0.727206 0.355030 0.136803
H8    H     H_    0.250233 0.637242 0.263874 0.144335
H9    H     H_    0.247577 0.362988 0.236503 0.156647
H10   H     H_    0.626910 0.877008 0.727381 0.170673
H11   H     H_    0.070139 0.289404 0.186139 0.146246
H12   H     H_    0.954260 0.142221 0.065134 0.153288
H13   H     H_    0.023396 0.203699 0.888258 0.160738
H14   H     H_    0.132305 0.352741 0.007553 0.134556
H15   H     H_    0.145659 0.552864 0.459152 0.129119
H16   H     H_    0.172333 0.539152 0.591008 0.123299
H17   H     H_    0.218082 0.434001 0.609649 0.119623
H18   H     H_    0.212566 0.356822 0.363987 0.102172
H19   H     H_    0.165634 0.461720 0.346075 0.143569
H20   H     H_    0.675586 0.857717 0.620480 0.153883
H21   H     H_    0.118695 0.256361 0.493646 0.150537
H22   H     H_    0.377177 0.238929 0.497957 0.149586
H23   H     H_    0.389804 0.181101 0.620608 0.122631
H24   H     H_    0.412612 0.057209 0.616436 0.125030
H25   H     H_    0.308779 0.908318 0.489621 0.126587
H26   H     H_    0.182229 0.883363 0.366194 0.142151
H27   H     H_    0.157343 0.006215 0.369738 0.100478
H28   H     H_    0.418613 0.503169 0.816445 0.129742
H29   H     H_    0.569835 0.622856 0.923748 0.118950
H30   H     H_    0.689828 0.622342 0.897872 0.136923
H31   H     H_    0.797791 0.724591 0.714116 0.144169
H32   H     H_    0.506731 0.379905 0.656201 0.096638
H33   H     H_    0.387521 0.381801 0.683377 0.139558
H34   H     H_    0.742020 0.500942 0.879063 0.145930
H35   H     H_    0.757069 0.495890 0.619336 0.151529
H36   H     H_    0.940119 0.621993 0.734031 0.123083
H37   H     H_    0.055901 0.614966 0.702922 0.120108
H38   H     H_    0.072950 0.483922 0.673551 0.115757
H39   H     H_    0.974062 0.359660 0.675496 0.138213
H40   H     H_    0.858679 0.366066 0.707990 0.106030
H41   H     H_    0.020392 0.688417 0.590237 0.124042
H42   H     H_    0.149517 0.801380 0.606858 0.122742
H43   H     H_    0.141406 0.824693 0.483264 0.133201
H44   H     H_    0.874302 0.618965 0.324147 0.133607
H45   H     H_    0.883247 0.597009 0.448602 0.135786
H46   H     H_    0.997593 0.618716 0.257087 0.153728
H47   H     H_    0.999804 0.879149 0.241263 0.149282
H48   H     H_    0.133578 0.893580 0.197531 0.125678
H49   H     H_    0.151450 0.914904 0.080634 0.133771
H50   H     H_    0.037505 0.810327 0.926325 0.130018
H51   H     H_    0.903383 0.686451 0.889026 0.155620
H52   H     H_    0.884232 0.663787 0.005078 0.097100
H53   H     H_    0.401218 0.598924 0.044690 0.115445
H54   H     H_    0.292285 0.611151 0.937834 0.117995
H55   H     H_    0.145030 0.484903 0.832942 0.135435
H56   H     H_    0.215945 0.331841 0.940093 0.138830
H57   H     H_    0.362843 0.458921 0.044990 0.134386
H58   H     H_    0.136667 0.260135 0.755183 0.149867
H59   H     H_    0.862093 0.237920 0.742417 0.150605
H60   H     H_    0.829498 0.175936 0.529940 0.139732
H61   H     H_    0.628473 0.621648 0.365584 0.160898
H62   H     H_    0.632843 0.905027 0.387402 0.130550
H63   H     H_    0.694275 0.891934 0.517038 0.164403
H64   H     H_    0.820758 0.019394 0.653919 0.166536
H65   H     H_    0.603017 0.738838 0.310444 0.121390
H66   H     H_    0.571036 0.725980 0.166895 0.118283
O1    O     O_R   0.409800 0.552190 0.462000 -0.578784
O2    O     O_R   0.947810 0.909820 0.357620 -0.591772
O3    O     O_R   0.962020 0.909790 0.552160 -0.500186
O4    O     O_R   0.857630 0.909810 0.447800 -0.593743
O5    O     O_R   0.052190 0.090130 0.642340 -0.543794
O6    O     O_R   0.947800 0.090160 0.537980 -0.618062
O7    O     O_R   0.142370 0.090140 0.552150 -0.582051
O8    O     O_R   0.037980 0.090170 0.447800 -0.596853
O9    O     O_R   0.052200 0.461970 0.909800 -0.582617
O10   O     O_R   0.947810 0.357610 0.909840 -0.585883
O11   O     O_R   0.142370 0.552160 0.090140 -0.582926
O12   O     O_R   0.409840 0.447810 0.357640 -0.588398
O13   O     O_R   0.037990 0.447800 0.090170 -0.579541
O14   O     O_R   0.052190 0.642350 0.090120 -0.572801
O15   O     O_R   0.947800 0.537990 0.090150 -0.590672
O16   O     O_R   0.962010 0.552150 0.909780 -0.571405
O17   O     O_R   0.857630 0.447800 0.909820 -0.589104
O18   O     O_R   0.590160 0.642370 0.552180 -0.588133
O19   O     O_R   0.590190 0.537990 0.447820 -0.586704
O20   O     O_R   0.590160 0.552190 0.642360 -0.583039
O21   O     O_R   0.590200 0.447810 0.538000 -0.588305
O22   O     O_R   0.409810 0.462010 0.552180 -0.583931
O23   O     O_R   0.409840 0.357630 0.447820 -0.586689
O24   O     O_R   0.052200 0.909800 0.461980 -0.583831
O25   O     O_3   0.649953 0.819654 0.837140 -0.642795
C121  C     C_3   0.580434 0.737123 0.806526 0.050881
H67   H     H_    0.571481 0.738831 0.862363 0.161478
H68   H     H_    0.593943 0.682670 0.783191 0.180138
C122  C     C_3   0.496328 0.718974 0.734906 -0.380421
H69   H     H_    0.486316 0.775989 0.757050 0.219578
H70   H     H_    0.501291 0.708780 0.675514 0.226923
C123  C     C_3   0.418128 0.638015 0.712012 -0.879912
H71   H     H_    0.426973 0.580273 0.690511 0.287389
H72   H     H_    0.359198 0.625763 0.658393 0.255918
H73   H     H_    0.408974 0.647731 0.769136 0.237170
O26   O     O_3   0.542185 0.887842 0.486428 -0.644822
C124  C     C_3   0.515221 0.949746 0.484177 0.040966
H74   H     H_    0.574453 0.012997 0.513400 0.184214
H75   H     H_    0.483443 0.961672 0.523876 0.121921
C125  C     C_3   0.455436 0.922655 0.390060 -0.360084
H76   H     H_    0.485513 0.905490 0.350075 0.229448
H77   H     H_    0.392292 0.864237 0.362806 0.204404
C126  C     C_3   0.439281 0.995983 0.384655 -0.882540
H78   H     H_    0.410203 0.015306 0.424893 0.266492
H79   H     H_    0.393866 0.973387 0.316130 0.253064
H80   H     H_    0.501152 0.053684 0.407683 0.263190
O27   O     O_3   0.914857 0.078066 0.902135 -0.623389
C127  C     C_3   0.852420 0.074419 0.831137 0.088451
H81   H     H_    0.820500 0.008412 0.774691 0.210674
H82   H     H_    0.880694 0.120848 0.810966 0.139227
C128  C     C_3   0.782848 0.087041 0.849484 -0.380584
H83   H     H_    0.752347 0.037426 0.865561 0.237310
H84   H     H_    0.813102 0.152941 0.905991 0.218473
C129  C     C_3   0.713070 0.078043 0.770719 -0.925727
H85   H     H_    0.741911 0.129597 0.756052 0.260683
H86   H     H_    0.662216 0.085052 0.784681 0.254205
H87   H     H_    0.682326 0.013081 0.712761 0.257400
O28   O     O_3   0.766057 0.747570 0.842289 -0.637031
C130  C     C_3   0.812563 0.816661 0.929717 0.022000
H88   H     H_    0.835644 0.790219 0.971759 0.169179
H89   H     H_    0.770136 0.837160 0.949260 0.185047
C131  C     C_3   0.891865 0.895962 0.949367 -0.329893
H90   H     H_    0.930566 0.873762 0.924109 0.236847
H91   H     H_    0.869985 0.930361 0.916505 0.255081
C132  C     C_3   0.948970 0.960630 0.046781 -0.899378
H92   H     H_    0.911865 0.986026 0.072175 0.249669
H93   H     H_    0.005949 0.016314 0.058824 0.263366
H94   H     H_    0.972447 0.928777 0.082166 0.263129
S1    S     S_3+6 0.920390 0.908880 0.687370 -0.030510
O29   O     O_2   0.991028 0.886540 0.692425 -0.286297
O30   O     O_2   0.947627 0.996113 0.692345 -0.334314
O31   O     O_3   0.910534 0.917996 0.775003 -0.565789
H95   H     H_    0.969569 0.960893 0.825531 0.385092
O32   O     O_3   0.695598 0.050491 0.376860 -0.624797
C133  C     C_3   0.705147 0.998752 0.309922 0.024788
H96   H     H_    0.655639 0.985027 0.247094 0.166444
H97   H     H_    0.692562 0.933858 0.303792 0.135295
C134  C     C_3   0.795149 0.048232 0.322091 -0.349087
H98   H     H_    0.802990 0.108225 0.318374 0.214683
H99   H     H_    0.846024 0.068059 0.387072 0.243387
C135  C     C_3   0.807860 0.991815 0.252837 -0.874130
H100  H     H_    0.802050 0.932349 0.256827 0.267283
H101  H     H_    0.873506 0.029393 0.263411 0.253118
H102  H     H_    0.758678 0.972221 0.186937 0.237850

loop_
_geom_bond_atom_site_label_1
_geom_bond_atom_site_label_2
_ccdc_geom_bond_type
C40   C41   A    
C93   C94   A    
C81   H33   S    
C108  H44   S    
C5    C114  S    
C133  H97   S    
C41   C42   A    
C35   C36   A    
C103  O14   A    
Cu3   O3    S    
C123  H71   S    
C94   H40   S    
C55   O22   A    
C55   C68   S    
C121  H67   S    
C50   H11   S    
Cu3   Cu4   S    
C12   H58   S    
C45   C46   A    
C108  C109  A    
Cu5   O9    S    
C26   C27   A    
C124  H74   S    
C57   H16   S    
C90   H36   S    
C97   O4    A    
Cu3   O7    S    
C28   C29   A    
C103  C113  S    
C37   C38   A    
C76   C78   A    
C132  H92   S    
C122  C123  S    
C39   C40   A    
C101  O10   A    
C109  C111  A    
C19   H60   S    
C55   O23   A    
C112  C117  A    
C133  C134  S    
O32   C133  S    
C130  H89   S    
C71   H24   S    
C16   C17   A    
C106  C107  A    
Cu6   O13   S    
C128  H83   S    
Cu4   O6    S    
Cu5   O14   S    
C2    C110  A    
C135  H102  S    
C116  C117  A    
C17   C18   A    
C34   C35   A    
C73   C74   A    
Cu1   O20   S    
Cu2   O12   S    
C37   C42   A    
C17   C101  S    
C118  C119  A    
C125  H76   S    
C29   C88   S    
C131  H91   S    
C9    H56   S    
C124  H75   S    
C52   O27   S    
C119  H49   S    
C46   C47   A    
C121  H68   S    
C58   H17   S    
C120  H50   S    
C54   H14   S    
C83   H34   S    
O27   C127  S    
C77   C88   A    
C8    C9    A    
C65   C67   A    
C2    O25   S    
C107  C108  A    
C14   C98   S    
C70   C71   A    
C135  H101  S    
C104  O16   A    
C44   C87   S    
Cu4   O2    S    
C9    C10   A    
C35   H3    S    
C134  H98   S    
C72   C73   A    
C47   H9    S    
C92   H38   S    
C96   O2    A    
C105  C111  A    
C41   O26   S    
C93   H39   S    
C59   C60   A    
C122  H70   S    
C21   C22   A    
C10   H57   S    
C126  H79   S    
C134  C135  S    
C91   H37   S    
C61   C62   A    
C70   H23   S    
C104  O17   A    
C19   C25   A    
C103  O15   A    
C63   H21   S    
C112  C113  A    
C13   C24   A    
C114  C115  A    
C54   C56   A    
C22   C23   A    
C38   C39   A    
C83   C89   A    
C24   C97   S    
C129  H86   S    
C74   C75   A    
C7    H55   S    
C63   C64   A    
C32   H1    S    
C51   C52   A    
C47   C48   A    
C63   C69   A    
C7    C8    A    
C84   C85   A    
C130  H88   S    
C10   C11   A    
C4    H52   S    
C6    C11   A    
S1    O30   D    
C98   O6    A    
C78   C79   A    
C68   C69   A    
C130  C131  S    
C131  C132  S    
C128  H84   S    
O28   C130  S    
Cu1   O18   S    
C99   C110  A    
C31   H66   S    
C127  C128  S    
C81   C82   A    
C67   C68   A    
C74   H27   S    
C123  H72   S    
C60   C61   A    
C44   O20   A    
C38   H6    S    
C109  H45   S    
C43   H8    S    
C1    O1    A    
C102  O11   A    
C100  O7    A    
C122  H69   S    
Cu2   O23   S    
C131  H90   S    
C33   O18   A    
C80   H32   S    
C83   C84   A    
C14   C15   A    
C64   C100  S    
Cu6   O15   S    
C126  H78   S    
C128  C129  S    
Cu4   O4    S    
C127  H82   S    
C50   C51   A    
Cu1   Cu2   S    
C42   H4    S    
C86   H35   S    
C27   H61   S    
C30   H65   S    
C20   C21   A    
C22   H63   S    
C92   C93   A    
C43   C45   A    
C85   C86   A    
C59   C69   S    
C66   H10   S    
C100  O8    A    
C26   C36   S    
C48   C49   A    
C39   C49   S    
C12   C14   A    
C110  O28   S    
C87   C89   A    
C73   H26   S    
Cu5   Cu6   S    
C84   C104  S    
C126  H80   S    
C134  H99   S    
C58   C59   A    
C11   H53   S    
C57   C62   A    
C62   H15   S    
C76   C82   A    
C3    C4    A    
Cu1   O1    S    
C123  H73   S    
C91   C92   A    
C72   H25   S    
C52   C53   A    
C86   C87   A    
C21   H62   S    
C113  C114  A    
C40   H7    S    
C13   C29   A    
C121  C122  S    
C66   C77   A    
C129  H85   S    
Cu5   O11   S    
C76   H29   S    
C98   O5    A    
C6    H54   S    
C125  H77   S    
C53   H13   S    
Cu3   O5    S    
C31   C32   A    
C43   C49   A    
C3    C120  A    
C24   C26   A    
C80   C81   A    
C2    C66   A    
Cu6   O17   S    
C90   C95   A    
C28   C33   S    
S1    O31   S    
C133  H96   S    
C105  H42   S    
C1    C48   S    
C53   C54   A    
C6    C7    A    
C124  C125  S    
C105  C106  A    
Cu4   O8    S    
Cu5   O16   S    
C65   C75   S    
Cu2   O21   S    
C30   C36   A    
C5    C118  A    
C16   H59   S    
C132  H94   S    
Cu1   O22   S    
C97   O3    A    
C19   C20   A    
C99   H31   S    
O31   H95   S    
C96   O24   A    
C71   C72   A    
C115  H47   S    
C101  O9    A    
C64   C65   A    
C85   C95   S    
C30   C31   A    
C78   H30   S    
C90   C91   A    
C112  H46   S    
C12   C18   A    
C15   C16   A    
O25   C121  S    
C61   H19   S    
C127  H81   S    
C106  H43   S    
C8    C18   S    
C44   O21   A    
C125  C126  S    
C3    H51   S    
C94   C95   A    
C33   O19   A    
C102  O13   A    
C50   C56   A    
C79   C89   S    
C88   C99   A    
C15   C25   S    
C45   C102  S    
Cu6   O10   S    
O26   C124  S    
C79   C80   A    
C82   H28   S    
C51   H12   S    
C37   H5    S    
C4    C5    A    
C23   C25   A    
C111  H41   S    
C20   O32   S    
C118  H48   S    
C34   H2    S    
C119  C120  A    
C46   C56   S    
C67   H22   S    
S1    O29   D    
Cu2   O19   S    
C96   C116  S    
C70   C75   A    
C132  H93   S    
C57   C58   A    
Cu3   O24   S    
C1    O12   A    
C13   S1    S    
C77   H20   S    
C107  C117  S    
C23   H64   S    
C60   H18   S    
C115  C116  A    
C32   C34   A    
C27   C28   A    
C129  H87   S    
C135  H100  S    
