data_mof_unit_61563.cif
_audit_creation_date              2012-12-10T20:17:52-0500
_audit_creation_method            fapswitch 2.2
_symmetry_space_group_name_H-M    P1
_symmetry_Int_Tables_number       1
_space_group_crystal_system       triclinic
_cell_length_a                    25.648391
_cell_length_b                    25.649524
_cell_length_c                    34.518763
_cell_angle_alpha                 90.001167
_cell_angle_beta                  90.017558
_cell_angle_gamma                 89.999948
_cell_volume                      22708.8237332

loop_
_atom_site_label
_atom_site_type_symbol
_atom_type_description
_atom_site_fract_x
_atom_site_fract_y
_atom_site_fract_z
_atom_type_partial_charge
C1    C     C_1   0.828168 0.671626 0.750122 -0.033204
C2    C     C_1   0.171625 0.671828 0.749876 -0.034593
C3    C     C_R   0.404193 0.000556 0.479540 0.041876
C4    C     C_R   0.014932 0.594374 0.520415 0.050630
C5    C     C_R   0.985765 0.405448 0.479598 0.057296
C6    C     C_R   0.404198 0.998723 0.520406 0.041897
C7    C     C_R   0.595808 0.999397 0.479585 0.041861
C8    C     C_R   0.503271 0.905002 0.019764 0.057445
C9    C     C_R   0.469114 0.092891 0.979714 0.043302
C10   C     C_R   0.095746 0.495430 0.020501 0.047236
C11   C     C_R   0.904420 0.506100 0.979636 0.041585
C12   C     C_R   0.465017 0.091694 0.020376 0.047554
C13   C     C_1   0.328257 0.171709 0.250007 -0.031064
C14   C     C_R   0.507860 0.905951 0.979084 0.049652
C15   C     C_R   0.904349 0.504313 0.020501 0.042131
C16   C     C_R   0.095647 0.493730 0.979636 0.041652
C17   C     C_R   0.500000 0.999999 0.644163 0.594012
C18   C     C_R   0.499998 0.000001 0.355835 0.593719
C19   C     C_R   0.999992 0.500012 0.644152 0.591698
C20   C     C_R   0.000010 0.499960 0.355849 0.586805
C21   C     C_R   0.000032 0.499997 0.144179 0.589193
C22   C     C_R   0.999989 0.500000 0.855847 0.592788
C23   C     C_R   0.499913 0.000060 0.144199 0.568670
C24   C     C_1   0.671639 0.828184 0.750132 -0.035327
C25   C     C_R   0.499971 0.000130 0.855875 0.588066
C26   C     C_R   0.599014 0.098977 0.749983 0.516752
C27   C     C_R   0.400999 0.901008 0.250000 0.523907
C28   C     C_R   0.900986 0.598977 0.750018 0.517198
C29   C     C_R   0.099001 0.401008 0.250000 0.525007
C30   C     C_R   0.400992 0.901021 0.749979 0.517069
C31   C     C_R   0.598994 0.098995 0.250003 0.518816
C32   C     C_R   0.099008 0.401022 0.750022 0.517094
C33   C     C_R   0.901004 0.598992 0.249995 0.521191
C34   C     C_R   0.598997 0.901012 0.250008 0.519665
C35   C     C_1   0.171699 0.671752 0.250047 -0.035563
C36   C     C_R   0.401026 0.099011 0.750020 0.516311
C37   C     C_R   0.901006 0.401010 0.249996 0.521210
C38   C     C_R   0.098975 0.599010 0.749982 0.516903
C39   C     C_R   0.400997 0.098986 0.250005 0.521803
C40   C     C_R   0.598983 0.900992 0.750020 0.518189
C41   C     C_R   0.098987 0.599001 0.250013 0.519263
C42   C     C_R   0.901019 0.400991 0.749978 0.516998
C43   C     C_R   0.746149 0.707618 0.724650 -0.090952
C44   C     C_R   0.252239 0.290765 0.276912 -0.090995
C45   C     C_R   0.292300 0.746238 0.724498 -0.089244
C46   C     C_1   0.828366 0.328179 0.749861 -0.034581
C47   C     C_R   0.705755 0.255712 0.273361 -0.090769
C48   C     C_R   0.254006 0.292566 0.724830 -0.090950
C49   C     C_R   0.745165 0.706608 0.274324 -0.091346
C50   C     C_R   0.707425 0.254003 0.724756 -0.089128
C51   C     C_R   0.292116 0.746449 0.275675 -0.090173
C52   C     C_R   0.744309 0.294264 0.273359 -0.092006
C53   C     C_R   0.253744 0.707688 0.724498 -0.089697
C54   C     C_R   0.290782 0.252204 0.276916 -0.090918
C55   C     C_R   0.707601 0.746174 0.724652 -0.091132
C56   C     C_R   0.253562 0.707899 0.275685 -0.089211
C57   C     C_1   0.671729 0.828280 0.250011 -0.035196
C58   C     C_R   0.745975 0.292559 0.724751 -0.089743
C59   C     C_R   0.706616 0.745164 0.274333 -0.089619
C60   C     C_R   0.292561 0.254017 0.724830 -0.091383
C61   C     C_R   0.247765 0.209221 0.223090 -0.089298
C62   C     C_R   0.753572 0.792108 0.775703 -0.090393
C63   C     C_R   0.794265 0.244284 0.226671 -0.089426
C64   C     C_R   0.207421 0.754037 0.775153 -0.091342
C65   C     C_R   0.754824 0.793396 0.225664 -0.092211
C66   C     C_R   0.246307 0.207739 0.775567 -0.089938
C67   C     C_R   0.207803 0.753612 0.224408 -0.092701
C68   C     C_1   0.328385 0.171837 0.750141 -0.034278
C69   C     C_R   0.792864 0.245712 0.774879 -0.091245
C70   C     C_R   0.245976 0.792587 0.775153 -0.090834
C71   C     C_R   0.755712 0.205732 0.226675 -0.091406
C72   C     C_R   0.792121 0.753551 0.775700 -0.089462
C73   C     C_R   0.209221 0.247782 0.223087 -0.090917
C74   C     C_R   0.754315 0.207157 0.774884 -0.091173
C75   C     C_R   0.246356 0.792164 0.224399 -0.091729
C76   C     C_R   0.207751 0.246289 0.775567 -0.089592
C77   C     C_R   0.793373 0.754841 0.225657 -0.091122
C78   C     C_2   0.049443 0.584141 0.602983 0.609143
C79   C     C_R   0.788484 0.711243 0.750167 0.036870
C80   C     C_2   0.950778 0.415306 0.397413 0.605845
C81   C     C_2   0.410849 0.961235 0.602963 0.605017
C82   C     C_2   0.589418 0.961872 0.397020 0.604649
C83   C     C_2   0.950464 0.415918 0.602962 0.609199
C84   C     C_2   0.049260 0.584255 0.397092 0.611341
C85   C     C_2   0.589148 0.038763 0.602995 0.605061
C86   C     C_2   0.410589 0.038159 0.397001 0.604570
C87   C     C_2   0.490524 0.096206 0.104760 0.582398
C88   C     C_2   0.551306 0.918275 0.899135 0.608943
C89   C     C_2   0.908885 0.466329 0.103019 0.603550
C90   C     C_R   0.211389 0.288622 0.249998 0.036159
C91   C     C_2   0.087213 0.457045 0.897016 0.606478
C92   C     C_2   0.533519 0.909508 0.102742 0.600668
C93   C     C_2   0.446123 0.082128 0.894875 0.609660
C94   C     C_2   0.091419 0.533846 0.102711 0.598669
C95   C     C_2   0.912797 0.542959 0.897052 0.606486
C96   C     C_2   0.991561 0.355213 0.541372 0.613139
C97   C     C_2   0.007051 0.644606 0.458609 0.610405
C98   C     C_2   0.645993 0.993834 0.541387 0.631119
C99   C     C_2   0.354057 0.992793 0.458600 0.631564
C100  C     C_2   0.008551 0.644754 0.541234 0.612819
C101  C     C_R   0.288491 0.788750 0.749832 0.036936
C102  C     C_2   0.993674 0.355228 0.458753 0.610555
C103  C     C_2   0.354002 0.006117 0.541315 0.631124
C104  C     C_2   0.645948 0.007142 0.458676 0.631402
C105  C     C_2   0.489588 0.855056 0.039354 0.610614
C106  C     C_2   0.466972 0.144411 0.960008 0.636196
C107  C     C_2   0.145351 0.484764 0.041444 0.631401
C108  C     C_2   0.853888 0.501251 0.958749 0.630930
C109  C     C_2   0.439042 0.136345 0.039934 0.639135
C110  C     C_2   0.503101 0.856238 0.957183 0.615303
C111  C     C_2   0.854709 0.514688 0.041446 0.631521
C112  C     C_1   0.171742 0.328277 0.249999 -0.033673
C113  C     C_R   0.711387 0.211378 0.250018 0.036722
C114  C     C_2   0.146166 0.498582 0.958757 0.631237
C115  C     C_R   0.211524 0.288765 0.750190 0.036836
C116  C     C_R   0.788613 0.711377 0.249987 0.036564
C117  C     C_R   0.711520 0.211240 0.749829 0.037035
C118  C     C_R   0.288583 0.788650 0.250031 0.036457
C119  C     C_R   0.788631 0.288619 0.250013 0.037234
C120  C     C_R   0.211242 0.711513 0.749833 0.036362
C121  C     C_R   0.288613 0.211363 0.250005 0.036265
C122  C     C_R   0.711250 0.788494 0.750172 0.036291
C123  C     C_R   0.211339 0.711411 0.250050 0.036541
C124  C     C_1   0.328180 0.828363 0.749872 -0.032712
C125  C     C_R   0.788756 0.288488 0.749820 0.036482
C126  C     C_R   0.711377 0.788627 0.250003 0.036896
C127  C     C_R   0.288773 0.211527 0.750190 0.036182
C128  C     C_R   0.019460 0.543513 0.581633 0.028993
C129  C     C_R   0.980946 0.456200 0.418405 0.036186
C130  C     C_R   0.454201 0.987145 0.581656 0.032627
C131  C     C_R   0.545888 0.987475 0.418335 0.032842
C132  C     C_R   0.980508 0.456508 0.581635 0.029075
C133  C     C_R   0.019313 0.543509 0.418370 0.034650
C134  C     C_R   0.545797 0.012840 0.581675 0.032640
C135  C     C_1   0.671732 0.171730 0.250015 -0.035498
C136  C     C_R   0.454112 0.012520 0.418319 0.032898
C137  C     C_R   0.486973 0.046778 0.082313 0.036599
C138  C     C_R   0.518577 0.958056 0.919088 0.028520
C139  C     C_R   0.953604 0.489825 0.081717 0.033757
C140  C     C_R   0.045118 0.484872 0.918370 0.032447
C141  C     C_R   0.509092 0.953920 0.081576 0.040510
C142  C     C_R   0.476636 0.043533 0.917767 0.028976
C143  C     C_R   0.046591 0.510003 0.081701 0.035383
C144  C     C_R   0.954907 0.515096 0.918380 0.032497
C145  C     C_1   0.638457 0.861438 0.750082 0.025787
C146  C     C_1   0.171830 0.328373 0.750143 -0.033181
C147  C     C_1   0.361476 0.138492 0.250006 0.034140
C148  C     C_1   0.138443 0.638573 0.749927 0.026645
C149  C     C_1   0.861495 0.361492 0.249998 0.028483
C150  C     C_1   0.361563 0.138578 0.750084 0.027193
C151  C     C_1   0.638512 0.861498 0.250013 0.026832
C152  C     C_1   0.861547 0.361435 0.749913 0.026632
C153  C     C_1   0.138490 0.638524 0.250035 0.025851
C154  C     C_1   0.638511 0.138512 0.250010 0.028442
C155  C     C_1   0.361435 0.861546 0.749921 0.029326
C156  C     C_1   0.138523 0.361496 0.250001 0.031843
C157  C     C_1   0.828266 0.671727 0.249985 -0.035110
C158  C     C_1   0.861423 0.638444 0.750071 0.028520
C159  C     C_1   0.361469 0.861504 0.250006 0.031847
C160  C     C_1   0.638579 0.138443 0.749929 0.028609
C161  C     C_1   0.861486 0.638508 0.249988 0.029607
C162  C     C_1   0.138571 0.361553 0.750087 0.028549
C163  C     C_R   0.999976 0.500017 0.601814 -0.019834
C164  C     C_R   0.000053 0.499897 0.398188 -0.021270
C165  C     C_R   0.499999 0.999997 0.601828 -0.017838
C166  C     C_R   0.500000 0.000001 0.398167 -0.017479
C167  C     C_R   0.498850 0.000213 0.101866 -0.022578
C168  C     C_1   0.671835 0.171624 0.749878 -0.033277
C169  C     C_R   0.499439 0.001041 0.898270 -0.019915
C170  C     C_R   0.000074 0.499977 0.101867 -0.019938
C171  C     C_R   0.000005 0.499997 0.898203 -0.018222
C172  C     C_R   0.987753 0.453588 0.540953 -0.028515
C173  C     C_R   0.012082 0.546372 0.459056 -0.024155
C174  C     C_R   0.547843 0.004339 0.541022 -0.026461
C175  C     C_R   0.452128 0.004004 0.458971 -0.026452
C176  C     C_R   0.012309 0.546373 0.540934 -0.028004
C177  C     C_R   0.988182 0.453440 0.459084 -0.018913
C178  C     C_R   0.452155 0.995628 0.541000 -0.026444
C179  C     C_1   0.328242 0.828293 0.250016 -0.033790
C180  C     C_R   0.547874 0.995967 0.458992 -0.026501
C181  C     C_R   0.502490 0.952650 0.040808 -0.017779
C182  C     C_R   0.480121 0.046360 0.958853 -0.032507
C183  C     C_R   0.048070 0.501408 0.041066 -0.021511
C184  C     C_R   0.952461 0.506733 0.959039 -0.026563
C185  C     C_R   0.481085 0.046606 0.041333 -0.026488
C186  C     C_R   0.507730 0.954455 0.959248 -0.029186
C187  C     C_R   0.952048 0.498404 0.041067 -0.026355
C188  C     C_R   0.047593 0.493171 0.959035 -0.027406
C189  C     C_R   0.000055 0.499964 0.520458 -0.005119
C190  C     C_1   0.828279 0.328272 0.250004 -0.034744
C191  C     C_R   0.000100 0.499929 0.479558 -0.006106
C192  C     C_R   0.499999 0.999982 0.520467 -0.002312
C193  C     C_R   0.500000 0.999983 0.479526 -0.002334
C194  C     C_R   0.492279 0.999945 0.020617 -0.005078
C195  C     C_R   0.493143 0.000303 0.979605 -0.004124
C196  C     C_R   0.000050 0.499921 0.020520 -0.003053
C197  C     C_R   0.000035 0.499941 0.979578 -0.002439
C198  C     C_R   0.985238 0.405545 0.520481 0.050557
C199  C     C_R   0.014584 0.594391 0.479529 0.052157
C200  C     C_R   0.595800 0.001233 0.520452 0.041917
H1    H     H_    0.675031 0.743015 0.704794 0.131764
H2    H     H_    0.325020 0.742904 0.704803 0.134122
H3    H     H_    0.254275 0.322184 0.297843 0.132123
H4    H     H_    0.742971 0.675060 0.704790 0.131781
H5    H     H_    0.324613 0.743367 0.295611 0.132803
H6    H     H_    0.674486 0.257527 0.705268 0.133941
H7    H     H_    0.741113 0.673150 0.293249 0.130835
H8    H     H_    0.257291 0.325255 0.705092 0.131748
H9    H     H_    0.177794 0.245766 0.202154 0.132911
H10   H     H_    0.824703 0.756719 0.795548 0.134055
H11   H     H_    0.760443 0.171596 0.208519 0.130236
H12   H     H_    0.322208 0.254219 0.297849 0.133393
H13   H     H_    0.242665 0.825304 0.794857 0.131926
H14   H     H_    0.826820 0.758900 0.206727 0.131093
H15   H     H_    0.175056 0.242983 0.795293 0.134232
H16   H     H_    0.243259 0.824639 0.204453 0.131143
H17   H     H_    0.757849 0.174244 0.794386 0.131059
H18   H     H_    0.174712 0.757361 0.794859 0.131461
H19   H     H_    0.828392 0.239545 0.208513 0.132286
H20   H     H_    0.756759 0.824677 0.795552 0.133433
H21   H     H_    0.245731 0.177804 0.202158 0.135752
H22   H     H_    0.825791 0.242198 0.794378 0.131366
H23   H     H_    0.257064 0.674959 0.704804 0.134268
H24   H     H_    0.175310 0.756690 0.204468 0.130020
H25   H     H_    0.243013 0.175038 0.795293 0.134880
H26   H     H_    0.758874 0.826854 0.206740 0.130161
H27   H     H_    0.052670 0.634420 0.647876 0.340097
H28   H     H_    0.885849 0.371009 0.395682 0.356889
H29   H     H_    0.361206 0.962310 0.648290 0.339486
H30   H     H_    0.639056 0.963314 0.351692 0.339091
H31   H     H_    0.947132 0.365664 0.647862 0.340037
H32   H     H_    0.052779 0.634167 0.351986 0.340211
H33   H     H_    0.638782 0.037725 0.648348 0.339452
H34   H     H_    0.739580 0.328400 0.291515 0.129766
H35   H     H_    0.360992 0.036822 0.351629 0.338731
H36   H     H_    0.528390 0.164183 0.113044 0.352217
H37   H     H_    0.559710 0.868302 0.854421 0.341016
H38   H     H_    0.859545 0.469943 0.148458 0.338598
H39   H     H_    0.137149 0.456182 0.851867 0.339512
H40   H     H_    0.593304 0.858605 0.105861 0.357215
H41   H     H_    0.444731 0.133826 0.850849 0.339809
H42   H     H_    0.144563 0.591739 0.104572 0.356104
H43   H     H_    0.862866 0.543928 0.851878 0.339641
H44   H     H_    0.960802 0.285506 0.555720 0.355752
H45   H     H_    0.325243 0.257312 0.705091 0.131640
H46   H     H_    0.962783 0.686385 0.421615 0.357181
H47   H     H_    0.687346 0.950547 0.579258 0.358421
H48   H     H_    0.313033 0.949214 0.420714 0.358937
H49   H     H_    0.039229 0.714530 0.555511 0.355915
H50   H     H_    0.038282 0.313675 0.421862 0.358808
H51   H     H_    0.312633 0.049416 0.579153 0.358481
H52   H     H_    0.687017 0.050740 0.420847 0.358764
H53   H     H_    0.439249 0.816781 0.074076 0.358707
H54   H     H_    0.424784 0.208247 0.946551 0.357182
H55   H     H_    0.183746 0.438894 0.079354 0.360003
H56   H     H_    0.673170 0.741105 0.293263 0.132948
H57   H     H_    0.810250 0.459982 0.921049 0.358585
H58   H     H_    0.440095 0.212937 0.053128 0.355611
H59   H     H_    0.534683 0.786682 0.943435 0.355726
H60   H     H_    0.816087 0.560301 0.079386 0.358461
H61   H     H_    0.189838 0.539945 0.921160 0.358063
H62   H     H_    0.742432 0.325483 0.705260 0.134006
H63   H     H_    0.256660 0.675421 0.295629 0.134484
H64   H     H_    0.671627 0.260453 0.291519 0.131169
O1    O     O_3   0.500000 0.000000 0.750000 -0.465862
O2    O     O_R   0.500000 0.957280 0.337460 -0.506188
O3    O     O_R   0.651508 0.049698 0.433715 -0.654153
O4    O     O_2   0.517966 0.816971 0.036399 -0.426071
O5    O     O_R   0.444331 0.852346 0.061835 -0.667668
O6    O     O_2   0.505306 0.160526 0.942684 -0.461637
O7    O     O_R   0.421279 0.174124 0.961136 -0.624169
O8    O     O_2   0.183057 0.513368 0.037081 -0.441569
O9    O     O_R   0.148344 0.442057 0.066503 -0.656572
O10   O     O_2   0.819908 0.534235 0.962951 -0.433372
O11   O     O_R   0.845773 0.458973 0.933911 -0.654795
O12   O     O_2   0.397986 0.129357 0.057173 -0.456982
O13   O     O_R   0.957280 0.500000 0.662540 -0.506328
O14   O     O_R   0.461473 0.186012 0.038646 -0.631936
O15   O     O_2   0.465358 0.849020 0.936200 -0.481228
O16   O     O_R   0.542197 0.818462 0.959980 -0.596506
O17   O     O_2   0.817203 0.485805 0.037128 -0.433715
O18   O     O_R   0.851475 0.557390 0.066495 -0.654733
O19   O     O_2   0.180082 0.465509 0.962860 -0.434103
O20   O     O_R   0.154332 0.540959 0.934030 -0.655148
O21   O     O_R   0.042720 0.500000 0.337460 -0.510097
O22   O     O_R   0.000000 0.457280 0.162540 -0.509866
O23   O     O_R   0.000000 0.542720 0.837460 -0.506028
O24   O     O_R   0.542720 0.000000 0.162540 -0.522934
O25   O     O_R   0.457280 0.000000 0.837460 -0.507892
O26   O     O_R   0.000000 0.542720 0.162540 -0.503908
O27   O     O_R   0.000000 0.457280 0.837460 -0.506035
O28   O     O_R   0.457280 0.000000 0.162540 -0.489698
O29   O     O_3   0.500000 0.000000 0.250000 -0.468158
O30   O     O_R   0.542720 0.000000 0.837460 -0.505645
O31   O     O_R   0.560140 0.102800 0.727040 -0.528750
O32   O     O_R   0.439860 0.897200 0.272960 -0.526077
O33   O     O_R   0.897200 0.560140 0.727040 -0.528050
O34   O     O_R   0.102800 0.439860 0.272960 -0.528730
O35   O     O_R   0.439860 0.897200 0.727040 -0.528971
O36   O     O_R   0.560140 0.102800 0.272960 -0.526183
O37   O     O_R   0.102800 0.439860 0.727040 -0.528031
O38   O     O_R   0.897200 0.560140 0.272960 -0.531034
O39   O     O_R   0.560140 0.897200 0.272960 -0.527360
O40   O     O_3   0.000000 0.500000 0.750000 -0.465636
O41   O     O_R   0.439860 0.102800 0.727040 -0.526658
O42   O     O_R   0.897200 0.439860 0.272960 -0.526123
O43   O     O_R   0.102800 0.560140 0.727040 -0.528719
O44   O     O_R   0.439860 0.102800 0.272960 -0.531760
O45   O     O_R   0.560140 0.897200 0.727040 -0.525852
O46   O     O_R   0.102800 0.560140 0.272960 -0.526694
O47   O     O_R   0.897200 0.439860 0.727040 -0.528779
O48   O     O_R   0.060140 0.602800 0.227040 -0.528622
O49   O     O_R   0.939860 0.397200 0.772960 -0.527015
O50   O     O_R   0.397200 0.060140 0.227040 -0.518546
O51   O     O_3   0.000000 0.500000 0.250000 -0.467095
O52   O     O_R   0.602800 0.939860 0.772960 -0.528915
O53   O     O_R   0.939860 0.397200 0.227040 -0.528791
O54   O     O_R   0.060140 0.602800 0.772960 -0.527120
O55   O     O_R   0.602800 0.939860 0.227040 -0.527617
O56   O     O_R   0.397200 0.060140 0.772960 -0.528360
O57   O     O_R   0.060140 0.397200 0.772960 -0.528696
O58   O     O_R   0.939860 0.602800 0.227040 -0.527497
O59   O     O_R   0.397200 0.939860 0.772960 -0.527726
O60   O     O_R   0.602800 0.060140 0.227040 -0.533567
O61   O     O_R   0.939860 0.602800 0.772960 -0.528687
O62   O     O_R   0.500000 0.957280 0.662540 -0.505567
O63   O     O_R   0.060140 0.397200 0.227040 -0.526426
O64   O     O_R   0.602800 0.060140 0.772960 -0.529518
O65   O     O_R   0.397200 0.939860 0.227040 -0.529331
O66   O     O_2   0.092581 0.597074 0.591352 -0.461756
O67   O     O_R   0.028372 0.607626 0.636029 -0.676990
O68   O     O_2   0.968080 0.395503 0.367849 -0.502165
O69   O     O_R   0.902634 0.399143 0.412119 -0.651347
O70   O     O_2   0.393441 0.919832 0.591065 -0.465957
O71   O     O_R   0.390241 0.983904 0.636481 -0.682860
O72   O     O_2   0.607109 0.920583 0.408906 -0.467267
O73   O     O_R   0.500000 0.042720 0.337460 -0.505762
O74   O     O_R   0.609869 0.984700 0.363506 -0.682937
O75   O     O_2   0.907335 0.403010 0.591281 -0.461924
O76   O     O_R   0.971468 0.392433 0.636038 -0.677013
O77   O     O_2   0.092021 0.597807 0.409120 -0.463081
O78   O     O_R   0.028558 0.607212 0.363705 -0.682010
O79   O     O_2   0.606559 0.080154 0.591091 -0.466253
O80   O     O_R   0.609750 0.016122 0.636531 -0.682881
O81   O     O_2   0.392869 0.079408 0.408932 -0.467783
O82   O     O_R   0.390177 0.015416 0.363437 -0.683649
O83   O     O_2   0.459714 0.105124 0.130975 -0.483182
O84   O     O_R   0.042720 0.500000 0.662540 -0.506337
O85   O     O_R   0.529729 0.132126 0.095894 -0.659015
O86   O     O_2   0.593375 0.905903 0.913058 -0.462328
O87   O     O_R   0.533865 0.894590 0.865009 -0.675306
O88   O     O_2   0.889043 0.426110 0.090987 -0.467710
O89   O     O_R   0.889762 0.489885 0.136686 -0.683186
O90   O     O_2   0.102385 0.414647 0.908660 -0.466654
O91   O     O_R   0.109189 0.479083 0.863748 -0.682382
O92   O     O_2   0.512712 0.891369 0.131639 -0.501407
O93   O     O_R   0.580498 0.888622 0.089290 -0.651987
O94   O     O_2   0.400230 0.089723 0.902647 -0.467159
O95   O     O_R   0.957280 0.500000 0.337460 -0.505202
O96   O     O_R   0.469681 0.109110 0.864330 -0.674029
O97   O     O_2   0.108093 0.514127 0.132510 -0.504308
O98   O     O_R   0.114440 0.579120 0.088022 -0.656144
O99   O     O_2   0.897591 0.585311 0.908764 -0.466508
O100  O     O_R   0.890840 0.521008 0.863733 -0.682307
O101  O     O_2   0.031121 0.347163 0.560231 -0.479815
O102  O     O_R   0.952008 0.317772 0.540066 -0.596815
O103  O     O_2   0.039094 0.679645 0.461711 -0.416635
O104  O     O_R   0.963510 0.651008 0.434700 -0.668162
O105  O     O_2   0.681681 0.024940 0.537101 -0.432945
O106  O     O_R   0.500000 0.042720 0.662540 -0.505404
O107  O     O_R   0.651831 0.951344 0.566375 -0.655119
O108  O     O_2   0.318138 0.023634 0.462891 -0.434036
O109  O     O_R   0.348539 0.950270 0.433601 -0.653924
O110  O     O_2   0.968970 0.652815 0.560049 -0.479565
O111  O     O_R   0.048067 0.682234 0.539908 -0.596435
O112  O     O_2   0.961952 0.319917 0.461940 -0.423510
O113  O     O_R   0.037249 0.349104 0.434856 -0.670213
O114  O     O_2   0.318325 0.974994 0.537021 -0.432499
O115  O     O_R   0.348149 0.048623 0.566286 -0.655134
O116  O     O_2   0.681837 0.976263 0.462960 -0.434078
Zn1   Zn    Zn3+2 0.561040 0.000000 0.782730 1.008339
Zn2   Zn    Zn3+2 0.938960 0.500000 0.717270 1.010662
Zn3   Zn    Zn3+2 0.500000 0.061040 0.282730 1.010144
Zn4   Zn    Zn3+2 0.500000 0.938960 0.717270 1.012175
Zn5   Zn    Zn3+2 0.938960 0.500000 0.282730 1.013746
Zn6   Zn    Zn3+2 0.061040 0.500000 0.717270 1.010630
Zn7   Zn    Zn3+2 0.500000 0.938960 0.282730 1.014676
Zn8   Zn    Zn3+2 0.500000 0.061040 0.717270 1.010875
Zn9   Zn    Zn3+2 0.438960 0.000000 0.217270 1.025540
Zn10  Zn    Zn3+2 0.000000 0.561040 0.782730 1.011010
Zn11  Zn    Zn3+2 0.000000 0.438960 0.217270 1.015772
Zn12  Zn    Zn3+2 0.438960 0.000000 0.782730 1.011395
Zn13  Zn    Zn3+2 0.561040 0.000000 0.217270 1.004268
Zn14  Zn    Zn3+2 0.000000 0.438960 0.782730 1.011111
Zn15  Zn    Zn3+2 0.000000 0.561040 0.217270 1.015002
Zn16  Zn    Zn3+2 0.061040 0.500000 0.282730 1.014493

loop_
_geom_bond_atom_site_label_1
_geom_bond_atom_site_label_2
_ccdc_geom_bond_type
C144  C184  A    
O36   Zn3   S    
O61   Zn10  S    
C177  C191  A    
C157  C161  T    
C99   O109  S    
C50   C117  A    
C83   O76   S    
O30   Zn1   S    
C109  O14   S    
C18   C166  S    
C52   H34   S    
H42   O98   S    
C105  O4    D    
C95   O99   D    
C92   O93   S    
O52   Zn1   S    
C72   C79   A    
O63   Zn11  S    
C42   O47   A    
C100  O110  D    
O31   Zn8   S    
C21   C170  S    
C51   C118  A    
C102  O112  D    
C71   C113  A    
C63   H19   S    
C9    C182  A    
C11   C15   A    
C4    C199  A    
O46   Zn16  S    
O58   Zn15  S    
C131  C166  A    
C86   O81   D    
C93   O94   D    
C44   H3    S    
C104  O3    S    
C26   C160  S    
C104  O116  D    
C95   C144  S    
O29   Zn13  S    
O60   Zn13  S    
C87   O85   S    
C77   H14   S    
O50   Zn9   S    
C84   C133  S    
H57   O11   S    
C65   C77   A    
C56   C123  A    
C16   C188  A    
C159  C179  T    
C18   O2    A    
C34   O39   A    
C91   O91   S    
C103  O114  D    
C173  C191  A    
C130  C165  A    
H40   O93   S    
C78   O66   D    
C129  C164  A    
C59   C126  A    
C33   C161  S    
H61   O20   S    
H52   O3    S    
O51   Zn15  S    
C66   C76   A    
C48   H8    S    
C28   C158  S    
C183  C196  A    
C134  C165  A    
C69   C74   A    
C20   O95   A    
C181  C194  A    
O95   Zn5   S    
C38   C148  S    
C23   C167  S    
C40   C145  S    
C142  C182  A    
O65   Zn9   S    
C71   H11   S    
C97   O103  D    
C111  O18   S    
O29   Zn9   S    
O49   Zn14  S    
C18   O73   A    
H41   O96   S    
C110  O15   D    
O1    Zn8   S    
C134  C174  A    
C107  O8    D    
O106  Zn8   S    
C196  C197  A    
H38   O89   S    
C67   C123  A    
O35   Zn4   S    
C47   C52   A    
C98   C200  S    
C53   H23   S    
C64   C120  A    
O54   Zn10  S    
C132  C163  A    
O24   Zn13  S    
C10   C16   A    
C76   H15   S    
C36   C150  S    
C176  C189  A    
C12   C185  A    
C66   H25   S    
O51   Zn11  S    
C17   O106  A    
C141  C181  A    
C85   O79   D    
C31   O60   A    
C107  O9    S    
C91   C140  S    
C17   O62   A    
C113  C135  S    
C98   O105  D    
C17   C165  S    
C21   O26   A    
C132  C172  A    
C29   O63   A    
C82   C131  S    
C133  C173  A    
C175  C193  A    
C93   C142  S    
O29   Zn3   S    
C8    C181  A    
C143  C183  A    
O25   Zn12  S    
C3    C6    A    
C8    C105  S    
O38   Zn5   S    
C70   C101  A    
C96   C198  S    
C144  C171  A    
C136  C166  A    
C188  C197  A    
C73   H9    S    
C73   C90   A    
C24   C145  T    
O27   Zn14  S    
C117  C168  S    
C27   C159  S    
C55   H1    S    
H54   O7    S    
C63   C119  A    
C92   O92   D    
C61   C121  A    
C189  C191  A    
C94   O98   S    
H29   O71   S    
H27   O67   S    
C81   O70   D    
C32   C162  S    
C65   H26   S    
C172  C198  A    
C21   O22   A    
C85   C134  S    
C23   O24   A    
C54   H12   S    
C45   C53   A    
C106  O7    S    
C138  C169  A    
H36   O85   S    
C34   O55   A    
O43   Zn6   S    
C41   C153  S    
C101  C124  S    
C29   C156  S    
C56   H63   S    
C2    C120  S    
O39   Zn7   S    
C22   O27   A    
C13   C121  S    
C28   O61   A    
O47   Zn2   S    
C103  O115  S    
C19   C163  S    
C92   C141  S    
C50   H6    S    
C43   C55   A    
C54   C121  A    
C84   O78   S    
C140  C171  A    
C67   C75   A    
C13   C147  T    
C62   C122  A    
C31   C154  S    
O62   Zn4   S    
C14   C110  S    
C80   C129  S    
C83   O75   D    
C11   C184  A    
C35   C153  T    
C143  C170  A    
C16   C114  S    
C131  C180  A    
C51   H5    S    
C47   H64   S    
C49   C59   A    
O40   Zn14  S    
O64   Zn1   S    
C65   C126  A    
C35   C123  S    
C39   O44   A    
C96   O102  S    
C57   C151  T    
C7    C180  A    
C20   O21   A    
C9    C12   A    
C109  O12   D    
C68   C150  T    
C31   O36   A    
C52   C119  A    
C3    C99   S    
C114  O19   D    
C86   O82   S    
C124  C155  T    
C43   H4    S    
H30   O74   S    
C182  C195  A    
O13   Zn2   S    
C58   H62   S    
C180  C193  A    
C89   O89   S    
O56   Zn12  S    
C187  C196  A    
C173  C199  A    
C111  O17   D    
C97   C199  S    
C46   C125  S    
C119  C190  S    
C185  C194  A    
C78   C128  S    
O28   Zn9   S    
C98   O107  S    
C53   C120  A    
C160  C168  T    
C146  C162  T    
C80   O68   D    
C135  C154  T    
O40   Zn10  S    
C1    C158  T    
C138  C186  A    
C108  O10   D    
H59   O16   S    
H48   O109  S    
C20   C164  S    
C76   C115  A    
C78   O67   S    
C7    C200  A    
O2    Zn7   S    
C130  C178  A    
H53   O5    S    
C45   H2    S    
H31   O76   S    
H58   O14   S    
C37   O53   A    
C110  O16   S    
C22   C171  S    
H37   O87   S    
H39   O91   S    
C108  O11   S    
C194  C195  A    
C69   C125  A    
O37   Zn6   S    
H33   O80   S    
C6    C178  A    
C10   C183  A    
O55   Zn13  S    
C75   C118  A    
O23   Zn10  S    
O44   Zn3   S    
C137  C185  A    
C105  O5    S    
C41   O46   A    
C141  C167  A    
O1    Zn4   S    
C128  C176  A    
C95   O100  S    
C140  C188  A    
C40   O45   A    
C114  O20   S    
C61   C73   A    
C27   O65   A    
C129  C177  A    
O29   Zn7   S    
C50   C58   A    
O84   Zn6   S    
O45   Zn4   S    
C87   O83   D    
C29   O34   A    
C32   O37   A    
C115  C146  S    
C24   C122  S    
C80   O69   S    
C6    C103  S    
C68   C127  S    
C45   C101  A    
C142  C169  A    
C3    C175  A    
C30   C155  S    
C19   O13   A    
O32   Zn7   S    
C133  C164  A    
H44   O102  S    
C137  C167  A    
O53   Zn11  S    
H46   O104  S    
C47   C113  A    
O21   Zn16  S    
C5    C102  S    
O51   Zn5   S    
C19   O84   A    
C59   H56   S    
C70   H13   S    
C60   C127  A    
C37   C149  S    
H28   O69   S    
C172  C189  A    
C102  O113  S    
C174  C200  A    
C64   H18   S    
C82   O72   D    
O59   Zn12  S    
C88   O87   S    
C83   C132  S    
C36   O56   A    
C81   C130  S    
H47   O107  S    
O51   Zn16  S    
C33   O58   A    
C67   H24   S    
C61   H21   S    
C36   O41   A    
O40   Zn2   S    
H49   O111  S    
C49   C116  A    
C184  C197  A    
C4    C176  A    
C99   O108  D    
C97   O104  S    
C43   C79   A    
C62   H20   S    
C46   C152  T    
C41   O48   A    
H51   O115  S    
C25   O30   A    
H35   O82   S    
O26   Zn15  S    
C90   C112  S    
C27   O32   A    
C100  O111  S    
C149  C190  T    
H55   O9    S    
C94   C143  S    
C69   H22   S    
C14   C186  A    
C30   O35   A    
C2    C148  T    
C75   H16   S    
C66   C127  A    
C42   O49   A    
C139  C170  A    
C51   C56   A    
C85   O80   S    
C72   H10   S    
C49   H7    S    
C89   C139  S    
C64   C70   A    
C77   C116  A    
C42   C152  S    
C96   O101  D    
C118  C179  S    
C89   O88   D    
C136  C175  A    
O73   Zn3   S    
C37   O42   A    
O40   Zn6   S    
C10   C107  S    
C87   C137  S    
C139  C187  A    
C12   C109  S    
C48   C60   A    
C91   O90   D    
O41   Zn8   S    
O34   Zn16  S    
C15   C111  S    
C186  C195  A    
C23   O28   A    
C22   O23   A    
C57   C126  S    
O48   Zn15  S    
C9    C106  S    
C15   C187  A    
C128  C163  A    
O1    Zn1   S    
C25   O25   A    
C32   O57   A    
C38   O54   A    
O1    Zn12  S    
C94   O97   D    
C40   O52   A    
O42   Zn5   S    
C44   C54   A    
C26   O64   A    
C81   O71   S    
C88   C138  S    
C62   C72   A    
C5    C177  A    
C48   C115  A    
O57   Zn14  S    
C86   C136  S    
C106  O6    D    
C7    C104  S    
C4    C100  S    
C112  C156  T    
C26   O31   A    
C39   C147  S    
C28   O33   A    
C11   C108  S    
C44   C90   A    
C25   C169  S    
C74   C117  A    
C8    C14   A    
O33   Zn2   S    
C63   C71   A    
C82   O74   S    
H60   O18   S    
C34   C151  S    
C5    C198  A    
C30   O59   A    
C192  C193  A    
H32   O78   S    
C116  C157  S    
H50   O113  S    
C33   O38   A    
C1    C79   S    
C74   H17   S    
H43   O100  S    
C178  C192  A    
C88   O86   D    
C55   C122  A    
C60   H45   S    
C93   O96   S    
C84   O77   D    
C58   C125  A    
O22   Zn11  S    
C174  C192  A    
C38   O43   A    
C39   O50   A    
