data_mof_unit_65790.cif
_audit_creation_date              2012-12-10T19:38:06-0500
_audit_creation_method            fapswitch 2.2
_symmetry_space_group_name_H-M    P1
_symmetry_Int_Tables_number       1
_space_group_crystal_system       monoclinic
_cell_length_a                    27.243237
_cell_length_b                    27.183513
_cell_length_c                    18.342416
_cell_angle_alpha                 90.000014
_cell_angle_beta                  90.0
_cell_angle_gamma                 90.0
_cell_volume                      13583.78592

loop_
_atom_site_label
_atom_site_type_symbol
_atom_type_description
_atom_site_fract_x
_atom_site_fract_y
_atom_site_fract_z
_atom_type_partial_charge
C1    C     C_R   0.067100 0.432849 0.500003 0.882953
C2    C     C_R   0.000000 0.500000 0.843113 0.081121
C3    C     C_1   0.449020 0.840722 0.425050 0.170505
C4    C     C_1   0.658845 0.949121 0.424701 0.183435
C5    C     C_1   0.449020 0.159279 0.574949 0.170501
C6    C     C_1   0.341155 0.050879 0.424700 0.183435
C7    C     C_1   0.550980 0.840721 0.574947 0.170500
C8    C     C_R   0.500000 0.000000 0.156887 0.081122
C9    C     C_R   0.500000 0.000000 0.843113 0.081121
C10   C     C_R   0.999819 0.455703 0.196786 -0.251893
C11   C     C_R   0.999820 0.544296 0.803214 -0.251893
C12   C     C_R   0.000181 0.544296 0.196786 -0.251894
C13   C     C_R   0.000180 0.455703 0.803214 -0.251894
C14   C     C_R   0.500184 0.955703 0.196786 -0.251893
C15   C     C_R   0.500179 0.044297 0.803214 -0.251894
C16   C     C_R   0.499816 0.044297 0.196786 -0.251894
C17   C     C_R   0.932900 0.567151 0.500003 0.882953
C18   C     C_R   0.499821 0.955703 0.803214 -0.251894
C19   C     C_R   0.999815 0.456538 0.273499 0.038295
C20   C     C_R   0.999817 0.543462 0.726501 0.038294
C21   C     C_R   0.000185 0.543462 0.273499 0.038296
C22   C     C_R   0.000183 0.456538 0.726501 0.038295
C23   C     C_R   0.500187 0.956538 0.273499 0.038294
C24   C     C_R   0.500182 0.043462 0.726501 0.038295
C25   C     C_R   0.499813 0.043462 0.273499 0.038295
C26   C     C_R   0.499818 0.956538 0.726501 0.038295
C27   C     C_R   0.903329 0.350878 0.537702 -0.015217
C28   C     C_R   0.932900 0.432849 0.499997 0.882953
C29   C     C_R   0.148924 0.596622 0.462207 -0.022410
C30   C     C_R   0.096671 0.649122 0.537702 -0.015216
C31   C     C_R   0.851076 0.403377 0.462207 -0.022410
C32   C     C_R   0.096671 0.350878 0.462298 -0.015217
C33   C     C_R   0.851075 0.596622 0.537792 -0.022410
C34   C     C_R   0.903329 0.649122 0.462299 -0.015217
C35   C     C_R   0.148924 0.403377 0.537793 -0.022410
C36   C     C_R   0.351076 0.903377 0.537793 -0.022410
C37   C     C_R   0.596671 0.149122 0.462298 -0.015217
C38   C     C_R   0.648924 0.096622 0.537793 -0.022409
C39   C     C_R   0.067100 0.567151 0.499997 0.882952
C40   C     C_R   0.403329 0.850878 0.462298 -0.015216
C41   C     C_R   0.648925 0.903378 0.462208 -0.022410
C42   C     C_R   0.403329 0.149122 0.537702 -0.015216
C43   C     C_R   0.351075 0.096622 0.462207 -0.022410
C44   C     C_R   0.596671 0.850878 0.537701 -0.015217
C45   C     C_R   0.867083 0.314989 0.537450 -0.182118
C46   C     C_R   0.184840 0.632843 0.462492 -0.183777
C47   C     C_R   0.132917 0.685011 0.537451 -0.182117
C48   C     C_R   0.815160 0.367157 0.462492 -0.183777
C49   C     C_R   0.132917 0.314989 0.462549 -0.182116
C50   C     C_R   0.567100 0.932849 0.499997 0.882953
C51   C     C_R   0.815160 0.632842 0.537507 -0.183777
C52   C     C_R   0.867083 0.685011 0.462550 -0.182117
C53   C     C_R   0.184840 0.367157 0.537508 -0.183778
C54   C     C_R   0.315160 0.867157 0.537508 -0.183777
C55   C     C_R   0.632917 0.185011 0.462550 -0.182117
C56   C     C_R   0.684840 0.132843 0.537508 -0.183777
C57   C     C_R   0.367083 0.814989 0.462549 -0.182117
C58   C     C_R   0.684840 0.867158 0.462494 -0.183777
C59   C     C_R   0.367083 0.185011 0.537451 -0.182117
C60   C     C_R   0.315160 0.132843 0.462493 -0.183777
C61   C     C_R   0.432900 0.067151 0.499997 0.882953
C62   C     C_R   0.632917 0.814989 0.537450 -0.182117
C63   C     C_R   0.822946 0.322917 0.499992 0.045594
C64   C     C_R   0.177054 0.677083 0.499992 0.045593
C65   C     C_R   0.177054 0.322917 0.500008 0.045593
C66   C     C_R   0.822946 0.677083 0.500008 0.045593
C67   C     C_R   0.322946 0.822917 0.500008 0.045593
C68   C     C_R   0.677054 0.177083 0.500008 0.045593
C69   C     C_R   0.677055 0.822917 0.499992 0.045593
C70   C     C_R   0.322945 0.177083 0.499992 0.045593
C71   C     C_R   0.000000 0.500000 0.925196 0.310602
C72   C     C_R   0.432900 0.932849 0.500003 0.882953
C73   C     C_R   0.000000 0.500000 0.074804 0.310602
C74   C     C_R   0.500000 0.000000 0.925196 0.310602
C75   C     C_R   0.500000 0.000000 0.074804 0.310601
C76   C     C_R   0.895323 0.395259 0.499981 -0.109215
C77   C     C_R   0.104677 0.604740 0.499981 -0.109215
C78   C     C_R   0.104677 0.395259 0.500019 -0.109215
C79   C     C_R   0.895323 0.604740 0.500019 -0.109215
C80   C     C_R   0.395323 0.895259 0.500019 -0.109215
C81   C     C_R   0.604677 0.104740 0.500019 -0.109215
C82   C     C_R   0.604677 0.895259 0.499981 -0.109215
C83   C     C_R   0.567100 0.067151 0.500003 0.882952
C84   C     C_R   0.395323 0.104740 0.499981 -0.109216
C85   C     C_R   0.214951 0.714963 0.499999 0.311898
C86   C     C_R   0.785049 0.285037 0.499999 0.311898
C87   C     C_R   0.785049 0.714963 0.500001 0.311898
C88   C     C_R   0.214951 0.285037 0.500001 0.311897
C89   C     C_R   0.714951 0.214963 0.500001 0.311898
C90   C     C_R   0.285049 0.785037 0.500001 0.311898
C91   C     C_R   0.285049 0.214963 0.499999 0.311898
C92   C     C_R   0.714951 0.785037 0.499999 0.311898
C93   C     C_1   0.949020 0.340721 0.574949 0.170502
C94   C     C_R   0.000000 0.500000 0.156887 0.081121
C95   C     C_1   0.158844 0.550879 0.424699 0.183436
C96   C     C_1   0.050980 0.659279 0.574950 0.170502
C97   C     C_1   0.841155 0.449120 0.424699 0.183436
C98   C     C_1   0.050980 0.340721 0.425050 0.170503
C99   C     C_1   0.841155 0.550879 0.575299 0.183435
C100  C     C_1   0.949020 0.659279 0.425052 0.170502
C101  C     C_1   0.158844 0.449120 0.575301 0.183436
C102  C     C_1   0.341156 0.949120 0.575301 0.183436
C103  C     C_1   0.550980 0.159278 0.425050 0.170505
C104  C     C_1   0.658844 0.050879 0.575301 0.183437
H1    H     H_    0.999659 0.422285 0.303498 0.143305
H2    H     H_    0.999673 0.579451 0.830936 0.161972
H3    H     H_    0.000330 0.579451 0.169064 0.161971
H4    H     H_    0.000327 0.420549 0.830936 0.161972
H5    H     H_    0.500334 0.920549 0.169064 0.161972
H6    H     H_    0.500325 0.079451 0.830936 0.161972
H7    H     H_    0.499666 0.079451 0.169064 0.161972
H8    H     H_    0.499675 0.920549 0.830936 0.161971
H9    H     H_    0.873562 0.280781 0.566276 0.161106
H10   H     H_    0.218943 0.626274 0.433625 0.161034
H11   H     H_    0.126438 0.719219 0.566277 0.161106
H12   H     H_    0.999662 0.577714 0.696502 0.143305
H13   H     H_    0.781057 0.373726 0.433626 0.161034
H14   H     H_    0.126438 0.280781 0.433724 0.161106
H15   H     H_    0.781057 0.626274 0.566373 0.161034
H16   H     H_    0.873563 0.719219 0.433725 0.161106
H17   H     H_    0.218943 0.373726 0.566375 0.161034
H18   H     H_    0.281057 0.873726 0.566375 0.161034
H19   H     H_    0.626438 0.219219 0.433724 0.161106
H20   H     H_    0.718943 0.126274 0.566375 0.161034
H21   H     H_    0.373562 0.780781 0.433723 0.161106
H22   H     H_    0.718943 0.873726 0.433627 0.161034
H23   H     H_    0.000341 0.577714 0.303498 0.143304
H24   H     H_    0.373562 0.219219 0.566276 0.161106
H25   H     H_    0.281057 0.126274 0.433626 0.161034
H26   H     H_    0.626438 0.780781 0.566275 0.161106
H27   H     H_    0.000338 0.422285 0.696502 0.143305
H28   H     H_    0.500345 0.922285 0.303498 0.143305
H29   H     H_    0.500336 0.077715 0.696502 0.143305
H30   H     H_    0.499655 0.077714 0.303498 0.143305
H31   H     H_    0.499664 0.922285 0.696502 0.143304
H32   H     H_    0.999670 0.420549 0.169064 0.161972
N1    N     N_R   0.000000 0.500000 0.310560 -0.097730
N2    N     N_R   0.500002 0.957112 0.963551 -0.169128
N3    N     N_R   0.500004 0.957112 0.036449 -0.169128
N4    N     N_R   0.499998 0.042888 0.963551 -0.169129
N5    N     N_R   0.742400 0.292167 0.463508 -0.172123
N6    N     N_R   0.207946 0.757722 0.536494 -0.172290
N7    N     N_R   0.257599 0.707834 0.463505 -0.172123
N8    N     N_R   0.792056 0.242277 0.536491 -0.172290
N9    N     N_R   0.257598 0.292165 0.536498 -0.172123
N10   N     N_R   0.792057 0.757725 0.463514 -0.172290
N11   N     N_R   0.742398 0.707832 0.536487 -0.172123
N12   N     N_R   0.000000 0.500000 0.689440 -0.097729
N13   N     N_R   0.207946 0.242279 0.463504 -0.172290
N14   N     N_R   0.292054 0.742278 0.463506 -0.172290
N15   N     N_R   0.757600 0.207833 0.536492 -0.172123
N16   N     N_R   0.707945 0.257723 0.463509 -0.172290
N17   N     N_R   0.242401 0.792165 0.536495 -0.172123
N18   N     N_R   0.707943 0.742276 0.536486 -0.172290
N19   N     N_R   0.242402 0.207835 0.463502 -0.172123
N20   N     N_R   0.292053 0.257721 0.536497 -0.172290
N21   N     N_R   0.757602 0.792169 0.463513 -0.172123
N22   N     N_1   0.985622 0.332604 0.604630 -0.205009
N23   N     N_R   0.500000 0.000000 0.310560 -0.097729
N24   N     N_1   0.166727 0.514238 0.394777 -0.184375
N25   N     N_1   0.014378 0.667396 0.604631 -0.205009
N26   N     N_1   0.833272 0.485762 0.394778 -0.184375
N27   N     N_1   0.014378 0.332604 0.395369 -0.205010
N28   N     N_1   0.833272 0.514237 0.605220 -0.184375
N29   N     N_1   0.985622 0.667397 0.395371 -0.205009
N30   N     N_1   0.166727 0.485762 0.605222 -0.184375
N31   N     N_1   0.333273 0.985762 0.605223 -0.184375
N32   N     N_1   0.514378 0.167396 0.395369 -0.205010
N33   N     N_1   0.666727 0.014237 0.605222 -0.184375
N34   N     N_R   0.500000 0.000000 0.689440 -0.097729
N35   N     N_1   0.485622 0.832604 0.395368 -0.205010
N36   N     N_1   0.666728 0.985763 0.394780 -0.184375
N37   N     N_1   0.485622 0.167396 0.604630 -0.205009
N38   N     N_1   0.333273 0.014237 0.394778 -0.184375
N39   N     N_1   0.514377 0.832603 0.604628 -0.205009
N40   N     N_R   0.000002 0.542887 0.036449 -0.169129
N41   N     N_R   0.000000 0.457112 0.963551 -0.169128
N42   N     N_R   0.999998 0.457112 0.036449 -0.169128
N43   N     N_R   1.000000 0.542887 0.963551 -0.169129
N44   N     N_R   0.499996 0.042888 0.036449 -0.169129
O1    O     O_R   0.050940 0.449070 0.560830 -0.615966
O2    O     O_R   0.449060 0.050930 0.439170 -0.615968
O3    O     O_R   0.449060 0.050930 0.560830 -0.614505
O4    O     O_R   0.550940 0.949070 0.439170 -0.615968
O5    O     O_R   0.449060 0.949070 0.439170 -0.614502
O6    O     O_R   0.550940 0.050930 0.560830 -0.615966
O7    O     O_R   0.550940 0.050930 0.439170 -0.614502
O8    O     O_R   0.449060 0.949070 0.560830 -0.615966
O9    O     O_R   0.949060 0.550930 0.439170 -0.614503
O10   O     O_R   0.949060 0.550930 0.560830 -0.615966
O11   O     O_R   0.050940 0.449070 0.439170 -0.614503
O12   O     O_R   0.949060 0.449070 0.439170 -0.615967
O13   O     O_R   0.050940 0.550930 0.560830 -0.614504
O14   O     O_R   0.050940 0.550930 0.439170 -0.615967
O15   O     O_R   0.949060 0.449070 0.560830 -0.614504
O16   O     O_R   0.550940 0.949070 0.560830 -0.614505
Zn1   Zn    Zn3+2 1.000000 0.500000 0.581210 0.981870
Zn2   Zn    Zn3+2 1.000000 0.500000 0.418790 0.981870
Zn3   Zn    Zn3+2 0.500000 0.000000 0.581210 0.981870
Zn4   Zn    Zn3+2 0.500000 0.000000 0.418790 0.981870

loop_
_geom_bond_atom_site_label_1
_geom_bond_atom_site_label_2
_ccdc_geom_bond_type
O9    Zn2   S    
C24   H29   S    
C14   H5    S    
C5    C42   S    
C102  N31   T    
C1    C78   S    
C87   N10   A    
C22   H27   S    
C35   C53   A    
C88   N13   A    
C62   H26   S    
C70   C91   S    
C18   C26   A    
O11   Zn2   S    
C21   N1    A    
C90   N14   A    
O1    Zn1   S    
C85   N7    A    
C98   N27   T    
C86   N8    A    
N10   N21   A    
C47   H11   S    
C74   N2    A    
C61   O2    A    
C49   C65   A    
C56   H20   S    
C18   H8    S    
C41   C58   A    
N8    N15   A    
C44   C82   A    
O16   Zn3   S    
C57   H21   S    
N12   Zn1   S    
C4    C41   S    
C10   C94   A    
C17   C79   S    
C28   O15   A    
C97   N26   T    
C96   N25   T    
C36   C102  S    
C71   N43   A    
C2    C13   A    
N11   N18   A    
C72   O8    A    
C30   C96   S    
C26   H31   S    
C89   N16   A    
N9    N20   A    
C50   O16   A    
N40   N43   A    
O4    Zn4   S    
C23   N23   A    
C25   N23   A    
C51   H15   S    
C88   N9    A    
C20   N12   A    
C83   O6    A    
O12   Zn2   S    
C21   H23   S    
C69   C92   S    
C53   C65   A    
C23   H28   S    
C27   C45   A    
C54   H18   S    
C103  N32   T    
C8    C16   A    
C43   C84   A    
C30   C77   A    
C15   H6    S    
C37   C81   A    
C101  N30   T    
C73   C94   S    
C57   C67   A    
C13   H4    S    
C2    C11   A    
C28   O12   A    
N34   Zn3   S    
C81   C83   S    
C55   C68   A    
N7    N14   A    
C38   C104  S    
C32   C49   A    
C39   O14   A    
C55   H19   S    
C11   C20   A    
C61   O3    A    
C46   H10   S    
C95   N24   T    
C30   C47   A    
C42   C84   A    
C1    O11   A    
C36   C80   A    
C66   C87   S    
C20   H12   S    
C1    O1    A    
C33   C79   A    
C48   C63   A    
C54   C67   A    
C6    N38   T    
O8    Zn3   S    
C44   C62   A    
C59   H24   S    
C56   C68   A    
C74   N4    A    
C12   C21   A    
C45   C63   A    
C67   C90   S    
O3    Zn3   S    
C62   C69   A    
C46   C64   A    
C100  N29   T    
C33   C99   S    
C51   C66   A    
C14   C23   A    
C60   H25   S    
C91   N19   A    
C75   N44   A    
C34   C79   A    
C39   O13   A    
C34   C100  S    
C49   H14   S    
C60   C70   A    
C10   C19   A    
C19   N1    A    
C11   H2    S    
C40   C80   A    
C68   C89   S    
O2    Zn4   S    
C7    C44   S    
C90   N17   A    
C25   H30   S    
C26   N34   A    
N5    N16   A    
C87   N11   A    
C43   C60   A    
C73   N42   A    
C52   H16   S    
N23   Zn4   S    
C83   O7    A    
C22   N12   A    
C3    C40   S    
C58   H22   S    
C6    C43   S    
C63   C86   S    
O6    Zn3   S    
C27   C93   S    
C9    C74   S    
C2    C71   S    
C28   C76   S    
C39   C77   S    
C64   C85   S    
C47   C64   A    
C24   N34   A    
C50   C82   S    
C65   C88   S    
C29   C95   S    
C86   N5    A    
C16   C25   A    
C15   C24   A    
C8    C14   A    
C40   C57   A    
C4    N36   T    
C9    C15   A    
C5    N37   T    
C50   O4    A    
C10   H32   S    
C35   C101  S    
C19   H1    S    
C42   C59   A    
C12   H3    S    
C37   C103  S    
C61   C84   S    
C58   C69   A    
C48   H13   S    
O5    Zn4   S    
C17   O10   A    
C33   C51   A    
C38   C56   A    
O7    Zn4   S    
C35   C78   A    
C34   C52   A    
C29   C46   A    
C31   C48   A    
C17   O9    A    
C71   N41   A    
C73   N40   A    
C7    N39   T    
C91   N20   A    
C38   C81   A    
C75   N3    A    
C12   C94   A    
C3    N35   T    
C31   C76   A    
O14   Zn2   S    
O13   Zn1   S    
C41   C82   A    
N4    N44   A    
C32   C98   S    
C13   C22   A    
C85   N6    A    
C31   C97   S    
N6    N17   A    
N13   N19   A    
C93   N22   T    
C72   O5    A    
C36   C54   A    
N2    N3    A    
C8    C75   S    
C59   C70   A    
C32   C78   A    
C99   N28   T    
C37   C55   A    
C45   H9    S    
C9    C18   A    
C89   N15   A    
C52   C66   A    
C29   C77   A    
N1    Zn2   S    
O10   Zn1   S    
C72   C80   S    
N41   N42   A    
C92   N18   A    
C92   N21   A    
C53   H17   S    
C27   C76   A    
C16   H7    S    
C104  N33   T    
O15   Zn1   S    
