data_mof_unit_11031.cif
_audit_creation_date              2012-12-11T14:44:29-0500
_audit_creation_method            fapswitch 2.2
_symmetry_space_group_name_H-M    P1
_symmetry_Int_Tables_number       1
_space_group_crystal_system       triclinic
_cell_length_a                    24.92737
_cell_length_b                    16.714395
_cell_length_c                    15.67007
_cell_angle_alpha                 89.99759
_cell_angle_beta                  49.325095
_cell_angle_gamma                 89.998064
_cell_volume                      4951.62519128

loop_
_atom_site_label
_atom_site_type_symbol
_atom_type_description
_atom_site_fract_x
_atom_site_fract_y
_atom_site_fract_z
_atom_type_partial_charge
C1    C     C_R   0.350582 0.145935 0.759076 -0.118530
C2    C     C_R   0.666469 0.885575 0.199117 -0.141664
C3    C     C_R   0.649409 0.145944 0.240946 -0.118827
C4    C     C_R   0.333523 0.885599 0.800901 -0.142614
C5    C     C_R   0.850582 0.645935 0.759076 -0.118530
C6    C     C_R   0.166469 0.385575 0.199117 -0.141664
C7    C     C_R   0.149409 0.645944 0.240946 -0.118826
C8    C     C_R   0.833523 0.385599 0.800901 -0.142614
C9    C     C_3   0.250227 0.212968 0.392525 -0.204439
C10   C     C_3   0.696534 0.702600 0.608567 -0.212102
C11   C     C_3   0.749560 0.213382 0.607496 -0.208477
C12   C     C_3   0.303879 0.701611 0.391227 -0.213777
C13   C     C_3   0.750229 0.712971 0.392524 -0.204440
C14   C     C_3   0.196536 0.202605 0.608567 -0.212101
C15   C     C_3   0.249558 0.713384 0.607497 -0.208475
C16   C     C_3   0.803878 0.201614 0.391228 -0.213778
C17   C     C_2   0.646757 0.262375 0.141918 -0.247556
C18   C     C_2   0.301806 0.840608 0.982355 -0.278276
C19   C     C_2   0.353230 0.262359 0.858102 -0.248906
C20   C     C_2   0.698175 0.840552 0.017690 -0.278280
C21   C     C_2   0.146757 0.762375 0.141918 -0.247555
C22   C     C_2   0.801806 0.340608 0.982355 -0.278276
C23   C     C_2   0.853230 0.762359 0.858102 -0.248907
C24   C     C_2   0.198175 0.340552 0.017690 -0.278280
C25   C     C_2   0.682554 0.315417 0.153152 0.071345
C26   C     C_2   0.234383 0.867358 0.057508 0.042052
C27   C     C_2   0.317427 0.315397 0.846872 0.070583
C28   C     C_2   0.765588 0.867327 0.942520 0.043011
C29   C     C_2   0.182554 0.815417 0.153152 0.071345
C30   C     C_2   0.734383 0.367358 0.057508 0.042051
C31   C     C_2   0.817427 0.815398 0.846872 0.070583
C32   C     C_2   0.265588 0.367327 0.942520 0.043010
C33   C     C_R   0.614207 0.109984 0.591715 -0.162892
C34   C     C_R   0.414022 0.850119 0.407331 -0.143065
C35   C     C_R   0.385848 0.110109 0.408260 -0.161100
C36   C     C_R   0.585955 0.850084 0.592654 -0.134928
C37   C     C_R   0.114208 0.609983 0.591715 -0.162892
C38   C     C_R   0.914022 0.350119 0.407331 -0.143064
C39   C     C_R   0.885848 0.610109 0.408260 -0.161101
C40   C     C_R   0.085955 0.350083 0.592654 -0.134927
C41   C     C_R   0.689167 0.110283 0.404535 -0.138005
C42   C     C_R   0.337235 0.851982 0.594606 -0.113662
C43   C     C_R   0.310889 0.110462 0.595449 -0.140906
C44   C     C_R   0.662758 0.851980 0.405389 -0.122684
C45   C     C_R   0.189167 0.610282 0.404535 -0.138006
C46   C     C_R   0.837235 0.351982 0.594606 -0.113662
C47   C     C_R   0.810889 0.610461 0.595449 -0.140906
C48   C     C_R   0.162757 0.351980 0.405389 -0.122684
C49   C     C_R   0.560645 0.143231 0.238811 -0.155885
C50   C     C_R   0.421400 0.889831 0.803362 -0.149875
C51   C     C_R   0.439356 0.143227 0.761188 -0.156452
C52   C     C_R   0.578588 0.889800 0.196664 -0.155048
C53   C     C_R   0.060645 0.643231 0.238811 -0.155885
C54   C     C_R   0.921400 0.389831 0.803362 -0.149876
C55   C     C_R   0.939356 0.643227 0.761188 -0.156453
C56   C     C_R   0.078588 0.389800 0.196664 -0.155048
C57   C     C_R   0.381738 0.188161 0.792431 0.156850
C58   C     C_R   0.648573 0.867423 0.134956 0.148055
C59   C     C_R   0.618255 0.188171 0.207584 0.156494
C60   C     C_R   0.351410 0.867470 0.865081 0.149457
C61   C     C_R   0.881738 0.688161 0.792431 0.156850
C62   C     C_R   0.148573 0.367423 0.134956 0.148056
C63   C     C_R   0.118255 0.688171 0.207585 0.156493
C64   C     C_R   0.851410 0.367470 0.865081 0.149457
C65   C     C_R   0.680953 0.130225 0.497084 0.050135
C66   C     C_R   0.363092 0.806229 0.501817 0.034622
C67   C     C_R   0.319155 0.130521 0.502872 0.050296
C68   C     C_R   0.636885 0.806198 0.498164 0.039253
C69   C     C_R   0.180954 0.630224 0.497084 0.050135
C70   C     C_R   0.863092 0.306229 0.501817 0.034621
C71   C     C_R   0.819155 0.630519 0.502872 0.050295
C72   C     C_R   0.136885 0.306198 0.498164 0.039253
C73   C     C_3   0.284415 0.244536 0.438942 0.091210
C74   C     C_3   0.661797 0.671311 0.562478 0.087624
C75   C     C_3   0.715874 0.244602 0.560118 0.091550
C76   C     C_3   0.338176 0.670754 0.438245 0.091556
C77   C     C_3   0.784414 0.744537 0.438947 0.091212
C78   C     C_3   0.161796 0.171314 0.562483 0.087624
C79   C     C_3   0.215874 0.744602 0.560114 0.091551
C80   C     C_3   0.838177 0.170756 0.438241 0.091556
C81   C     C_3   0.715727 0.781225 0.542066 -0.180056
C82   C     C_3   0.231668 0.133329 0.458733 -0.218890
C83   C     C_3   0.284855 0.780688 0.456852 -0.178791
C84   C     C_3   0.768009 0.133362 0.542073 -0.189783
C85   C     C_3   0.215730 0.281228 0.542060 -0.180053
C86   C     C_3   0.731670 0.633330 0.458727 -0.218892
C87   C     C_3   0.784853 0.280690 0.456857 -0.178790
C88   C     C_3   0.268008 0.633363 0.542078 -0.189785
C89   C     C_3   0.679992 0.748584 0.497528 0.144622
C90   C     C_3   0.266788 0.167056 0.503560 0.130534
C91   C     C_3   0.320087 0.748440 0.502445 0.122953
C92   C     C_3   0.733347 0.166729 0.496350 0.128085
C93   C     C_3   0.179992 0.248584 0.497529 0.144620
C94   C     C_3   0.766788 0.667054 0.503560 0.130534
C95   C     C_3   0.820087 0.248440 0.502445 0.122953
C96   C     C_3   0.233347 0.666728 0.496350 0.128085
H1    H     H_    0.302775 0.160536 0.774361 0.099041
H2    H     H_    0.719088 0.885481 0.171257 0.087848
H3    H     H_    0.697206 0.160552 0.225690 0.099117
H4    H     H_    0.280906 0.885509 0.828753 0.087677
H5    H     H_    0.802775 0.660537 0.774361 0.099041
H6    H     H_    0.219088 0.385481 0.171257 0.087848
H7    H     H_    0.197206 0.660551 0.225691 0.099117
H8    H     H_    0.780906 0.385509 0.828753 0.087677
H9    H     H_    0.593667 0.108629 0.677417 0.092194
H10   H     H_    0.441383 0.834675 0.320713 0.097343
H11   H     H_    0.406373 0.108718 0.322568 0.092296
H12   H     H_    0.558585 0.834591 0.679265 0.104148
H13   H     H_    0.093667 0.608628 0.677417 0.092194
H14   H     H_    0.941384 0.334675 0.320713 0.097343
H15   H     H_    0.906373 0.608717 0.322568 0.092296
H16   H     H_    0.058584 0.334591 0.679265 0.104149
H17   H     H_    0.737634 0.109566 0.317651 0.086979
H18   H     H_    0.293459 0.837989 0.681521 0.091028
H19   H     H_    0.262408 0.109779 0.682321 0.085852
H20   H     H_    0.706569 0.838017 0.318479 0.092530
H21   H     H_    0.237634 0.609565 0.317651 0.086979
H22   H     H_    0.793460 0.337989 0.681521 0.091028
H23   H     H_    0.762408 0.609778 0.682321 0.085852
H24   H     H_    0.206569 0.338016 0.318479 0.092531
H25   H     H_    0.525379 0.158343 0.223576 0.097592
H26   H     H_    0.448950 0.893574 0.835153 0.092550
H27   H     H_    0.474630 0.158338 0.776405 0.097615
H28   H     H_    0.551035 0.893531 0.164874 0.093142
H29   H     H_    0.025379 0.658344 0.223576 0.097592
H30   H     H_    0.948950 0.393574 0.835153 0.092550
H31   H     H_    0.974631 0.658338 0.776405 0.097615
H32   H     H_    0.051035 0.393531 0.164874 0.093142
H33   H     H_    0.710350 0.842650 0.573967 0.119189
H34   H     H_    0.238175 0.071539 0.427243 0.119064
H35   H     H_    0.290566 0.841891 0.424121 0.119145
H36   H     H_    0.761112 0.071788 0.574428 0.117636
H37   H     H_    0.210355 0.342654 0.573956 0.119190
H38   H     H_    0.738180 0.571541 0.427232 0.119064
H39   H     H_    0.790563 0.341894 0.424129 0.119146
H40   H     H_    0.261108 0.571789 0.574436 0.117635
H41   H     H_    0.272229 0.218186 0.304280 0.112829
H42   H     H_    0.674435 0.697312 0.696859 0.112039
H43   H     H_    0.727236 0.219063 0.695870 0.113244
H44   H     H_    0.326266 0.695829 0.302828 0.112563
H45   H     H_    0.772233 0.718193 0.304279 0.112829
H46   H     H_    0.174439 0.197320 0.696858 0.112039
H47   H     H_    0.227234 0.719068 0.695872 0.113242
H48   H     H_    0.826263 0.195836 0.302829 0.112564
H49   H     H_    0.318072 0.789212 0.003216 0.131264
H50   H     H_    0.647311 0.267808 0.072215 0.121384
H51   H     H_    0.681918 0.789138 0.996847 0.130032
H52   H     H_    0.352675 0.267788 0.927807 0.121445
H53   H     H_    0.818072 0.289213 0.003216 0.131264
H54   H     H_    0.147311 0.767808 0.072215 0.121384
H55   H     H_    0.181918 0.289138 0.996847 0.130032
H56   H     H_    0.852675 0.767789 0.927807 0.121445
N1    N     N_R   0.389620 0.081040 0.705440 -0.049269
N2    N     N_R   0.610380 0.918960 0.294560 -0.042443
N3    N     N_R   0.610380 0.081040 0.294560 -0.049254
N4    N     N_R   0.389620 0.918960 0.705440 -0.042850
N5    N     N_R   0.889620 0.581040 0.705440 -0.049269
N6    N     N_R   0.110380 0.418960 0.294560 -0.042443
N7    N     N_R   0.110380 0.581040 0.294560 -0.049254
N8    N     N_R   0.889620 0.418960 0.705440 -0.042850
N9    N     N_R   0.582320 0.079840 0.556630 -0.032901
N10   N     N_R   0.417680 0.920160 0.443370 -0.037860
N11   N     N_R   0.417680 0.079840 0.443370 -0.033007
N12   N     N_R   0.582320 0.920160 0.556630 -0.040259
N13   N     N_R   0.082320 0.579840 0.556630 -0.032901
N14   N     N_R   0.917680 0.420160 0.443370 -0.037860
N15   N     N_R   0.917680 0.579840 0.443370 -0.033007
N16   N     N_R   0.082320 0.420160 0.556630 -0.040260
N17   N     N_R   0.627920 0.078930 0.443400 -0.036113
N18   N     N_R   0.372080 0.921070 0.556600 -0.040604
N19   N     N_R   0.372080 0.078930 0.556600 -0.035767
N20   N     N_R   0.627920 0.921070 0.443400 -0.039882
N21   N     N_R   0.127920 0.578930 0.443400 -0.036113
N22   N     N_R   0.872080 0.421070 0.556600 -0.040604
N23   N     N_R   0.872080 0.578930 0.556600 -0.035767
N24   N     N_R   0.127920 0.421070 0.443400 -0.039882
N25   N     N_R   0.555090 0.077730 0.294590 -0.040843
N26   N     N_R   0.444910 0.922270 0.705410 -0.038917
N27   N     N_R   0.444910 0.077730 0.705410 -0.040937
N28   N     N_R   0.555090 0.922270 0.294590 -0.038134
N29   N     N_R   0.055090 0.577730 0.294590 -0.040843
N30   N     N_R   0.944910 0.422270 0.705410 -0.038917
N31   N     N_R   0.944910 0.577730 0.705410 -0.040937
N32   N     N_R   0.055090 0.422270 0.294590 -0.038134
Ni1   Ni    Ni4+2 0.382970 0.000000 0.629840 0.204684
Ni2   Ni    Ni4+2 0.617030 0.000000 0.370160 0.205643
Ni3   Ni    Ni4+2 0.882970 0.500000 0.629840 0.204683
Ni4   Ni    Ni4+2 0.117030 0.500000 0.370160 0.205643
Ni5   Ni    Ni4+2 0.514540 0.000000 0.629840 0.205472
Ni6   Ni    Ni4+2 0.485460 0.000000 0.370160 0.205690
Ni7   Ni    Ni4+2 0.014540 0.500000 0.629840 0.205472
Ni8   Ni    Ni4+2 0.985460 0.500000 0.370160 0.205690
N33   N     N_3   0.351797 0.286896 0.371571 -0.218859
H57   H     H_    0.366719 0.292622 0.420028 0.110420
H58   H     H_    0.389625 0.251125 0.302292 0.090773
N34   N     N_3   0.592762 0.632998 0.630175 -0.221442
H59   H     H_    0.583711 0.617193 0.575969 0.101724
H60   H     H_    0.596306 0.579688 0.661072 0.099909
N35   N     N_3   0.648686 0.287315 0.626542 -0.221069
H61   H     H_    0.634143 0.292851 0.577548 0.108614
H62   H     H_    0.610544 0.251865 0.696005 0.090688
N36   N     N_3   0.406584 0.631030 0.371796 -0.217607
H63   H     H_    0.417854 0.621358 0.424579 0.102552
H64   H     H_    0.444467 0.671251 0.309761 0.094244
N37   N     N_3   0.851795 0.786899 0.371583 -0.218859
H65   H     H_    0.866714 0.792623 0.420043 0.110420
H66   H     H_    0.889624 0.751130 0.302302 0.090775
N38   N     N_3   0.092760 0.133002 0.630187 -0.221442
H67   H     H_    0.083707 0.117194 0.575984 0.101724
H68   H     H_    0.096304 0.079694 0.661086 0.099909
N39   N     N_3   0.148688 0.787318 0.626535 -0.221069
H69   H     H_    0.134146 0.792852 0.577538 0.108614
H70   H     H_    0.110544 0.751868 0.695999 0.090689
N40   N     N_3   0.906585 0.131034 0.371789 -0.217607
H71   H     H_    0.917857 0.121360 0.424569 0.102552
H72   H     H_    0.944466 0.171256 0.309755 0.094243
N41   N     N_3   0.209950 0.939934 0.043170 -0.211167
H73   H     H_    0.185464 0.925107 0.010916 0.090291
H74   H     H_    0.252016 0.978888 0.987411 0.120010
N42   N     N_3   0.677402 0.315195 0.249915 -0.203813
H75   H     H_    0.727779 0.304504 0.222739 0.088006
H76   H     H_    0.662282 0.372609 0.284703 0.108968
N43   N     N_3   0.790004 0.939924 0.956838 -0.211191
H77   H     H_    0.814500 0.925125 0.989087 0.090024
H78   H     H_    0.747929 0.978868 0.012594 0.120486
N44   N     N_3   0.322582 0.315181 0.750107 -0.203589
H79   H     H_    0.272206 0.304483 0.777279 0.088251
H80   H     H_    0.337693 0.372599 0.715327 0.109726
N45   N     N_3   0.709950 0.439934 0.043170 -0.211167
H81   H     H_    0.685464 0.425107 0.010916 0.090291
H82   H     H_    0.752016 0.478888 0.987411 0.120010
N46   N     N_3   0.177402 0.815195 0.249915 -0.203814
H83   H     H_    0.227779 0.804504 0.222739 0.088006
H84   H     H_    0.162282 0.872609 0.284703 0.108968
N47   N     N_3   0.290004 0.439924 0.956838 -0.211191
H85   H     H_    0.314500 0.425125 0.989087 0.090024
H86   H     H_    0.247928 0.478868 0.012594 0.120486
N48   N     N_3   0.822581 0.815181 0.750107 -0.203589
H87   H     H_    0.772206 0.804483 0.777279 0.088251
H88   H     H_    0.837693 0.872599 0.715327 0.109726

loop_
_geom_bond_atom_site_label_1
_geom_bond_atom_site_label_2
_ccdc_geom_bond_type
C65   C92   S    
C23   H56   S    
C88   C96   S    
N21   Ni4   S    
C21   C29   D    
N34   H60   S    
N2    N28   A    
C36   H12   S    
C53   C63   A    
C51   H27   S    
N43   H77   S    
C50   H26   S    
C80   C84   S    
C69   C96   S    
C34   C66   A    
N42   H76   S    
C33   C65   A    
C40   H16   S    
C71   C94   S    
N4    Ni1   S    
C19   C57   S    
C19   H52   S    
C79   N39   S    
N15   Ni8   S    
C54   H30   S    
N16   Ni7   S    
N36   H64   S    
N43   H78   S    
C74   C89   S    
N15   N23   A    
C16   H48   S    
C86   C94   S    
N17   Ni2   S    
C73   N33   S    
N29   Ni8   S    
C76   N36   S    
C7    N7    A    
C10   C94   S    
C78   C93   S    
N13   N21   A    
C55   C61   A    
C77   C94   S    
C46   H22   S    
C10   C74   S    
C46   N22   A    
C44   N20   A    
C11   H43   S    
C14   C90   S    
C56   H32   S    
C42   N18   A    
C43   H19   S    
C85   C93   S    
C6    H6    S    
C42   H18   S    
C15   C79   S    
N20   Ni2   S    
N38   H67   S    
N33   H58   S    
C87   C95   S    
C13   C86   S    
C16   C87   S    
N47   H85   S    
C54   N30   A    
C51   C57   A    
C2    C58   A    
C35   C67   A    
C17   C25   D    
C38   H14   S    
C19   C27   D    
C76   C88   S    
C37   H13   S    
N44   H79   S    
C9    C82   S    
C53   H29   S    
C81   C89   S    
C44   H20   S    
C18   H49   S    
C47   H23   S    
C22   H53   S    
N35   H61   S    
C2    N2    A    
C7    H7    S    
C26   N41   S    
N47   H86   S    
N4    N26   A    
C48   C72   A    
C51   N27   A    
N8    N30   A    
N42   H75   S    
C6    N6    A    
C86   H38   S    
N24   Ni4   S    
C49   N25   A    
N9    N17   A    
N37   H66   S    
C38   N14   A    
N48   H88   S    
N14   N22   A    
C40   N16   A    
N36   H63   S    
N19   Ni1   S    
C45   C69   A    
C34   H10   S    
C35   H11   S    
C87   H39   S    
C33   H9    S    
C88   H40   S    
N9    Ni5   S    
C1    H1    S    
N26   Ni5   S    
C43   N19   A    
N40   H71   S    
C41   C65   A    
C20   C28   D    
N41   H73   S    
N37   H65   S    
C22   C64   S    
C82   C90   S    
C84   H36   S    
C67   C90   S    
C35   N11   A    
C12   C83   S    
N31   Ni7   S    
C16   C80   S    
C23   C31   D    
N7    Ni4   S    
C33   N9    A    
C24   C32   D    
C43   C67   A    
C83   H35   S    
N45   H81   S    
C24   H55   S    
C77   N37   S    
N22   Ni3   S    
N2    Ni2   S    
C37   C69   A    
C78   C82   S    
C81   H33   S    
N39   H69   S    
N10   N18   A    
C77   C81   S    
C49   H25   S    
C18   C26   D    
C4    C60   A    
C12   H44   S    
C68   C89   S    
C20   H51   S    
C5    C61   A    
C1    C57   A    
C27   N44   S    
C21   H54   S    
C74   C86   S    
C80   C95   S    
C1    N1    A    
C8    H8    S    
C7    C63   A    
C55   N31   A    
N1    N27   A    
C52   C58   A    
C75   C92   S    
C8    C64   A    
C15   H47   S    
C72   C93   S    
C75   C87   S    
C38   C70   A    
N39   H70   S    
C31   N48   S    
C55   H31   S    
C16   C92   S    
C5    N5    A    
C4    H4    S    
C13   C77   S    
C14   H46   S    
C56   C62   A    
C44   C68   A    
C82   H34   S    
C3    N3    A    
C47   C71   A    
C17   H50   S    
C20   C58   S    
N12   Ni5   S    
C8    N8    A    
C9    C93   S    
N35   H62   S    
N10   Ni6   S    
C46   C70   A    
N11   N19   A    
C30   N45   S    
C42   C66   A    
C73   C85   S    
C18   C60   S    
C25   C30   S    
N16   N24   A    
C47   N23   A    
N48   H87   S    
C24   C62   S    
N25   Ni6   S    
C40   C72   A    
C4    N4    A    
C27   C32   S    
C13   H45   S    
C9    C73   S    
C28   C31   S    
N5    Ni3   S    
C29   N46   S    
C41   H17   S    
N34   H59   S    
C34   N10   A    
N3    Ni2   S    
N6    Ni4   S    
C73   C90   S    
C37   N13   A    
C36   C68   A    
C74   N34   S    
C66   C91   S    
C75   N35   S    
C11   C84   S    
C13   C89   S    
C84   C92   S    
C10   C81   S    
N44   H80   S    
N27   Ni5   S    
C49   C59   A    
C5    H5    S    
C50   C60   A    
C6    C62   A    
N23   Ni3   S    
C12   C76   S    
C52   N28   A    
C17   C59   S    
C9    H41   S    
C79   C96   S    
N45   H82   S    
C11   C75   S    
C79   C83   S    
C52   H28   S    
C80   N40   S    
N32   Ni8   S    
C48   H24   S    
N1    Ni1   S    
C28   N43   S    
C83   C91   S    
N18   Ni1   S    
C39   H15   S    
N46   H83   S    
N13   Ni7   S    
C14   C85   S    
C54   C64   A    
C70   C95   S    
N11   Ni6   S    
N40   H72   S    
C14   C78   S    
C56   N32   A    
C39   N15   A    
N41   H74   S    
C22   C30   D    
C53   N29   A    
C78   N38   S    
C45   H21   S    
C21   C63   S    
N14   Ni8   S    
N12   N20   A    
C50   N26   A    
C76   C91   S    
C15   C91   S    
N7    N29   A    
C3    H3    S    
C45   N21   A    
C23   C61   S    
C11   C95   S    
C2    H2    S    
C26   C29   S    
N38   H68   S    
N33   H57   S    
N30   Ni7   S    
C85   H37   S    
C36   N12   A    
C39   C71   A    
C12   C96   S    
C25   N42   S    
N28   Ni6   S    
C10   H42   S    
N8    Ni3   S    
C41   N17   A    
N6    N32   A    
N46   H84   S    
N3    N25   A    
N5    N31   A    
C15   C88   S    
C48   N24   A    
C32   N47   S    
C3    C59   A    
