data_mof_unit_33707.cif
_audit_creation_date              2012-12-10T22:11:08-0500
_audit_creation_method            fapswitch 2.2
_symmetry_space_group_name_H-M    P1
_symmetry_Int_Tables_number       1
_space_group_crystal_system       triclinic
_cell_length_a                    12.15198
_cell_length_b                    12.329927
_cell_length_c                    23.093437
_cell_angle_alpha                 91.992445
_cell_angle_beta                  90.732109
_cell_angle_gamma                 90.674478
_cell_volume                      3457.52695475

loop_
_atom_site_label
_atom_site_type_symbol
_atom_type_description
_atom_site_fract_x
_atom_site_fract_y
_atom_site_fract_z
_atom_type_partial_charge
C1    C     C_R   0.656379 0.999144 0.579698 0.911700
C2    C     C_R   0.343637 0.000859 0.420296 0.911730
C3    C     C_R   0.897917 0.765669 0.152835 -0.174325
C4    C     C_R   0.102149 0.234220 0.847228 -0.174300
C5    C     C_R   0.084874 0.896669 0.170168 -0.193728
C6    C     C_R   0.915067 0.103464 0.829753 -0.193611
C7    C     C_R   0.084541 0.814816 0.127959 -0.166743
C8    C     C_R   0.915394 0.185321 0.871958 -0.166759
C9    C     C_R   0.907258 0.119381 0.166313 0.484670
C10   C     C_R   0.092792 0.880558 0.833657 0.484651
C11   C     C_R   0.907983 0.201492 0.126626 -0.252615
C12   C     C_R   0.092063 0.798439 0.873338 -0.252600
C13   C     C_R   0.151044 0.916886 0.298057 -0.248137
C14   C     C_R   0.849166 0.083188 0.701846 -0.248325
C15   C     C_R   0.234944 0.911179 0.338815 0.424750
C16   C     C_R   0.765308 0.088930 0.661069 0.424787
C17   C     C_R   0.818137 0.102160 0.298271 0.527184
C18   C     C_R   0.181780 0.897778 0.701686 0.526915
C19   C     C_R   0.739596 0.092062 0.340717 -0.256898
C20   C     C_R   0.260321 0.907876 0.659240 -0.256978
C21   C     C_3   0.993498 0.014552 0.247253 -0.015707
C22   C     C_3   0.006508 0.985447 0.752752 -0.015694
C23   C     C_R   0.654567 0.000852 0.420856 0.919628
C24   C     C_R   0.345434 0.999147 0.579145 0.919522
C25   C     C_R   0.090402 0.013016 0.290983 -0.020381
C26   C     C_R   0.909613 0.986979 0.709017 -0.020371
C27   C     C_R   0.256821 0.000948 0.376450 -0.193249
C28   C     C_R   0.743215 0.999061 0.623538 -0.193378
C29   C     C_R   0.892613 0.014811 0.287289 -0.000362
C30   C     C_R   0.107386 0.985174 0.712712 -0.000338
C31   C     C_R   0.734662 0.001125 0.374918 -0.197468
C32   C     C_R   0.265334 0.998866 0.625081 -0.197544
C33   C     C_R   0.999013 0.107581 0.204825 0.052214
C34   C     C_R   0.000983 0.892448 0.795194 0.052402
C35   C     C_R   0.999548 0.268796 0.122276 -0.150282
C36   C     C_R   0.000449 0.731220 0.877733 -0.150293
C37   C     C_R   0.992557 0.914137 0.205559 0.093697
C38   C     C_R   0.007454 0.085868 0.794438 0.093489
C39   C     C_R   0.991020 0.749331 0.119016 -0.035461
C40   C     C_R   0.008980 0.250679 0.880976 -0.035499
C41   C     C_R   0.992776 0.662228 0.075459 0.866483
C42   C     C_R   0.007224 0.337775 0.924539 0.866539
C43   C     C_R   0.999214 0.352576 0.080321 0.924247
C44   C     C_R   0.000785 0.647428 0.919681 0.924276
C45   C     C_R   0.112260 0.101776 0.330717 0.468225
C46   C     C_R   0.887621 0.898149 0.669352 0.468255
C47   C     C_R   0.194335 0.094557 0.372334 -0.210427
C48   C     C_R   0.805529 0.905361 0.627744 -0.210359
C49   C     C_R   0.883068 0.922283 0.321732 -0.322532
C50   C     C_R   0.117011 0.077749 0.678313 -0.322403
C51   C     C_R   0.806817 0.915090 0.365153 0.416967
C52   C     C_R   0.193258 0.084948 0.634892 0.416940
C53   C     C_R   0.097115 0.169174 0.194032 0.359113
C54   C     C_R   0.902847 0.830952 0.806039 0.359070
C55   C     C_R   0.093825 0.251531 0.155027 -0.172019
C56   C     C_R   0.906130 0.748587 0.845038 -0.171943
C57   C     C_R   0.898372 0.847154 0.195667 -0.047869
C58   C     C_R   0.101697 0.152737 0.804394 -0.047834
H1    H     H_    0.209605 0.163750 0.401716 0.226804
H2    H     H_    0.790126 0.836095 0.598433 0.226856
H3    H     H_    0.938756 0.855010 0.315819 0.205547
H4    H     H_    0.061398 0.145068 0.684262 0.205534
H5    H     H_    0.822590 0.859641 0.218750 0.181416
H6    H     H_    0.177514 0.140160 0.781358 0.181527
H7    H     H_    0.157968 0.946757 0.175268 0.202147
H8    H     H_    0.841916 0.053486 0.824597 0.202313
H9    H     H_    0.133053 0.843168 0.273026 0.198744
H10   H     H_    0.867316 0.156950 0.726807 0.198744
H11   H     H_    0.167341 0.300187 0.148749 0.212473
H12   H     H_    0.832582 0.700001 0.851352 0.212478
H13   H     H_    0.824701 0.715579 0.146181 0.171848
H14   H     H_    0.175416 0.284212 0.853936 0.171841
H15   H     H_    0.157246 0.803782 0.101832 0.171666
H16   H     H_    0.842626 0.196457 0.898021 0.171732
H17   H     H_    0.836728 0.212235 0.098802 0.169149
H18   H     H_    0.163349 0.787636 0.901130 0.169151
H19   H     H_    0.683050 0.158339 0.348227 0.223541
H20   H     H_    0.316809 0.841563 0.651701 0.223582
O1    O     O_R   0.621380 0.090460 0.561410 -0.563527
O2    O     O_R   0.378620 0.909540 0.438590 -0.563612
O3    O     O_R   0.617150 0.909540 0.438590 -0.559747
O4    O     O_R   0.382850 0.090460 0.561410 -0.559786
O5    O     O_R   0.619720 0.093230 0.440890 -0.625191
O6    O     O_R   0.380280 0.906770 0.559110 -0.625252
O7    O     O_R   0.618800 0.906770 0.559110 -0.618848
O8    O     O_R   0.381200 0.093230 0.440890 -0.618806
O9    O     O_R   0.087590 0.627480 0.058790 -0.624754
O10   O     O_R   0.912410 0.372520 0.941210 -0.624800
O11   O     O_R   0.905660 0.383870 0.059980 -0.618451
O12   O     O_R   0.094340 0.616130 0.940020 -0.618501
O13   O     O_R   0.092570 0.390420 0.063230 -0.625458
O14   O     O_R   0.907430 0.609580 0.936770 -0.625476
O15   O     O_R   0.900680 0.620930 0.055550 -0.620093
O16   O     O_R   0.099320 0.379070 0.944450 -0.620103
Zn1   Zn    Zn3+2 0.501730 0.123520 0.501540 1.139303
Zn2   Zn    Zn3+2 0.498270 0.876480 0.498460 1.139206
Zn3   Zn    Zn3+2 0.125690 0.504390 0.002180 1.006898
Zn4   Zn    Zn3+2 0.874310 0.495610 0.997820 1.006898
Cl1   Cl    Cl    0.232059 0.143205 0.219350 -0.604588
Cl2   Cl    Cl    0.767894 0.857018 0.780764 -0.604850
O17   O     O_3   0.815316 0.052889 0.170199 -0.776353
H21   H     H_    0.759650 0.071823 0.140562 0.348110
O18   O     O_3   0.184775 0.946978 0.829735 -0.776678
H22   H     H_    0.240677 0.927643 0.859144 0.348340
Cl3   Cl    Cl    0.816983 0.231362 0.267223 -0.506434
Cl4   Cl    Cl    0.182870 0.768549 0.732702 -0.506602
Cl5   Cl    Cl    0.811875 0.799752 0.408246 -0.503262
Cl6   Cl    Cl    0.188301 0.200374 0.591866 -0.503196
Cl7   Cl    Cl    0.310797 0.789932 0.339006 -0.508851
Cl8   Cl    Cl    0.689863 0.210395 0.660697 -0.508656
Cl9   Cl    Cl    0.046858 0.227959 0.329515 -0.492561
Cl10  Cl    Cl    0.952859 0.771898 0.670630 -0.492437

loop_
_geom_bond_atom_site_label_1
_geom_bond_atom_site_label_2
_ccdc_geom_bond_type
C16   C28   A    
O17   H21   S    
C5    C37   A    
C17   C29   A    
C15   Cl7   S    
C53   C55   A    
C19   C31   A    
C18   Cl4   S    
C16   Cl8   S    
C7    H15   S    
C29   C49   A    
C53   Cl1   S    
C43   O11   A    
C23   O5    A    
C10   O18   S    
C46   Cl10  S    
C20   C32   A    
O7    Zn2   S    
C21   C33   S    
C22   C38   S    
O6    Zn2   S    
C19   H19   S    
C24   O4    A    
C32   C52   A    
C38   C58   A    
C41   O15   A    
C4    C40   A    
C49   C51   A    
C1    C28   S    
C50   C52   A    
C6    C38   A    
C48   H2    S    
C2    C27   S    
C18   C30   A    
O2    Zn2   S    
C35   C43   S    
O12   Zn3   S    
C44   O14   A    
C40   C42   S    
C30   C50   A    
C3    C39   A    
C9    C33   A    
C54   Cl2   S    
C22   C34   S    
C57   H5    S    
C46   C48   A    
C45   C47   A    
C33   C53   A    
C41   O9    A    
C54   C56   A    
C49   H3    S    
O14   Zn4   S    
C5    H7    S    
C5    C7    A    
O3    Zn2   S    
C6    C8    A    
C58   H6    S    
C35   C55   A    
O13   Zn3   S    
C23   C31   S    
C3    H13   S    
C24   C32   S    
O1    Zn1   S    
C36   C56   A    
C17   Cl3   S    
C15   C27   A    
O5    Zn1   S    
C8    H16   S    
C10   C34   A    
C14   C26   A    
C9    C11   A    
C52   Cl6   S    
C55   H11   S    
C10   C12   A    
C3    C57   A    
C9    O17   S    
C34   C54   A    
C42   O10   A    
C56   H12   S    
C13   C15   A    
C1    O1    A    
C14   C16   A    
C36   C44   S    
C1    O7    A    
C12   C36   A    
C25   C45   A    
C4    H14   S    
C44   O12   A    
C13   H9    S    
C27   C47   A    
C21   C25   S    
C28   C48   A    
C7    C39   A    
O4    Zn1   S    
C22   C30   S    
C42   O16   A    
C23   O3    A    
C31   C51   A    
C13   C25   A    
C45   Cl9   S    
C37   C57   A    
O16   Zn3   S    
C20   H20   S    
O11   Zn4   S    
C12   H18   S    
C24   O6    A    
C11   H17   S    
C21   C29   S    
C50   H4    S    
C11   C35   A    
C17   C19   A    
C2    O8    A    
C18   C20   A    
C43   O13   A    
C2    O2    A    
O8    Zn1   S    
C26   C46   A    
C47   H1    S    
C6    H8    S    
C21   C37   S    
C39   C41   S    
C51   Cl5   S    
C22   C26   S    
C4    C58   A    
O18   H22   S    
C14   H10   S    
C8    C40   A    
O15   Zn4   S    
O10   Zn4   S    
O9    Zn3   S    
