data_mof_unit_58742.cif
_audit_creation_date              2013-03-05T15:52:29-0500
_audit_creation_method            fapswitch 2.2
_symmetry_space_group_name_H-M    P1
_symmetry_Int_Tables_number       1
_space_group_crystal_system       triclinic
_cell_length_a                    11.100911
_cell_length_b                    11.153725
_cell_length_c                    18.691109
_cell_angle_alpha                 89.981621
_cell_angle_beta                  90.459853
_cell_angle_gamma                 58.887032
_cell_volume                      1981.26998426

loop_
_atom_site_label
_atom_site_type_symbol
_atom_site_description
_atom_site_fract_x
_atom_site_fract_y
_atom_site_fract_z
_atom_type_partial_charge
O1    O     O_R   0.748670 0.497520 0.427970 -0.523790
O2    O     O_R   0.476470 0.723930 0.429450 -0.500567
C1    C     C_R   0.388715 0.707918 0.389968 0.542443
O3    O     O_R   0.264730 0.744140 0.416740 -0.538409
O4    O     O_R   0.309440 0.472410 0.418220 -0.510602
C2    C     C_R   0.386658 0.357925 0.385993 0.549572
O5    O     O_R   0.501630 0.260530 0.414310 -0.528954
O6    O     O_R   0.727920 0.305730 0.428950 -0.514748
C3    C     C_R   0.774846 0.380093 0.402913 0.539689
O7    O     O_R   0.738670 0.496020 0.588600 -0.515904
O8    O     O_R   0.467190 0.722540 0.578350 -0.505092
C4    C     C_R   0.348500 0.759567 0.606923 0.554777
O9    O     O_R   0.254720 0.742640 0.577370 -0.515509
O10   O     O_R   0.300170 0.471020 0.567120 -0.504750
C5    C     C_R   0.368741 0.350289 0.594955 0.562428
O11   O     O_R   0.491630 0.259030 0.574940 -0.522689
O12   O     O_R   0.718640 0.304340 0.577850 -0.508042
C6    C     C_R   0.756273 0.380113 0.612173 0.547590
Cr1   Cr    Cr6+3 0.601740 0.606840 0.505840 1.003598
Cr2   Cr    Cr6+3 0.291500 0.601560 0.495070 1.008235
Cr3   Cr    Cr6+3 0.606780 0.291630 0.499130 0.994016
O13   O     O_3   0.500010 0.500010 0.500020 -0.276828
C7    C     C_R   0.837533 0.968322 0.066044 -0.088160
C8    C     C_R   0.751826 0.106760 0.043384 -0.071342
C9    C     C_R   0.648034 0.205363 0.088294 -0.078848
C10   C     C_R   0.621216 0.164296 0.154707 0.036180
H1    H     H_    0.587597 0.199934 0.296311 0.130237
C11   C     C_R   0.361224 0.347687 0.157648 0.005409
C12   C     C_R   0.488738 0.266748 0.268641 -0.156294
C13   C     C_R   0.489478 0.262738 0.194131 -0.036282
C14   C     C_R   0.095109 0.688144 0.335330 -0.093904
C15   C     C_R   0.981790 0.781775 0.377551 -0.115741
C16   C     C_R   0.711687 0.025130 0.178082 -0.107144
C17   C     C_R   0.818527 0.927934 0.133612 -0.112064
C18   C     C_R   0.247676 0.458270 0.194257 -0.084903
C19   C     C_R   0.240021 0.459085 0.269389 0.034024
C20   C     C_R   0.862945 0.771147 0.380401 -0.169515
C21   C     C_R   0.854421 0.677159 0.335126 -0.082140
C22   C     C_R   0.971076 0.583265 0.293814 0.256787
C23   C     C_R   0.103598 0.570560 0.304464 0.022832
C24   C     C_R   0.365166 0.356287 0.307664 0.039591
H2    H     H_    0.888657 0.822004 0.152119 0.161377
H3    H     H_    0.983185 0.866552 0.404785 0.133581
H4    H     H_    0.919397 0.892700 0.031508 0.105356
H5    H     H_    0.764189 0.137608 0.990548 0.120798
H6    H     H_    0.582221 0.311997 0.069195 0.076350
H7    H     H_    0.168479 0.715406 0.319958 0.148549
H8    H     H_    0.700982 0.990351 0.230353 0.098180
H9    H     H_    0.156796 0.535618 0.163938 0.156118
H10   H     H_    0.772610 0.845398 0.411095 0.113780
H11   H     H_    0.753670 0.686070 0.327512 0.139433
C25   C     C_R   0.855486 0.323430 0.181552 0.052497
C26   C     C_R   0.946346 0.219479 0.230899 0.170479
C27   C     C_R   0.922845 0.236372 0.303218 0.063744
C28   C     C_R   0.724696 0.465639 0.280582 -0.137845
C29   C     C_R   0.742187 0.447074 0.207025 -0.118487
C30   C     C_3   0.996602 0.066975 0.236761 -0.252459
C31   C     C_3   0.966266 0.088154 0.316175 -0.309248
C32   C     C_R   0.811824 0.359192 0.328952 0.020700
H12   H     H_    0.644702 0.563530 0.300594 0.136179
H13   H     H_    0.674629 0.531856 0.170833 0.149780
H14   H     H_    0.110235 0.999258 0.225802 0.189244
H15   H     H_    0.929481 0.038764 0.207195 0.140396
H16   H     H_    0.876537 0.076588 0.332181 0.130659
H17   H     H_    0.062534 0.032341 0.350222 0.167015
C33   C     C_R   0.372235 0.820683 0.170627 0.016301
C34   C     C_R   0.427263 0.869761 0.223044 0.022453
C35   C     C_R   0.443546 0.825031 0.292790 -0.032890
C36   C     C_R   0.382533 0.658943 0.260009 -0.202186
C37   C     C_R   0.363588 0.703363 0.188447 -0.176862
C38   C     C_3   0.408565 0.006542 0.246773 0.091005
C39   C     C_3   0.434549 0.951226 0.323705 -0.222700
C40   C     C_R   0.394360 0.738877 0.314396 -0.012171
H18   H     H_    0.385005 0.565587 0.273772 0.110842
H19   H     H_    0.335989 0.651222 0.148433 0.113964
H20   H     H_    0.488713 0.024877 0.224630 0.123497
H21   H     H_    0.537347 0.929118 0.345638 0.101580
H22   H     H_    0.345243 0.004877 0.361366 0.186992
C41   C     C_R   0.299080 0.308254 0.808808 0.024675
C42   C     C_R   0.376171 0.188894 0.766621 0.048243
C43   C     C_R   0.383581 0.197627 0.693940 0.016749
C44   C     C_R   0.218015 0.446749 0.700719 -0.163641
C45   C     C_R   0.210985 0.436784 0.774912 -0.181649
C46   C     C_3   0.526076 0.072675 0.773289 -0.264218
C47   C     C_3   0.533746 0.078966 0.692873 -0.274300
C48   C     C_R   0.315666 0.328596 0.660853 0.017972
H23   H     H_    0.158967 0.549575 0.676309 0.140987
H24   H     H_    0.143958 0.530000 0.805671 0.118286
H25   H     H_    0.536977 0.974089 0.792819 0.139158
H26   H     H_    0.592998 0.105040 0.801809 0.134945
H27   H     H_    0.610299 0.108579 0.676092 0.159736
H28   H     H_    0.545188 0.985060 0.665709 0.129837
C49   C     C_R   0.801158 0.345313 0.838738 0.018574
C50   C     C_R   0.774091 0.466285 0.801215 0.031864
C51   C     C_R   0.765635 0.470613 0.728236 0.039108
C52   C     C_R   0.777329 0.249797 0.726146 -0.163607
C53   C     C_R   0.786483 0.244032 0.801401 -0.172830
C54   C     C_3   0.848983 0.547109 0.800160 -0.266039
C55   C     C_3   0.840021 0.548910 0.719713 -0.277634
C56   C     C_R   0.779432 0.358662 0.688884 0.018922
H29   H     H_    0.775909 0.166565 0.697411 0.121208
H30   H     H_    0.795638 0.154612 0.829286 0.111003
H31   H     H_    0.959416 0.485858 0.819167 0.179256
H32   H     H_    0.785441 0.652799 0.824207 0.119340
H33   H     H_    0.773052 0.655532 0.696953 0.132274
H34   H     H_    0.943846 0.484888 0.693611 0.148198
C57   C     C_R   0.317112 0.814369 0.832406 0.018836
C58   C     C_R   0.218805 0.797286 0.793456 0.019739
C59   C     C_R   0.228465 0.783215 0.720169 0.031239
C60   C     C_R   0.446950 0.779001 0.723166 -0.153222
C61   C     C_R   0.439844 0.788405 0.797710 -0.153689
C62   C     C_3   0.062043 0.886872 0.789644 -0.271770
C63   C     C_3   0.073143 0.870254 0.709210 -0.277746
C64   C     C_R   0.334895 0.787541 0.683210 0.017912
H35   H     H_    0.537261 0.769950 0.696790 0.128318
H36   H     H_    0.523611 0.788943 0.827298 0.119196
H37   H     H_    0.025341 0.995257 0.806840 0.167918
H38   H     H_    0.009151 0.836284 0.815085 0.126118
H39   H     H_    0.028092 0.808490 0.688028 0.132152
H40   H     H_    0.040207 0.969605 0.680024 0.141148
O14   O     O_R   0.186620 0.923750 0.087000 -0.523613
O15   O     O_R   0.957350 0.194160 0.084660 -0.510393
C65   C     C_R   0.906867 0.315199 0.109958 0.595930
O16   O     O_R   0.935120 0.407280 0.085350 -0.416317
O17   O     O_R   0.203800 0.365060 0.067090 -0.467130
C66   C     C_R   0.330181 0.298236 0.090318 0.585515
O18   O     O_R   0.417470 0.174910 0.067830 -0.493027
O19   O     O_R   0.375160 0.946380 0.070880 -0.472979
C67   C     C_R   0.310385 0.896370 0.104269 0.578492
O20   O     O_R   0.160500 0.919670 0.926690 -0.531456
O21   O     O_R   0.933140 0.190380 0.936050 -0.531255
C68   C     C_R   0.878519 0.312730 0.906333 0.523784
O22   O     O_R   0.909010 0.403210 0.925030 -0.536283
O23   O     O_R   0.179590 0.361290 0.918480 -0.526211
C69   C     C_R   0.294263 0.287055 0.884628 0.531986
O24   O     O_R   0.391360 0.170840 0.907510 -0.530481
O25   O     O_R   0.350950 0.942600 0.922260 -0.515060
C70   C     C_R   0.277733 0.890497 0.899523 0.537475
Cr4   Cr    Cr6+3 0.062440 0.063060 0.008240 0.998114
Cr5   Cr    Cr6+3 0.062950 0.375000 0.998920 1.057558
Cr6   Cr    Cr6+3 0.374550 0.061770 0.992470 1.044109
O26   O     O_3   0.166650 0.166610 0.999880 -0.237405
N1    N     N_R   0.943483 0.536386 0.229169 0.040852
O27   O     O_R   0.035761 0.414616 0.205555 -0.266964
O28   O     O_R   0.847211 0.627264 0.185752 -0.410528
N2    N     N_R   0.266548 0.123829 0.236144 0.058979
O29   O     O_R   0.201287 0.208733 0.288773 -0.356980
O30   O     O_R   0.215840 0.158142 0.171654 -0.300470

loop_
_geom_bond_atom_site_label_1
_geom_bond_atom_site_label_2
_geom_bond_distance
_ccdc_geom_bond_type
C41   C45   1.397693 A    
C28   C29   1.390590 A    
C49   C50   1.407050 A    
C28   C32   1.400365 A    
H1    C12   1.082883 S    
C18   C19   1.407304 A    
C17   H2    1.080067 S    
C42   C46   1.494101 S    
O19   C67   1.280286 A    
C47   H27   1.106314 S    
C65   O16   1.303708 A    
O4    Cr2   1.971659 S    
C33   C37   1.400897 A    
C26   C27   1.373222 A    
C58   C59   1.377542 A    
O8    Cr1   1.942864 S    
C39   H21   1.110275 S    
C46   H26   1.112332 S    
C8    H5    1.078534 S    
Cr3   O13   1.990094 S    
Cr5   O26   1.990587 S    
O15   Cr4   1.950522 S    
O23   Cr5   1.946083 S    
C62   H37   1.106378 S    
Cr4   O26   2.019951 S    
C51   C55   1.489029 S    
C50   C54   1.509645 S    
N1    O27   1.287881 A    
C14   C23   1.391182 A    
O18   Cr6   2.101250 S    
C60   C61   1.397077 A    
C39   H22   1.111218 S    
C31   H17   1.111678 S    
C63   H39   1.111073 S    
Cr6   O26   1.982196 S    
C11   C18   1.409258 A    
C68   O22   1.267479 A    
C2    C24   1.483101 S    
C54   H31   1.105947 S    
C18   H9    1.083627 S    
C57   C58   1.399810 A    
C36   C40   1.401746 A    
C61   H36   1.080779 S    
C49   C68   1.457920 S    
O19   Cr6   1.947822 S    
C60   C64   1.405963 A    
N2    O30   1.297099 A    
C43   C48   1.392315 A    
C59   C63   1.490526 S    
C33   C67   1.452274 S    
O24   Cr6   2.067522 S    
C45   H24   1.083012 S    
C14   H7    1.047874 S    
C28   H12   1.060273 S    
C19   C24   1.446991 A    
C36   C37   1.402215 A    
C6    C56   1.452405 S    
O20   Cr4   2.072481 S    
C62   C63   1.513045 S    
C47   H28   1.111237 S    
C11   C66   1.482114 S    
C30   H15   1.093341 S    
C4    C64   1.452009 S    
C27   C32   1.375513 A    
O17   Cr5   1.967058 S    
C31   H16   1.111698 S    
C21   C22   1.408894 A    
C55   H33   1.108531 S    
O1    Cr1   2.061415 S    
C34   C35   1.372451 A    
O10   Cr2   1.947987 S    
C69   O24   1.254297 A    
Cr1   O13   2.023778 S    
O1    C3    1.276122 A    
C8    C9    1.395808 A    
O14   C67   1.282293 A    
C22   C23   1.415526 A    
C26   C30   1.494921 S    
C51   C56   1.388663 A    
O6    C3    1.283143 A    
C21   H11   1.078685 S    
C30   H14   1.106011 S    
C9    C10   1.409194 A    
C44   C48   1.415719 A    
C44   C45   1.397183 A    
O12   Cr3   1.969688 S    
C7    H4    1.082395 S    
C58   C62   1.494238 S    
C3    C32   1.429801 S    
C20   C21   1.387756 A    
C63   H40   1.112168 S    
C10   C16   1.410804 A    
C14   C15   1.398073 A    
C19   C23   1.529609 S    
O7    Cr1   2.061679 S    
C35   C39   1.476898 S    
C7    C17   1.394458 A    
C52   C53   1.408505 A    
O12   C6    1.288910 A    
C36   H18   1.058940 S    
C15   C20   1.385700 A    
C46   C47   1.509820 S    
O23   C69   1.276863 A    
C59   C64   1.395505 A    
C5    C48   1.442761 S    
C22   N1    1.409659 S    
C10   C13   1.498535 S    
O17   C66   1.273434 A    
C44   H23   1.082188 S    
C46   H25   1.103879 S    
C1    O3    1.320790 A    
O20   C70   1.276888 A    
C49   C53   1.406611 A    
C38   H20   1.094809 S    
C25   C26   1.410027 A    
N2    O29   1.300896 A    
C27   C31   1.482684 S    
N1    O28   1.301600 A    
C55   H34   1.111307 S    
O25   Cr6   1.978129 S    
O9    Cr2   2.087290 S    
C12   C24   1.418406 A    
O2    Cr1   1.941163 S    
O10   C5    1.263847 A    
C57   C61   1.402571 A    
O16   Cr5   2.064507 S    
C53   H30   1.082026 S    
Cr2   O13   1.983978 S    
C42   C43   1.368120 A    
O6    Cr3   1.949497 S    
C60   H35   1.077822 S    
O8    C4    1.280962 A    
O11   Cr3   2.069562 S    
C2    O5    1.282612 A    
C41   C69   1.442630 S    
O25   C70   1.289065 A    
O14   Cr4   2.057696 S    
C57   C70   1.453177 S    
C11   C13   1.407004 A    
O2    C1    1.301461 A    
C35   C40   1.389286 A    
C38   C39   1.529838 S    
O5    Cr3   2.094124 S    
O21   C68   1.295161 A    
C62   H38   1.111733 S    
C20   H10   1.082534 S    
C30   C31   1.516080 S    
O4    C2    1.267188 A    
O7    C6    1.280944 A    
C66   O18   1.279516 A    
C54   H32   1.111452 S    
C52   C56   1.410333 A    
C25   C65   1.443147 S    
C15   H3    1.081106 S    
C16   C17   1.400159 A    
C33   C34   1.403200 A    
C34   C38   1.497320 S    
C50   C51   1.365651 A    
C1    C40   1.463519 S    
O21   Cr4   1.938736 S    
C7    C8    1.394176 A    
C12   C13   1.393350 A    
C41   C42   1.400215 A    
O3    Cr2   2.064944 S    
C25   C29   1.388507 A    
C38   N2    1.449021 S    
C4    O9    1.272209 A    
O22   Cr5   2.081540 S    
C54   C55   1.505572 S    
C37   H19   1.082674 S    
C16   H8    1.080911 S    
C29   H13   1.082960 S    
O15   C65   1.258181 A    
C52   H29   1.079742 S    
C9    H6    1.083205 S    
C43   C47   1.500447 S    
C5    O11   1.269026 A    
