data_mof_unit_17070.cif
_audit_creation_date              2012-12-10T18:12:41-0500
_audit_creation_method            fapswitch 2.2
_symmetry_space_group_name_H-M    P1
_symmetry_Int_Tables_number       1
_space_group_crystal_system       triclinic
_cell_length_a                    12.67468
_cell_length_b                    13.121919
_cell_length_c                    15.673347
_cell_angle_alpha                 91.93236
_cell_angle_beta                  101.827339
_cell_angle_gamma                 81.894565
_cell_volume                      2525.86976394

loop_
_atom_site_label
_atom_site_type_symbol
_atom_type_description
_atom_site_fract_x
_atom_site_fract_y
_atom_site_fract_z
_atom_type_partial_charge
C1    C     C_R   0.439043 0.690898 0.487027 0.839496
C2    C     C_3   0.503026 0.495797 0.917519 0.212729
C3    C     C_3   0.549470 0.404795 0.034363 -0.163819
C4    C     C_3   0.499237 0.496631 0.082426 0.210803
C5    C     C_3   0.605013 0.479839 0.989921 -0.161691
C6    C     C_3   0.554730 0.571657 0.039760 -0.162537
C7    C     C_1   0.504301 0.496252 0.826698 -0.088473
C8    C     C_1   0.498148 0.497525 0.173383 -0.083405
C9    C     C_R   0.703040 0.059970 0.440281 -0.207097
C10   C     C_R   0.596526 0.199489 0.501898 -0.045762
C11   C     C_R   0.300716 0.839536 0.499680 -0.197905
C12   C     C_R   0.500923 0.499609 0.661643 0.902617
C13   C     C_R   0.272368 0.944904 0.507873 -0.151721
C14   C     C_R   0.345903 0.011380 0.499423 -0.194453
C15   C     C_R   0.447815 0.973078 0.478189 0.084195
C16   C     C_R   0.468270 0.868240 0.456388 0.081689
C17   C     C_R   0.530193 0.035174 0.477863 0.077514
C18   C     C_R   0.623139 0.996871 0.443005 0.173049
C19   C     C_R   0.633770 0.897034 0.409907 -0.259280
C20   C     C_R   0.557093 0.833448 0.416155 -0.199588
C21   C     C_R   0.523377 0.134099 0.512754 -0.259023
C22   C     C_R   0.688754 0.161983 0.468255 -0.206676
C23   C     C_R   0.560899 0.308891 0.508650 0.854344
C24   C     C_R   0.400137 0.800565 0.476885 -0.104570
C25   C     C_R   0.091822 0.344465 0.376638 -0.313758
C26   C     C_R   0.788040 0.648511 0.581683 0.030196
C27   C     C_R   0.870148 0.701467 0.567312 -0.253852
C28   C     C_R   0.946295 0.652695 0.521579 -0.203784
C29   C     C_R   0.947991 0.547638 0.499619 0.024413
C30   C     C_R   0.852101 0.505269 0.499821 0.230676
C31   C     C_R   0.034653 0.487412 0.468129 -0.030624
C32   C     C_R   0.011224 0.400842 0.414717 0.166084
C33   C     C_R   0.908320 0.369532 0.402568 -0.281603
C34   C     C_R   0.499441 0.499579 0.338359 0.887555
C35   C     C_R   0.831306 0.418797 0.447403 -0.212568
C36   C     C_R   0.145513 0.502332 0.494605 0.168013
C37   C     C_R   0.196796 0.369921 0.396143 -0.018430
C38   C     C_3   0.397200 0.512594 0.009995 -0.165512
C39   C     C_3   0.452737 0.587597 0.965562 -0.168339
C40   C     C_1   0.503499 0.497603 0.751108 -0.189046
C41   C     C_1   0.498289 0.498491 0.248961 -0.182722
C42   C     C_3   0.447452 0.420776 0.960094 -0.168581
H1    H     H_    0.458748 0.164089 0.545839 0.147896
H2    H     H_    0.246489 0.788478 0.513926 0.142497
H3    H     H_    0.319770 0.092310 0.507716 0.132912
H4    H     H_    0.195096 0.974937 0.524566 0.138649
H5    H     H_    0.567560 0.757025 0.388310 0.175916
H6    H     H_    0.888969 0.303840 0.361484 0.149911
H7    H     H_    0.074147 0.280303 0.333206 0.147889
H8    H     H_    0.725060 0.687598 0.612988 0.142881
H9    H     H_    0.312251 0.525996 0.020325 0.134415
H10   H     H_    0.000756 0.698507 0.500519 0.135671
H11   H     H_    0.871657 0.780997 0.587652 0.150755
H12   H     H_    0.754624 0.390824 0.436699 0.204044
H13   H     H_    0.598435 0.633377 0.074519 0.133618
H14   H     H_    0.689919 0.466450 0.979488 0.133856
H15   H     H_    0.588865 0.330100 0.064726 0.131621
H16   H     H_    0.403657 0.359198 0.925180 0.131534
H17   H     H_    0.746418 0.212193 0.459549 0.145224
H18   H     H_    0.702239 0.867498 0.380389 0.151832
H19   H     H_    0.773886 0.031745 0.413252 0.133055
N1    N     N_R   0.222180 0.444680 0.455580 -0.112711
N2    N     N_R   0.776980 0.554790 0.543960 -0.135359
O1    O     O_R   0.366730 0.627160 0.478790 -0.631886
O2    O     O_R   0.544830 0.662520 0.507160 -0.619638
O3    O     O_R   0.410960 0.482330 0.609040 -0.628778
O4    O     O_R   0.589060 0.517690 0.637410 -0.606313
O5    O     O_R   0.455170 0.337480 0.492840 -0.615518
O6    O     O_R   0.633270 0.372840 0.521210 -0.636458
O7    O     O_R   0.410940 0.482310 0.362590 -0.605653
O8    O     O_R   0.589040 0.517670 0.390960 -0.627590
Zn1   Zn    Zn3+2 0.381080 0.476390 0.481050 0.922494
Zn2   Zn    Zn3+2 0.618920 0.523610 0.518950 0.926237
H20   H     H_    0.413233 0.662214 0.935100 0.132860
H21   H     H_    0.259575 0.327450 0.366410 0.145789
C43   C     C_3   0.183540 0.560009 0.578887 -0.385101
C44   C     C_3   0.191220 0.492211 0.658625 -0.310428
C45   C     C_3   0.216772 0.552624 0.743650 -0.886124
H22   H     H_    0.289017 0.592152 0.745640 0.265716
H23   H     H_    0.146373 0.611345 0.749547 0.257378
H24   H     H_    0.233228 0.499472 0.799922 0.250211
H25   H     H_    0.112399 0.462858 0.655518 0.213189
H26   H     H_    0.254555 0.424482 0.658902 0.240398
H27   H     H_    0.259009 0.590239 0.578024 0.244890
H28   H     H_    0.134298 0.632735 0.588683 0.169663

loop_
_geom_bond_atom_site_label_1
_geom_bond_atom_site_label_2
_ccdc_geom_bond_type
C3    C42   S    
C11   C13   A    
C23   O6    A    
C5    H14   S    
C19   C20   A    
C6    H13   S    
C4    C8    S    
C43   H27   S    
C37   N1    A    
C44   C45   S    
C10   C22   A    
C26   C27   A    
C30   C35   A    
C9    H19   S    
C28   C29   A    
C38   C42   S    
C26   H8    S    
C5    C6    S    
C45   H23   S    
C9    C22   A    
C44   H26   S    
C15   C16   A    
C11   C24   A    
O2    Zn2   S    
C18   C19   A    
C39   H20   S    
C36   C43   S    
C25   C37   A    
C21   H1    S    
C2    C39   S    
O3    Zn1   S    
C2    C7    S    
C1    O2    A    
C7    C40   T    
O6    Zn2   S    
O4    Zn2   S    
C34   O7    A    
C31   C36   A    
C16   C20   A    
C25   C32   A    
C37   H21   S    
C16   C24   A    
C13   C14   A    
C35   H12   S    
C42   H16   S    
C34   C41   S    
C36   N1    A    
C14   H3    S    
C10   C21   A    
C38   C39   S    
C12   O4    A    
C43   C44   S    
C4    C6    S    
C22   H17   S    
O8    Zn2   S    
C45   H22   S    
C38   H9    S    
N2    Zn2   S    
C12   O3    A    
C17   C21   A    
C23   O5    A    
C12   C40   S    
C26   N2    A    
C29   C30   A    
C31   C32   A    
O5    Zn1   S    
C17   C18   A    
N1    Zn1   S    
C11   H2    S    
C8    C41   T    
C3    H15   S    
C4    C38   S    
C19   H18   S    
C2    C5    S    
C3    C4    S    
C1    O1    A    
C15   C17   A    
C6    C39   S    
C3    C5    S    
C27   H11   S    
C10   C23   S    
C32   C33   A    
C29   C31   A    
C28   H10   S    
C45   H24   S    
C13   H4    S    
C44   H25   S    
C2    C42   S    
C43   H28   S    
C33   C35   A    
O1    Zn1   S    
C25   H7    S    
C20   H5    S    
C9    C18   A    
C1    C24   S    
C27   C28   A    
C33   H6    S    
C14   C15   A    
O7    Zn1   S    
C30   N2    A    
C34   O8    A    
