data_mof_unit_39151.cif
_audit_creation_date              2012-12-11T14:43:55-0500
_audit_creation_method            fapswitch 2.2
_symmetry_space_group_name_H-M    P1
_symmetry_Int_Tables_number       1
_space_group_crystal_system       triclinic
_cell_length_a                    19.34603
_cell_length_b                    10.872657
_cell_length_c                    18.941343
_cell_angle_alpha                 90.001429
_cell_angle_beta                  90.859301
_cell_angle_gamma                 90.122273
_cell_volume                      3983.71699939

loop_
_atom_site_label
_atom_site_type_symbol
_atom_type_description
_atom_site_fract_x
_atom_site_fract_y
_atom_site_fract_z
_atom_type_partial_charge
C1    C     C_R   0.728758 0.377171 0.145834 0.560647
C2    C     C_R   0.271191 0.377335 0.854117 0.579580
C3    C     C_R   0.228758 0.877171 0.145834 0.560653
C4    C     C_R   0.771192 0.877335 0.854117 0.579531
C5    C     C_R   0.513233 0.383437 0.927938 -0.064479
C6    C     C_R   0.486798 0.383115 0.072093 -0.064689
C7    C     C_R   0.013232 0.883437 0.927938 -0.064474
C8    C     C_R   0.986796 0.883114 0.072094 -0.064686
C9    C     C_R   0.008945 0.994149 0.964635 -0.030288
C10   C     C_R   0.990873 0.993960 0.035463 -0.029751
C11   C     C_R   0.508947 0.494149 0.964634 -0.030293
C12   C     C_R   0.490875 0.493960 0.035462 -0.029755
C13   C     C_R   0.696416 0.876118 0.033876 -0.083714
C14   C     C_R   0.303402 0.876177 0.965993 -0.085069
C15   C     C_R   0.196418 0.376114 0.033877 -0.083713
C16   C     C_R   0.803401 0.376175 0.965993 -0.085069
C17   C     C_R   0.695373 0.874052 0.959629 -0.044212
C18   C     C_R   0.304441 0.874089 0.040227 -0.042575
C19   C     C_R   0.195375 0.374047 0.959630 -0.044214
C20   C     C_R   0.804442 0.374087 0.040228 -0.042570
C21   C     C_R   0.752821 0.923268 0.924066 0.035025
C22   C     C_R   0.247055 0.923003 0.075809 0.037601
C23   C     C_R   0.252821 0.423267 0.924066 0.035026
C24   C     C_R   0.747057 0.423005 0.075810 0.037600
C25   C     C_R   0.802126 0.993318 0.962067 0.214956
C26   C     C_R   0.197778 0.992766 0.037816 0.215828
C27   C     C_R   0.302124 0.493320 0.962067 0.214958
C28   C     C_R   0.697781 0.492773 0.037818 0.215829
C29   C     C_R   0.802642 0.991176 0.034634 -0.108029
C30   C     C_R   0.197225 0.990576 0.965256 -0.107737
C31   C     C_R   0.302640 0.491180 0.034634 -0.108029
C32   C     C_R   0.697228 0.490586 0.965258 -0.107734
C33   C     C_R   0.748870 0.936174 0.071751 -0.030440
C34   C     C_R   0.250977 0.935942 0.928139 -0.031010
C35   C     C_R   0.248870 0.436175 0.071751 -0.030441
C36   C     C_R   0.750978 0.435946 0.928140 -0.031015
C37   C     C_R   0.481066 0.068292 0.457846 -0.151565
C38   C     C_R   0.472105 0.063986 0.529354 -0.120482
C39   C     C_R   0.981059 0.568316 0.457848 -0.151543
C40   C     C_R   0.972096 0.563999 0.529355 -0.120606
C41   C     C_R   0.488276 0.165448 0.572306 0.048056
C42   C     C_R   0.505325 0.174825 0.425912 0.004992
C43   C     C_R   0.988291 0.665438 0.572317 0.048011
C44   C     C_R   0.005348 0.674836 0.425924 0.004989
C45   C     C_R   0.533228 0.154256 0.145953 0.547185
C46   C     C_R   0.466856 0.154361 0.853996 0.554926
C47   C     C_R   0.033228 0.654256 0.145953 0.547196
C48   C     C_R   0.966856 0.654361 0.853996 0.554940
C49   C     C_R   0.512088 0.276525 0.542149 0.000593
C50   C     C_R   0.515273 0.284950 0.467290 -0.000171
C51   C     C_R   0.012138 0.776499 0.542174 0.000608
C52   C     C_R   0.015334 0.784940 0.467317 -0.000228
C53   C     C_R   0.804737 0.847695 0.444434 -0.147054
C54   C     C_R   0.211315 0.024966 0.526301 -0.168156
C55   C     C_R   0.304609 0.347407 0.444407 -0.147280
C56   C     C_R   0.711303 0.524947 0.526304 -0.168125
C57   C     C_R   0.815445 0.817768 0.515207 -0.189820
C58   C     C_R   0.210165 0.010752 0.454059 -0.189028
C59   C     C_R   0.315316 0.317450 0.515179 -0.189896
C60   C     C_R   0.710150 0.510732 0.454063 -0.188983
C61   C     C_R   0.771357 0.864208 0.566853 0.039484
C62   C     C_R   0.251284 0.921007 0.422532 0.037544
C63   C     C_R   0.271362 0.364200 0.566856 0.039431
C64   C     C_R   0.751281 0.421008 0.422532 0.037582
C65   C     C_R   0.714766 0.938504 0.547275 0.239956
C66   C     C_R   0.300648 0.856045 0.464309 0.220455
C67   C     C_R   0.214912 0.438853 0.547315 0.240057
C68   C     C_R   0.800654 0.356063 0.464306 0.220466
C69   C     C_R   0.704063 0.967103 0.476445 -0.075886
C70   C     C_R   0.301156 0.870928 0.537126 -0.091255
C71   C     C_R   0.204204 0.467476 0.476489 -0.075672
C72   C     C_R   0.801163 0.370943 0.537123 -0.091337
C73   C     C_R   0.749638 0.923884 0.425279 0.011212
C74   C     C_R   0.254734 0.951545 0.568533 -0.008201
C75   C     C_R   0.249641 0.423924 0.425287 0.011233
C76   C     C_R   0.754733 0.451541 0.568533 -0.008233
C77   C     C_R   0.740523 0.971594 0.146202 0.552626
C78   C     C_R   0.259430 0.971619 0.853750 0.565103
C79   C     C_R   0.240523 0.471594 0.146202 0.552624
C80   C     C_R   0.759430 0.471620 0.853751 0.565067
C81   C     C_R   0.730168 0.378741 0.352244 0.559603
C82   C     C_R   0.286729 0.334925 0.640272 0.574495
C83   C     C_R   0.230169 0.878741 0.352244 0.559561
C84   C     C_R   0.786720 0.834945 0.640272 0.574475
C85   C     C_R   0.533285 0.159017 0.354383 0.531249
C86   C     C_R   0.466317 0.157168 0.645705 0.546067
C87   C     C_R   0.033294 0.659019 0.354389 0.531251
C88   C     C_R   0.966321 0.657165 0.645709 0.546041
C89   C     C_R   0.741426 0.970397 0.353917 0.544831
C90   C     C_R   0.260309 0.978816 0.643296 0.548327
C91   C     C_R   0.241430 0.470390 0.353914 0.544772
C92   C     C_R   0.760309 0.478815 0.643296 0.548256
C93   C     C_R   0.491708 0.157572 0.926711 -0.044382
C94   C     C_R   0.508575 0.157453 0.073171 -0.045205
C95   C     C_R   0.991708 0.657572 0.926711 -0.044380
C96   C     C_R   0.008575 0.657453 0.073171 -0.045204
C97   C     C_R   0.501927 0.270410 0.962857 -0.021401
C98   C     C_R   0.498295 0.270297 0.037105 -0.021774
C99   C     C_R   0.001926 0.770410 0.962858 -0.021402
C100  C     C_R   0.998294 0.770297 0.037105 -0.021775
C101  C     C_R   0.510046 0.045908 0.034437 0.216781
C102  C     C_R   0.490376 0.045898 0.965366 0.214788
C103  C     C_R   0.010047 0.545909 0.034437 0.216783
C104  C     C_R   0.990375 0.545899 0.965366 0.214792
Cr1   Cr    Cr6+3 0.772000 0.169640 0.250110 1.016857
Cr2   Cr    Cr6+3 0.228000 0.169640 0.749890 0.994452
Cr3   Cr    Cr6+3 0.272000 0.669640 0.250110 1.016787
Cr4   Cr    Cr6+3 0.728000 0.669640 0.749890 0.994540
Cr5   Cr    Cr6+3 0.614960 0.323350 0.249260 1.021963
Cr6   Cr    Cr6+3 0.385040 0.323350 0.750740 1.027727
Cr7   Cr    Cr6+3 0.114960 0.823350 0.249260 1.021937
Cr8   Cr    Cr6+3 0.885040 0.823350 0.750740 1.027755
Cr9   Cr    Cr6+3 0.616670 0.010620 0.250840 1.059511
Cr10  Cr    Cr6+3 0.383330 0.010620 0.749160 1.058792
Cr11  Cr    Cr6+3 0.116670 0.510620 0.250840 1.059521
Cr12  Cr    Cr6+3 0.883330 0.510620 0.749160 1.058742
H1    H     H_    0.839418 0.812570 0.404960 0.112120
H2    H     H_    0.178075 0.094229 0.548908 0.152857
H3    H     H_    0.339195 0.312058 0.404909 0.112125
H4    H     H_    0.678056 0.594197 0.548914 0.152909
H5    H     H_    0.858386 0.759146 0.529876 0.112581
H6    H     H_    0.173882 0.065425 0.423323 0.138290
H7    H     H_    0.358155 0.258569 0.529823 0.112559
H8    H     H_    0.673857 0.565391 0.423330 0.138283
H9    H     H_    0.661789 0.027622 0.461549 0.151989
H10   H     H_    0.338061 0.819839 0.569150 0.161278
H11   H     H_    0.162038 0.528247 0.461617 0.151856
H12   H     H_    0.838076 0.319866 0.569144 0.161230
H13   H     H_    0.526174 0.387462 0.872664 0.123421
H14   H     H_    0.473842 0.386870 0.127364 0.123935
H15   H     H_    0.026173 0.887463 0.872665 0.123436
H16   H     H_    0.973840 0.886869 0.127364 0.123945
H17   H     H_    0.016775 0.080471 0.937358 0.164787
H18   H     H_    0.982918 0.080132 0.062799 0.164587
H19   H     H_    0.516777 0.580471 0.937356 0.164786
H20   H     H_    0.482920 0.580133 0.062798 0.164589
H21   H     H_    0.657543 0.829861 0.063003 0.253697
H22   H     H_    0.342288 0.830272 0.936862 0.254018
H23   H     H_    0.157546 0.329853 0.063004 0.253694
H24   H     H_    0.842286 0.330266 0.936861 0.254017
H25   H     H_    0.844315 0.038195 0.061729 0.144332
H26   H     H_    0.155593 0.037414 0.938171 0.144920
H27   H     H_    0.344313 0.538204 0.061728 0.144333
H28   H     H_    0.655597 0.537429 0.938173 0.144922
H29   H     H_    0.470893 0.985438 0.427561 0.176400
H30   H     H_    0.451754 0.979250 0.550916 0.163308
H31   H     H_    0.970862 0.485481 0.427554 0.176415
H32   H     H_    0.951719 0.479277 0.550909 0.163240
O1    O     O_R   0.787540 0.042690 0.170470 -0.554564
O2    O     O_R   0.212460 0.042690 0.829530 -0.549384
O3    O     O_R   0.287540 0.542690 0.170470 -0.554578
O4    O     O_R   0.712460 0.542690 0.829530 -0.549394
O5    O     O_R   0.556540 0.252920 0.323970 -0.521747
O6    O     O_R   0.443460 0.252920 0.676030 -0.543067
O7    O     O_R   0.056540 0.752920 0.323970 -0.521785
O8    O     O_R   0.943460 0.752920 0.676030 -0.543049
O9    O     O_R   0.545870 0.051100 0.330840 -0.527116
O10   O     O_R   0.454130 0.051100 0.669160 -0.519679
O11   O     O_R   0.045870 0.551100 0.330840 -0.527067
O12   O     O_R   0.954130 0.551100 0.669160 -0.519762
O13   O     O_R   0.681340 0.959300 0.325510 -0.509811
O14   O     O_R   0.318660 0.959300 0.674490 -0.509041
O15   O     O_R   0.181340 0.459300 0.325510 -0.509754
O16   O     O_R   0.818660 0.459300 0.674490 -0.509058
O17   O     O_3   0.667880 0.167870 0.250070 -0.262858
O18   O     O_3   0.332120 0.167870 0.749930 -0.289672
O19   O     O_3   0.167880 0.667870 0.250070 -0.262856
O20   O     O_3   0.832120 0.667870 0.749930 -0.289650
O21   O     O_R   0.765660 0.292160 0.175050 -0.531527
O22   O     O_R   0.234340 0.292160 0.824950 -0.523833
O23   O     O_R   0.265660 0.792160 0.175050 -0.531521
O24   O     O_R   0.734340 0.792160 0.824950 -0.523835
O25   O     O_R   0.670190 0.408980 0.168550 -0.441836
O26   O     O_R   0.329810 0.408980 0.831450 -0.434060
O27   O     O_R   0.170190 0.908980 0.168550 -0.441835
O28   O     O_R   0.829810 0.908980 0.831450 -0.434071
O29   O     O_R   0.556580 0.251450 0.175160 -0.507665
O30   O     O_R   0.443420 0.251450 0.824840 -0.510933
O31   O     O_R   0.056580 0.751450 0.175160 -0.507654
O32   O     O_R   0.943420 0.751450 0.824840 -0.510900
O33   O     O_R   0.545920 0.049510 0.170320 -0.459736
O34   O     O_R   0.454080 0.049510 0.829680 -0.456582
O35   O     O_R   0.045920 0.549510 0.170320 -0.459736
O36   O     O_R   0.954080 0.549510 0.829680 -0.456582
O37   O     O_R   0.681390 0.957840 0.176710 -0.458755
O38   O     O_R   0.318610 0.957840 0.823290 -0.452150
O39   O     O_R   0.181390 0.457840 0.176710 -0.458757
O40   O     O_R   0.818610 0.457840 0.823290 -0.452164
O41   O     O_R   0.787500 0.044280 0.330990 -0.474682
O42   O     O_R   0.212500 0.044280 0.669010 -0.537666
O43   O     O_R   0.287500 0.544280 0.330990 -0.474739
O44   O     O_R   0.712500 0.544280 0.669010 -0.537614
O45   O     O_R   0.765610 0.293630 0.323860 -0.441941
O46   O     O_R   0.234390 0.293630 0.676140 -0.459255
O47   O     O_R   0.265610 0.793630 0.323860 -0.441941
O48   O     O_R   0.734390 0.793630 0.676140 -0.459113
O49   O     O_R   0.670140 0.410570 0.329080 -0.559206
O50   O     O_R   0.329860 0.410570 0.670920 -0.503121
O51   O     O_R   0.170140 0.910570 0.329080 -0.559265
O52   O     O_R   0.829860 0.910570 0.670920 -0.503271
Cl1   Cl    Cl    0.535841 0.899054 0.067792 -0.644677
Cl2   Cl    Cl    0.464251 0.898974 0.932084 -0.645886
Cl3   Cl    Cl    0.035844 0.399056 0.067790 -0.644670
Cl4   Cl    Cl    0.964248 0.398976 0.932086 -0.645880
Cl5   Cl    Cl    0.658824 0.003416 0.609707 -0.614124
Cl6   Cl    Cl    0.362476 0.753896 0.430158 -0.667757
Cl7   Cl    Cl    0.159154 0.504132 0.609795 -0.613995
Cl8   Cl    Cl    0.862493 0.253941 0.430148 -0.667732
C105  C     C_3   0.634475 0.817010 0.919578 -0.215568
C106  C     C_3   0.608146 0.897422 0.856779 -0.229507
C107  C     C_3   0.567330 0.821069 0.802439 -0.364656
H33   H     H_    0.602642 0.758070 0.774312 0.156815
H34   H     H_    0.526895 0.764744 0.827962 0.192129
H35   H     H_    0.542498 0.882853 0.762934 0.186556
H36   H     H_    0.577787 0.974742 0.876110 0.198595
H37   H     H_    0.649214 0.946080 0.828063 0.173657
H38   H     H_    0.649605 0.725549 0.900319 0.171135
H39   H     H_    0.591460 0.796865 0.955283 0.241019
C108  C     C_3   0.365369 0.817717 0.080291 -0.209436
C109  C     C_3   0.391676 0.898738 0.142915 -0.236490
C110  C     C_3   0.432096 0.822969 0.197655 -0.375503
H40   H     H_    0.472481 0.766345 0.172481 0.196026
H41   H     H_    0.456916 0.885118 0.237073 0.171259
H42   H     H_    0.396458 0.760386 0.225820 0.160249
H43   H     H_    0.422294 0.975805 0.123447 0.198545
H44   H     H_    0.350605 0.947680 0.171307 0.149507
H45   H     H_    0.350289 0.726220 0.099701 0.171888
H46   H     H_    0.408351 0.797713 0.044597 0.240520
C111  C     C_3   0.134478 0.316999 0.919581 -0.215569
C112  C     C_3   0.108144 0.397408 0.856783 -0.229485
C113  C     C_3   0.067325 0.321050 0.802446 -0.364724
H47   H     H_    0.102636 0.258052 0.774318 0.156747
H48   H     H_    0.026894 0.264725 0.827974 0.192161
H49   H     H_    0.042490 0.382832 0.762943 0.186458
H50   H     H_    0.077786 0.474728 0.876115 0.198608
H51   H     H_    0.149210 0.446066 0.828063 0.173688
H52   H     H_    0.149610 0.225539 0.900321 0.171144
H53   H     H_    0.091463 0.296850 0.955287 0.241015
C114  C     C_3   0.865368 0.317709 0.080289 -0.209438
C115  C     C_3   0.891679 0.398726 0.142914 -0.236492
C116  C     C_3   0.932098 0.322951 0.197652 -0.375508
H54   H     H_    0.972482 0.266329 0.172477 0.196016
H55   H     H_    0.956920 0.385095 0.237071 0.171261
H56   H     H_    0.896461 0.260369 0.225815 0.160268
H57   H     H_    0.922298 0.475790 0.123447 0.198555
H58   H     H_    0.850609 0.447669 0.171308 0.149514
H59   H     H_    0.850286 0.226213 0.099699 0.171890
H60   H     H_    0.908350 0.297703 0.044596 0.240517
Cl9   Cl    Cl    0.862342 0.091714 0.921750 -0.652669
Cl10  Cl    Cl    0.137772 0.091142 0.078109 -0.659400
Cl11  Cl    Cl    0.362341 0.591717 0.921749 -0.652645
Cl12  Cl    Cl    0.637775 0.591149 0.078112 -0.659386
C117  C     C_3   0.541075 0.377935 0.590288 -0.236513
C118  C     C_3   0.489214 0.482917 0.603561 -0.280339
C119  C     C_3   0.503570 0.546515 0.674220 -0.409311
H61   H     H_    0.497531 0.480678 0.718549 0.167088
H62   H     H_    0.556887 0.584691 0.675586 0.152996
H63   H     H_    0.466418 0.623095 0.681329 0.152584
H64   H     H_    0.491807 0.554116 0.561890 0.159859
H65   H     H_    0.435662 0.447148 0.602517 0.214056
H66   H     H_    0.558442 0.337037 0.641307 0.173825
H67   H     H_    0.589636 0.415445 0.568645 0.142369
C120  C     C_3   0.529541 0.409321 0.432976 -0.246252
C121  C     C_3   0.468620 0.453893 0.386900 -0.275962
C122  C     C_3   0.489369 0.563143 0.341204 -0.401494
H68   H     H_    0.508065 0.640432 0.374821 0.177557
H69   H     H_    0.530768 0.535995 0.304329 0.159151
H70   H     H_    0.443904 0.594729 0.309744 0.168212
H71   H     H_    0.448962 0.379505 0.351801 0.163116
H72   H     H_    0.425978 0.482732 0.421800 0.209338
H73   H     H_    0.541065 0.483423 0.470671 0.121747
H74   H     H_    0.577652 0.404964 0.403919 0.208665
C123  C     C_3   0.041126 0.877884 0.590332 -0.236450
C124  C     C_3   0.989282 0.982902 0.603577 -0.280426
C125  C     C_3   0.003699 0.046635 0.674186 -0.409436
H75   H     H_    0.997692 0.980877 0.718564 0.166945
H76   H     H_    0.057021 0.084807 0.675482 0.153100
H77   H     H_    0.966557 0.123236 0.681278 0.152529
H78   H     H_    0.991834 0.054014 0.561851 0.159855
H79   H     H_    0.935727 0.947136 0.602607 0.214078
H80   H     H_    0.058452 0.836976 0.641361 0.173902
H81   H     H_    0.089712 0.915352 0.568724 0.142450
C126  C     C_3   0.029677 0.909299 0.433027 -0.246277
C127  C     C_3   0.968784 0.954040 0.386970 -0.276041
C128  C     C_3   0.989597 0.063312 0.341322 -0.401505
H82   H     H_    0.008341 0.140521 0.374973 0.177426
H83   H     H_    0.030978 0.036138 0.304433 0.159271
H84   H     H_    0.944152 0.095029 0.309879 0.168203
H85   H     H_    0.949087 0.879732 0.351838 0.163173
H86   H     H_    0.926162 0.982918 0.421883 0.209292
H87   H     H_    0.041273 0.983358 0.470727 0.121701
H88   H     H_    0.077774 0.904833 0.403965 0.208750

loop_
_geom_bond_atom_site_label_1
_geom_bond_atom_site_label_2
_ccdc_geom_bond_type
C117  H67   S    
C58   C62   A    
Cr7   O31   S    
C62   C83   S    
C119  H62   S    
C108  H45   S    
C101  C102  A    
Cr2   O2    S    
C48   C95   S    
C55   C59   A    
Cr6   O50   S    
C77   O37   A    
C14   C18   A    
Cr5   O49   S    
C125  H75   S    
C42   C50   A    
C48   O32   A    
C6    H14   S    
C71   H11   S    
Cr3   O47   S    
C97   C98   A    
C45   O33   A    
C120  C121  S    
Cr2   O46   S    
C71   C75   A    
C55   H3    S    
C84   O52   A    
Cr1   O45   S    
C41   C86   S    
Cr12  O40   S    
C1    O25   A    
C121  H71   S    
C57   C61   A    
Cr1   O21   S    
C72   H12   S    
Cr7   O27   S    
C105  H39   S    
Cr2   O18   S    
C127  C128  S    
C125  H76   S    
C114  C115  S    
Cr12  O12   S    
C128  H84   S    
C17   C105  S    
C75   C91   S    
C81   O49   A    
C117  C118  S    
C66   Cl6   S    
Cr5   O25   S    
Cr10  O14   S    
C65   Cl5   S    
Cr6   O30   S    
C95   C99   A    
C106  H36   S    
Cr8   O20   S    
C29   C33   A    
Cr7   O7    S    
Cr11  O39   S    
C25   C29   A    
C114  H59   S    
C116  H54   S    
C4    O28   A    
C41   C49   A    
C37   C42   A    
C15   C35   A    
C46   O30   A    
Cr10  O10   S    
C27   Cl11  S    
C26   Cl10  S    
Cr7   O51   S    
C43   C51   A    
C54   C74   A    
C25   Cl9   S    
C106  C107  S    
C40   C43   A    
Cr9   O33   S    
C38   H30   S    
C20   C24   A    
C94   C101  A    
Cr1   O17   S    
C121  C122  S    
C89   O41   A    
C8    H16   S    
C47   O31   A    
C47   C96   S    
C69   C73   A    
C124  C125  S    
C23   C27   A    
C108  H46   S    
Cr4   O48   S    
C44   C87   S    
Cr5   O5    S    
C122  H68   S    
C67   C71   A    
C72   C76   A    
Cr8   O32   S    
C55   C75   A    
C70   H10   S    
C120  H73   S    
Cr4   O20   S    
C119  H63   S    
C127  H86   S    
Cr12  O36   S    
Cr4   O4    S    
C13   C33   A    
Cr11  O15   S    
C83   O47   A    
Cr2   O22   S    
C91   O15   A    
C51   C52   A    
C16   H24   S    
C85   O9    A    
C104  Cl4   S    
C45   C94   S    
C106  H37   S    
C89   O13   A    
C109  C110  S    
C111  C112  S    
Cr10  O18   S    
C15   H23   S    
C50   C120  S    
Cr6   O26   S    
C59   H7    S    
C68   Cl8   S    
Cr3   O19   S    
Cr9   O17   S    
C58   H6    S    
C82   O46   A    
C62   C66   A    
C63   C82   S    
C27   C31   A    
C124  H78   S    
C6    C98   A    
C14   H22   S    
C28   C32   A    
C125  H77   S    
C86   O10   A    
C68   C72   A    
C38   C41   A    
C47   O35   A    
C36   C80   S    
C77   O1    A    
C108  C109  S    
C48   O36   A    
C30   C34   A    
C19   C23   A    
C111  H53   S    
Cr3   O23   S    
C1    O21   A    
C7    C99   A    
C126  H87   S    
Cr10  O34   S    
Cr9   O13   S    
C115  H58   S    
C17   C21   A    
C56   C60   A    
Cr11  O11   S    
C114  H60   S    
C116  H55   S    
C13   H21   S    
C124  H79   S    
C37   C38   A    
C15   C19   A    
C28   Cl12  S    
C63   C67   A    
C70   C74   A    
C128  H82   S    
Cr6   O6    S    
C11   H19   S    
C110  H40   S    
C49   C117  S    
C93   C97   A    
C107  H33   S    
C46   O34   A    
C118  H65   S    
C16   C20   A    
C29   H25   S    
C123  H80   S    
C2    C23   S    
C54   C58   A    
C105  C106  S    
C80   O40   A    
C109  H44   S    
C112  H50   S    
C113  H48   S    
C42   C85   S    
C85   O5    A    
C112  H51   S    
C57   H5    S    
C19   C111  S    
Cr9   O37   S    
C37   H29   S    
Cr5   O17   S    
C2    O22   A    
C78   O38   A    
C26   C30   A    
C3    O27   A    
C120  H74   S    
Cr8   O28   S    
C76   C92   S    
C127  H85   S    
C69   H9    S    
C56   C76   A    
C54   H2    S    
C5    C11   A    
C22   C26   A    
C115  H57   S    
C18   C108  S    
C90   O14   A    
Cr7   O19   S    
C43   C88   S    
C111  H52   S    
C119  H61   S    
C88   O8    A    
C64   C68   A    
C113  H47   S    
C67   Cl7   S    
C95   C104  A    
C78   O2    A    
C24   C28   A    
C79   O3    A    
C12   H20   S    
C90   O42   A    
C117  H66   S    
C7    C9    A    
C21   C25   A    
C40   H32   S    
C121  H72   S    
C4    O24   A    
C107  H34   S    
C18   C22   A    
C93   C102  A    
C7    H15   S    
Cr12  O16   S    
C8    C10   A    
C53   C73   A    
C10   H18   S    
Cr11  O19   S    
C5    C97   A    
C3    C22   S    
C61   C84   S    
C53   C57   A    
C44   C52   A    
C14   C34   A    
Cr11  O35   S    
C11   C12   A    
C32   C36   A    
C82   O50   A    
C39   C44   A    
C56   H4    S    
C87   O7    A    
C45   O29   A    
C126  H88   S    
C110  H42   S    
C20   C114  S    
Cr1   O1    S    
C66   C70   A    
C59   C63   A    
C30   H26   S    
C79   O39   A    
C13   C17   A    
C33   C77   S    
C60   C64   A    
C116  H56   S    
C105  H38   S    
C126  C127  S    
C118  C119  S    
Cr4   O24   S    
C92   O16   A    
C102  Cl2   S    
Cr3   O3    S    
C73   C89   S    
C110  H41   S    
C122  H69   S    
C123  H81   S    
C99   C100  A    
C16   C36   A    
C52   C126  S    
C6    C12   A    
C4    C21   S    
Cr6   O18   S    
C3    O23   A    
C8    C100  A    
C86   O6    A    
C46   C93   S    
C91   O43   A    
C118  H64   S    
C84   O48   A    
C65   C69   A    
C74   C90   S    
C96   C100  A    
C31   C35   A    
C5    H13   S    
C115  C116  S    
Cr1   O41   S    
C87   O11   A    
C109  H43   S    
C9    C10   A    
C113  H49   S    
C53   H1    S    
C94   C98   A    
C88   O12   A    
C31   H27   S    
C112  C113  S    
C122  H70   S    
C103  Cl3   S    
C64   C81   S    
C32   H28   S    
C2    O26   A    
C81   O45   A    
Cr3   O43   S    
C39   C40   A    
C61   C65   A    
C107  H35   S    
C1    C24   S    
C128  H83   S    
C49   C50   A    
Cr8   O8    S    
C96   C103  A    
C39   H31   S    
C103  C104  A    
C60   H8    S    
Cr5   O29   S    
Cr2   O42   S    
Cr10  O38   S    
Cr12  O20   S    
C51   C123  S    
C101  Cl1   S    
C35   C79   S    
Cr9   O9    S    
C80   O4    A    
C83   O51   A    
Cr8   O52   S    
C34   C78   S    
C92   O44   A    
C9    H17   S    
Cr4   O44   S    
C123  C124  S    
