data_mof_unit_26817.cif
_audit_creation_date              2012-10-26T19:52:27-0400
_audit_creation_method            fapswitch 2.2
_symmetry_space_group_name_H-M    P1
_symmetry_Int_Tables_number       1
_space_group_crystal_system       triclinic
_cell_length_a                    9.569152
_cell_length_b                    10.82737
_cell_length_c                    13.437467
_cell_angle_alpha                 90.076629
_cell_angle_beta                  72.748091
_cell_angle_gamma                 89.694833
_cell_volume                      1329.57733727

loop_
_atom_site_label
_atom_site_type_symbol
_atom_type_description
_atom_site_fract_x
_atom_site_fract_y
_atom_site_fract_z
_atom_type_partial_charge
C1    C     C_R   0.500562 0.737486 0.497785 0.542424
C2    C     C_R   0.374483 0.466371 0.813834 -0.016259
C3    C     C_R   0.375347 0.936504 0.495680 0.008126
C4    C     C_R   0.422017 0.487594 0.699510 0.539310
C5    C     C_R   0.503816 0.870398 0.487481 -0.023348
C6    C     C_R   0.636602 0.934531 0.466271 -0.161858
C7    C     C_R   0.636336 0.063210 0.467443 -0.159565
C8    C     C_R   0.503452 0.128851 0.490600 0.001652
C9    C     C_R   0.374679 0.063941 0.499199 -0.043719
C10   C     C_3   0.230589 0.069900 0.582648 -0.237471
C11   C     C_3   0.229345 0.929686 0.578204 0.185688
C12   C     C_R   0.435825 0.468857 0.978156 0.017939
C13   C     C_R   0.961305 0.452073 0.417885 0.104228
C14   C     C_R   0.893423 0.562243 0.574035 -0.018861
C15   C     C_R   0.044025 0.563273 0.575141 0.391188
C16   C     C_R   0.500529 0.262281 0.499096 0.533197
C17   C     C_R   0.108088 0.452860 0.417557 0.160404
C18   C     C_3   0.135277 0.325541 0.374314 0.137434
C19   C     C_3   0.975119 0.323172 0.376695 -0.236445
C20   C     C_R   0.578061 0.497953 0.300220 0.542221
C21   C     C_R   0.788579 0.393666 0.031356 -0.135072
C22   C     C_R   0.621712 0.479905 0.187429 0.000219
C23   C     C_R   0.476630 0.444170 0.869565 -0.020720
C24   C     C_R   0.224084 0.470387 0.870181 0.268533
C25   C     C_R   0.182538 0.490537 0.977319 -0.124450
C26   C     C_R   0.286978 0.494719 0.030392 -0.171054
C27   C     C_3   0.124113 0.886241 0.441528 -0.098067
C28   C     C_3   0.980145 0.673168 0.734208 -0.086407
C29   C     C_3   0.281074 0.207527 0.240626 -0.131346
C30   C     C_3   0.117300 0.332313 0.787735 -0.097722
C31   C     C_R   0.544127 0.460445 0.030935 0.036363
C32   C     C_R   0.683323 0.409228 0.978794 0.051381
C33   C     C_R   0.714367 0.370451 0.875784 -0.140289
C34   C     C_R   0.613846 0.388972 0.821395 -0.136705
C35   C     C_R   0.517783 0.499231 0.134526 -0.106258
C36   C     C_R   0.758112 0.428740 0.135099 -0.152632
Cu1   Cu    Cu3+1 0.359330 0.500020 0.500010 1.026880
Cu2   Cu    Cu3+1 0.640670 0.499980 0.499990 0.915013
H1    H     H_    0.839105 0.411698 0.175211 0.121579
H2    H     H_    0.910364 0.257169 0.435005 0.095011
H3    H     H_    0.893145 0.351351 0.993226 0.125725
H4    H     H_    0.416637 0.544364 0.176173 0.134653
H5    H     H_    0.245959 0.508737 0.113436 0.146234
H6    H     H_    0.068213 0.502068 0.020150 0.127958
H7    H     H_    0.641776 0.351244 0.743466 0.146629
H8    H     H_    0.739646 0.885852 0.453328 0.137464
H9    H     H_    0.210246 0.820388 0.398168 0.141808
H10   H     H_    0.147445 0.981290 0.410068 0.090310
H11   H     H_    0.019747 0.856973 0.428941 0.121255
H12   H     H_    0.739159 0.110297 0.454644 0.124611
H13   H     H_    0.030967 0.711080 0.791883 0.152136
H14   H     H_    0.906428 0.597132 0.773273 0.129343
H15   H     H_    0.918338 0.749929 0.711607 0.121734
H16   H     H_    0.187914 0.144243 0.245725 0.095002
H17   H     H_    0.350288 0.171509 0.287739 0.126595
H18   H     H_    0.349714 0.210092 0.158068 0.148172
H19   H     H_    0.068121 0.270117 0.854324 0.082913
H20   H     H_    0.228428 0.297030 0.745648 0.107507
H21   H     H_    0.052600 0.326838 0.731765 0.129314
H22   H     H_    0.241070 0.105431 0.657629 0.075131
H23   H     H_    0.142933 0.114603 0.556617 0.132265
H24   H     H_    0.237793 0.886355 0.651233 0.137428
H25   H     H_    0.808605 0.610794 0.632168 0.123284
H26   H     H_    0.164649 0.260359 0.428880 0.109954
H27   H     H_    0.958573 0.317460 0.298399 0.139979
H28   H     H_    0.816176 0.324329 0.837138 0.106895
N1    N     N_R   0.852320 0.499070 0.499340 -0.271943
N2    N     N_R   0.148230 0.499110 0.499340 -0.254572
O1    O     O_R   0.381190 0.680360 0.500000 -0.457155
O2    O     O_3   0.092718 0.629837 0.647347 -0.480670
O3    O     O_3   0.231808 0.328297 0.271916 -0.564786
O4    O     O_3   0.116049 0.456220 0.821947 -0.552174
O5    O     O_R   0.618780 0.680320 0.499990 -0.507919
O6    O     O_R   0.323230 0.500000 0.650990 -0.407189
O7    O     O_R   0.560820 0.499960 0.650980 -0.529932
O8    O     O_R   0.381220 0.319680 0.500010 -0.518869
O9    O     O_R   0.618810 0.319640 0.500000 -0.515077
O10   O     O_R   0.439180 0.500040 0.349020 -0.482855
O11   O     O_R   0.676770 0.500000 0.349010 -0.504415
O12   O     O_3   0.107785 0.881940 0.549542 -0.547287

loop_
_geom_bond_atom_site_label_1
_geom_bond_atom_site_label_2
_ccdc_geom_bond_type
C27   H10   S    
Cu1   O6    S    
C30   H19   S    
Cu1   O1    S    
C10   H22   S    
C11   H24   S    
C7    C8    A    
C21   C36   A    
C22   C35   A    
C12   C23   A    
C1    C5    S    
C18   C19   S    
C5    C6    A    
C28   H13   S    
Cu2   O11   S    
C15   N2    A    
Cu1   N2    S    
C16   O9    A    
C35   H4    S    
C4    O7    A    
C8    C9    A    
C33   H28   S    
C14   N1    A    
C9    C10   S    
C4    O6    A    
C8    C16   S    
C19   H2    S    
C25   H6    S    
C26   H5    S    
C33   C34   A    
Cu2   O7    S    
C21   C32   A    
C13   C19   S    
C24   C25   A    
C27   O12   S    
C11   O12   S    
C29   H17   S    
C25   C26   A    
C1    O1    A    
C12   C26   A    
C2    C4    S    
Cu1   Cu2   S    
C3    C9    A    
C31   C32   A    
C23   C34   A    
C30   H21   S    
C17   C18   S    
C34   H7    S    
C21   H3    S    
Cu2   O9    S    
Cu1   O8    S    
C20   C22   S    
C12   C31   A    
C2    C24   A    
C31   C35   A    
C10   H23   S    
C24   O4    S    
C13   N1    A    
C27   H9    S    
C18   O3    S    
C15   O2    S    
C17   N2    A    
C6    H8    S    
C20   O11   A    
C16   O8    A    
C36   H1    S    
C28   O2    S    
C7    H12   S    
C3    C5    A    
C30   O4    S    
C28   H15   S    
C6    C7    A    
C29   H18   S    
C20   O10   A    
C22   C36   A    
Cu1   O10   S    
C13   C17   A    
C1    O5    A    
C32   C33   A    
C28   H14   S    
C18   H26   S    
C14   H25   S    
C30   H20   S    
C19   H27   S    
C3    C11   S    
C10   C11   S    
Cu2   N1    S    
C29   H16   S    
C2    C23   A    
C14   C15   A    
C27   H11   S    
C29   O3    S    
Cu2   O5    S    
