data_mof_unit_42644.cif
_audit_creation_date              2012-12-11T14:21:24-0500
_audit_creation_method            fapswitch 2.2
_symmetry_space_group_name_H-M    P1
_symmetry_Int_Tables_number       1
_space_group_crystal_system       triclinic
_cell_length_a                    11.461924
_cell_length_b                    11.657855
_cell_length_c                    19.529216
_cell_angle_alpha                 90.670343
_cell_angle_beta                  90.02048
_cell_angle_gamma                 59.444927
_cell_volume                      2246.96511445

loop_
_atom_site_label
_atom_site_type_symbol
_atom_type_description
_atom_site_fract_x
_atom_site_fract_y
_atom_site_fract_z
_atom_type_partial_charge
C1    C     C_R   0.641066 0.117339 0.599162 0.558875
C2    C     C_1   0.653609 0.149624 0.668534 0.001528
C3    C     C_R   0.693009 0.583797 0.206294 -0.009894
C4    C     C_R   0.614436 0.743379 0.597986 0.544173
C5    C     C_R   0.611484 0.554855 0.250722 -0.027803
C6    C     C_R   0.616543 0.573348 0.321960 0.016768
C7    C     C_R   0.751519 0.675462 0.301792 -0.130669
C8    C     C_R   0.759592 0.647715 0.233072 0.243833
C9    C     C_R   0.516799 0.518718 0.227756 -0.105843
C10   C     C_R   0.436832 0.497744 0.273924 -0.132138
C11   C     C_R   0.459223 0.496036 0.343631 -0.098508
C12   C     C_1   0.652740 0.683742 0.664129 -0.000213
C13   C     C_R   0.550866 0.530949 0.367732 -0.067301
C14   C     C_R   0.675705 0.645924 0.345602 -0.049964
C15   C     C_R   0.156822 0.203595 0.190863 -0.012442
C16   C     C_R   0.241015 0.145524 0.598060 0.544720
C17   C     C_R   0.139021 0.308724 0.235409 0.027188
C18   C     C_R   0.127179 0.295504 0.305997 0.018672
C19   C     C_R   0.229658 0.056466 0.287504 -0.157165
C20   C     C_R   0.211850 0.076134 0.217030 -0.186093
C21   C     C_R   0.136441 0.424876 0.212656 -0.066710
C22   C     C_R   0.100417 0.532081 0.256980 -0.099358
C23   C     C_1   0.126581 0.198957 0.859268 0.003517
C24   C     C_R   0.065394 0.526488 0.324442 -0.122140
C25   C     C_R   0.074206 0.410543 0.348429 -0.083354
C26   C     C_R   0.183875 0.165828 0.332852 0.000056
C27   C     C_R   0.684697 0.181420 0.197867 -0.000270
C28   C     C_R   0.619005 0.076050 0.394714 0.556692
C29   C     C_R   0.796444 0.090057 0.238839 0.024084
C30   C     C_R   0.773293 0.028235 0.293655 0.033483
C31   C     C_R   0.530422 0.182365 0.282241 -0.163468
C32   C     C_R   0.553020 0.218698 0.217923 -0.166153
C33   C     C_R   0.932442 0.052825 0.224878 -0.083431
C34   C     C_1   0.170727 0.171207 0.727581 -0.030789
C35   C     C_R   0.039970 0.934663 0.249508 -0.124521
C36   C     C_R   0.016283 0.862288 0.296473 -0.131393
C37   C     C_R   0.885384 0.907994 0.318752 -0.073192
C38   C     C_R   0.640311 0.092354 0.322155 -0.010662
C39   C     C_R   0.081509 0.231345 0.928638 0.537470
C40   C     C_R   0.623135 0.729138 0.406531 0.525602
C41   C     C_R   0.709732 0.545781 0.922388 0.560240
C42   C     C_R   0.707413 0.206863 0.930228 0.543552
C43   C     C_R   0.087939 0.235628 0.124051 0.522995
C44   C     C_R   0.709083 0.549391 0.133302 0.565021
C45   C     C_1   0.149768 0.182758 0.798833 -0.031002
C46   C     C_R   0.712417 0.213718 0.129531 0.520098
C47   C     C_R   0.242100 0.141286 0.401740 0.522508
C48   C     C_1   0.699293 0.580930 0.851587 0.000084
C49   C     C_1   0.674029 0.645153 0.722288 -0.029691
C50   C     C_1   0.689844 0.608938 0.791839 -0.031389
C51   C     C_3   0.728628 0.820346 0.167103 -0.005128
C52   C     C_3   0.795370 0.860954 0.112997 -0.327991
C53   C     C_1   0.194575 0.161871 0.667217 0.004402
C54   C     C_1   0.677486 0.191956 0.860821 -0.000087
C55   C     C_1   0.658658 0.167507 0.728964 -0.031306
C56   C     C_1   0.664986 0.181554 0.800311 -0.031546
Cr1   Cr    Cr6+3 0.404720 0.198220 0.499960 1.014991
Cr2   Cr    Cr6+3 0.698290 0.897110 0.500380 1.008068
Cr3   Cr    Cr6+3 0.396970 0.904720 0.499610 1.022584
Cr4   Cr    Cr6+3 0.926180 0.151990 0.028120 1.003240
Cr5   Cr    Cr6+3 0.921330 0.451820 0.027470 1.030732
Cr6   Cr    Cr6+3 0.626260 0.446870 0.028710 1.000101
H1    H     H_    0.793558 0.733662 0.319214 0.132479
H2    H     H_    0.877022 0.844842 0.355323 0.136178
H3    H     H_    0.495511 0.511871 0.175040 0.169519
H4    H     H_    0.360738 0.477095 0.255209 0.105324
H5    H     H_    0.402782 0.471427 0.379020 0.126989
H6    H     H_    0.564728 0.531754 0.422565 0.127140
H7    H     H_    0.281518 0.955476 0.306380 0.147881
H8    H     H_    0.168992 0.432042 0.161777 0.137779
H9    H     H_    0.240718 0.992646 0.182442 0.121516
H10   H     H_    0.690266 0.895476 0.209320 0.127600
H11   H     H_    0.640631 0.820126 0.142909 0.145115
H12   H     H_    0.098309 0.619754 0.238104 0.129732
H13   H     H_    0.833633 0.787103 0.070152 0.170059
H14   H     H_    0.720173 0.959834 0.092560 0.119540
H15   H     H_    0.881547 0.866001 0.135606 0.172576
H16   H     H_    0.034281 0.610520 0.358813 0.093768
H17   H     H_    0.047226 0.408723 0.401377 0.131082
H18   H     H_    0.427518 0.224873 0.301009 0.142549
H19   H     H_    0.955890 0.113361 0.193963 0.169776
H20   H     H_    0.467890 0.280902 0.185383 0.112537
H21   H     H_    0.142167 0.896375 0.232018 0.112535
H22   H     H_    0.100167 0.772236 0.317057 0.104034
O1    O     O_R   0.267740 0.231960 0.575440 -0.507157
O2    O     O_R   0.596130 0.579390 0.952730 -0.494889
O3    O     O_R   0.639060 0.321160 0.958670 -0.507087
O4    O     O_R   0.527280 0.186640 0.570530 -0.488537
O5    O     O_R   0.821240 0.124200 0.104370 -0.535223
O6    O     O_R   0.036890 0.167040 0.097840 -0.516391
O7    O     O_R   0.056180 0.349610 0.102880 -0.521158
O8    O     O_R   0.797660 0.564870 0.097950 -0.437255
O9    O     O_R   0.595880 0.584250 0.104270 -0.545599
O10   O     O_R   0.638830 0.325670 0.099150 -0.528536
O11   O     O_3   0.824590 0.350230 0.028100 -0.292121
O12   O     O_R   0.685970 0.784660 0.430010 -0.536162
O13   O     O_R   0.728090 0.003450 0.576380 -0.499216
O14   O     O_R   0.682970 0.789190 0.570490 -0.494859
O15   O     O_R   0.499290 0.771880 0.575530 -0.506325
O16   O     O_R   0.285330 0.030870 0.569730 -0.488848
O17   O     O_R   0.270980 0.227080 0.423890 -0.535476
O18   O     O_R   0.530280 0.182120 0.430050 -0.491985
O19   O     O_R   0.731330 0.998570 0.424830 -0.527183
O20   O     O_3   0.825151 0.693584 0.191988 -0.541716
O21   O     O_R   0.502530 0.767000 0.423990 -0.516021
O22   O     O_R   0.288330 0.026350 0.429250 -0.496152
O23   O     O_3   0.499990 0.000020 0.499980 -0.267640
O24   O     O_R   0.821500 0.119340 0.952830 -0.500245
O25   O     O_R   0.037130 0.162530 0.957360 -0.490016
O26   O     O_R   0.056440 0.344740 0.951340 -0.514318
O27   O     O_R   0.797900 0.560360 0.957470 -0.489248

loop_
_geom_bond_atom_site_label_1
_geom_bond_atom_site_label_2
_ccdc_geom_bond_type
C55   C56   S    
C47   O17   A    
C4    O14   A    
C27   C29   A    
Cr3   O15   S    
C19   C20   A    
Cr2   O14   S    
Cr2   O13   S    
C52   H13   S    
C12   C49   T    
C7    C8    A    
C46   O5    A    
Cr4   O5    S    
C41   O2    A    
Cr6   O2    S    
Cr3   O21   S    
C23   C45   T    
C36   C37   A    
C1    C2    S    
C2    C55   T    
C5    C6    A    
C29   C33   A    
C7    C14   A    
C30   C38   A    
Cr2   O23   S    
C19   C26   A    
Cr2   O12   S    
C16   C53   S    
C44   O9    A    
C39   O26   A    
C35   C36   A    
C18   C26   A    
C20   H9    S    
Cr4   O25   S    
C4    C12   S    
C9    C10   A    
Cr4   O24   S    
Cr5   O8    S    
C1    O4    A    
C48   C50   T    
Cr6   O11   S    
Cr3   O16   S    
C18   C25   A    
C40   O12   A    
Cr5   O26   S    
C11   H5    S    
C9    H3    S    
C10   H4    S    
C15   C20   A    
C54   C56   T    
C3    C44   S    
Cr3   O22   S    
C51   C52   S    
C43   O6    A    
C31   H18   S    
C24   C25   A    
C3    C8    A    
C1    O13   A    
C35   H21   S    
C16   O16   A    
C52   H14   S    
C51   O20   S    
C43   O7    A    
C30   C37   A    
C5    C9    A    
C29   C30   A    
Cr1   O18   S    
C6    C14   A    
C31   C32   A    
C46   O10   A    
C28   C38   S    
C47   O22   A    
C17   C18   A    
C34   C45   S    
C8    O20   S    
C7    H1    S    
C26   C47   S    
C27   C46   S    
C24   H16   S    
Cr1   O23   S    
Cr6   O10   S    
C16   O1    A    
C22   C24   A    
C19   H7    S    
C51   H10   S    
C22   H12   S    
C52   H15   S    
Cr5   O27   S    
C37   H2    S    
Cr1   O17   S    
Cr1   O4    S    
C15   C17   A    
C27   C32   A    
C25   H17   S    
C51   H11   S    
C3    C5    A    
C44   O8    A    
Cr5   O11   S    
C42   O3    A    
Cr4   O6    S    
C32   H20   S    
Cr6   O3    S    
Cr6   O9    S    
C31   C38   A    
C21   H8    S    
C15   C43   S    
C42   C54   S    
C6    C13   A    
C11   C13   A    
C28   O19   A    
C33   H19   S    
C36   H22   S    
C23   C39   S    
C33   C35   A    
C41   C48   S    
Cr1   O1    S    
Cr3   O23   S    
C10   C11   A    
C14   C40   S    
Cr4   O11   S    
C28   O18   A    
C39   O25   A    
C34   C53   T    
C49   C50   S    
C41   O27   A    
C4    O15   A    
Cr2   O19   S    
C21   C22   A    
C42   O24   A    
Cr5   O7    S    
C40   O21   A    
C13   H6    S    
C17   C21   A    
