data_mof_unit_7661.cif
_audit_creation_date              2012-12-10T19:45:16-0500
_audit_creation_method            fapswitch 2.2
_symmetry_space_group_name_H-M    P1
_symmetry_Int_Tables_number       1
_space_group_crystal_system       triclinic
_cell_length_a                    15.001833
_cell_length_b                    14.224043
_cell_length_c                    10.727784
_cell_angle_alpha                 90.136417
_cell_angle_beta                  91.490686
_cell_angle_gamma                 89.634672
_cell_volume                      2288.33975061

loop_
_atom_site_label
_atom_site_type_symbol
_atom_type_description
_atom_site_fract_x
_atom_site_fract_y
_atom_site_fract_z
_atom_type_partial_charge
C1    C     C_R   0.327810 0.500249 0.502576 0.870216
C2    C     C_R   0.672146 0.499707 0.498427 0.881566
C3    C     C_R   0.047692 0.504450 0.501856 0.097775
C4    C     C_R   0.951989 0.504802 0.496540 0.093413
C5    C     C_R   0.540416 0.104739 0.403786 0.062682
C6    C     C_R   0.457959 0.106649 0.596802 0.058557
C7    C     C_R   0.538965 0.204155 0.406184 -0.073327
C8    C     C_R   0.460260 0.205842 0.593787 -0.045477
C9    C     C_R   0.498913 0.054175 0.500555 0.085210
C10   C     C_R   0.550032 0.897424 0.587407 -0.306551
C11   C     C_R   0.447500 0.897564 0.414510 -0.298115
C12   C     C_R   0.550281 0.797971 0.587435 0.285584
C13   C     C_R   0.448708 0.798110 0.413419 0.285698
C14   C     C_R   0.498404 0.948242 0.501196 0.100209
C15   C     C_R   0.501116 0.499773 0.262590 0.937226
C16   C     C_R   0.497168 0.500045 0.737290 0.929103
C17   C     C_2   0.491305 0.420477 0.932599 -0.168353
C18   C     C_2   0.486452 0.421556 0.066507 -0.164180
C19   C     C_2   0.485760 0.500480 0.868114 -0.340098
C20   C     C_2   0.507011 0.499148 0.131031 -0.328154
C21   C     C_R   0.093762 0.581529 0.457090 -0.181992
C22   C     C_R   0.905404 0.575740 0.557222 -0.176465
C23   C     C_R   0.185723 0.579752 0.459283 -0.252429
C24   C     C_R   0.813478 0.573223 0.557100 -0.252084
C25   C     C_R   0.231753 0.501260 0.507560 -0.057736
C26   C     C_R   0.768129 0.499682 0.496448 -0.063467
C27   C     C_R   0.185055 0.424783 0.557765 0.215527
C28   C     C_R   0.815175 0.428893 0.433092 0.207437
C29   C     C_R   0.092553 0.426535 0.552119 -0.251717
C30   C     C_R   0.907592 0.432474 0.433279 -0.243434
H1    H     H_    0.500039 0.352726 0.887323 0.165234
H2    H     H_    0.467752 0.356760 0.112251 0.165180
H3    H     H_    0.470442 0.567842 0.910196 0.151182
H4    H     H_    0.530554 0.563172 0.088704 0.146576
H5    H     H_    0.058459 0.641830 0.418217 0.139891
H6    H     H_    0.940297 0.631706 0.606349 0.140398
H7    H     H_    0.220745 0.639018 0.421025 0.154438
H8    H     H_    0.777871 0.627965 0.605942 0.149263
H9    H     H_    0.055467 0.368208 0.589311 0.135328
H10   H     H_    0.944853 0.378940 0.384335 0.138942
H11   H     H_    0.569643 0.243590 0.332796 0.148749
H12   H     H_    0.428978 0.246394 0.666157 0.144440
H13   H     H_    0.591032 0.935541 0.654895 0.148319
H14   H     H_    0.406178 0.935752 0.347166 0.144731
N1    N     N_R   0.500000 0.252470 0.500000 -0.110731
N2    N     N_R   0.500000 0.747550 0.500000 -0.127609
O1    O     O_R   0.369060 0.579480 0.500010 -0.653039
O2    O     O_R   0.630940 0.579480 0.499990 -0.651197
O3    O     O_R   0.369050 0.420520 0.500010 -0.583776
O4    O     O_R   0.630950 0.420520 0.499990 -0.588647
O5    O     O_R   0.500000 0.579460 0.319080 -0.628030
O6    O     O_R   0.500000 0.579460 0.680920 -0.627411
O7    O     O_R   0.499990 0.420500 0.319080 -0.620425
O8    O     O_R   0.500010 0.420500 0.680920 -0.624298
Zn1   Zn    Zn3+2 0.500000 0.606140 0.500000 0.920445
Zn2   Zn    Zn3+2 0.500000 0.393860 0.500000 0.950924
C31   C     C_3   0.608253 0.752177 0.687399 -0.375267
C32   C     C_3   0.567211 0.762668 0.815746 -0.883663
H15   H     H_    0.497954 0.735542 0.814281 0.273853
H16   H     H_    0.607537 0.722353 0.885783 0.244581
H17   H     H_    0.566058 0.837658 0.844760 0.245628
H18   H     H_    0.621458 0.677916 0.669314 0.255328
H19   H     H_    0.674985 0.785829 0.689600 0.167723
C33   C     C_3   0.390948 0.752484 0.313417 -0.376592
C34   C     C_3   0.431969 0.762263 0.185100 -0.879204
H20   H     H_    0.501301 0.734423 0.186449 0.274007
H21   H     H_    0.391741 0.722232 0.114960 0.245122
H22   H     H_    0.432932 0.837193 0.156324 0.245047
H23   H     H_    0.377849 0.678436 0.331604 0.255750
H24   H     H_    0.324079 0.786739 0.311154 0.166438
N3    N     N_2   0.230111 0.347274 0.615661 -0.291819
H25   H     H_    0.196584 0.284419 0.606416 0.213774
C35   C     C_3   0.259116 0.364793 0.743263 -0.767121
H26   H     H_    0.200539 0.377394 0.802558 0.229993
H27   H     H_    0.303790 0.426692 0.748737 0.243195
H28   H     H_    0.296503 0.302725 0.779901 0.224826
N4    N     N_2   0.770119 0.357647 0.363422 -0.298806
H29   H     H_    0.790615 0.353681 0.272494 0.216034
C36   C     C_3   0.771774 0.266449 0.422730 -0.774817
H30   H     H_    0.733342 0.216134 0.363845 0.234888
H31   H     H_    0.841373 0.239869 0.433493 0.221036
H32   H     H_    0.740958 0.270458 0.515663 0.263073
C37   C     C_3   0.586083 0.055817 0.296756 -0.415733
C38   C     C_3   0.672239 0.005925 0.338873 -0.853803
H33   H     H_    0.713610 0.052231 0.400030 0.253771
H34   H     H_    0.657846 0.940241 0.389567 0.266896
H35   H     H_    0.711232 0.986708 0.255907 0.243100
H36   H     H_    0.540209 0.004905 0.250536 0.210116
H37   H     H_    0.603369 0.107760 0.224082 0.190803
C39   C     C_3   0.408897 0.059922 0.701299 -0.418809
C40   C     C_3   0.316245 0.028312 0.657424 -0.848105
H38   H     H_    0.276740 0.089477 0.622138 0.253412
H39   H     H_    0.320762 0.974801 0.582445 0.262965
H40   H     H_    0.281017 0.996813 0.736765 0.243888
H41   H     H_    0.447410 0.999229 0.739383 0.213930
H42   H     H_    0.400905 0.109702 0.780386 0.189062

loop_
_geom_bond_atom_site_label_1
_geom_bond_atom_site_label_2
_ccdc_geom_bond_type
O2    Zn1   S    
C27   C29   A    
C35   H26   S    
C38   H35   S    
C6    C9    A    
C39   C40   S    
C39   H41   S    
N4    H29   S    
C7    N1    A    
O1    Zn1   S    
C24   C26   A    
C13   N2    A    
C5    C37   S    
C11   C14   A    
C32   H16   S    
C3    C29   A    
C8    N1    A    
C2    O4    A    
N1    Zn2   S    
C34   H21   S    
N2    Zn1   S    
C24   H8    S    
C33   H24   S    
C18   C20   D    
O6    Zn1   S    
C20   H4    S    
C32   H17   S    
C23   C25   A    
C37   H36   S    
C1    C25   S    
C35   H27   S    
C31   H19   S    
N4    C36   S    
C15   C20   S    
C37   H37   S    
O8    Zn2   S    
C31   H18   S    
C38   H33   S    
C12   N2    A    
C10   C14   A    
C40   H38   S    
C36   H31   S    
C1    O1    A    
C6    C8    A    
C2    O2    A    
C32   H15   S    
C23   H7    S    
O4    Zn2   S    
C9    C14   S    
C5    C9    A    
C40   H39   S    
C4    C22   A    
C37   C38   S    
C34   H22   S    
C29   H9    S    
C17   C18   S    
C30   H10   S    
C11   H14   S    
C2    C26   S    
C33   H23   S    
C28   N4    S    
C10   C12   A    
C12   C31   S    
C15   O5    A    
C21   C23   A    
C19   H3    S    
C17   H1    S    
C35   H28   S    
C22   C24   A    
C3    C21   A    
C18   H2    S    
C3    C4    S    
C15   O7    A    
C27   N3    S    
C5    C7    A    
O7    Zn2   S    
C10   H13   S    
C16   O6    A    
C8    H12   S    
C36   H32   S    
C39   H42   S    
C21   H5    S    
C25   C27   A    
O3    Zn2   S    
C22   H6    S    
C26   C28   A    
C33   C34   S    
C28   C30   A    
N3    H25   S    
C6    C39   S    
C40   H40   S    
C11   C13   A    
C31   C32   S    
C13   C33   S    
C16   C19   S    
C17   C19   D    
O5    Zn1   S    
C7    H11   S    
C16   O8    A    
C36   H30   S    
C34   H20   S    
N3    C35   S    
C38   H34   S    
C1    O3    A    
C4    C30   A    
