data_mof_unit_45378.cif
_audit_creation_date              2012-12-11T20:50:49-0500
_audit_creation_method            fapswitch 2.2
_symmetry_space_group_name_H-M    P1
_symmetry_Int_Tables_number       1
_space_group_crystal_system       triclinic
_cell_length_a                    30.109592
_cell_length_b                    34.882252
_cell_length_c                    8.54101
_cell_angle_alpha                 90.000138
_cell_angle_beta                  90.726228
_cell_angle_gamma                 89.835403
_cell_volume                      8969.78300211

loop_
_atom_site_label
_atom_site_type_symbol
_atom_type_description
_atom_site_fract_x
_atom_site_fract_y
_atom_site_fract_z
_atom_type_partial_charge
Ba1   Ba    Ba6+2 0.999930 0.472870 0.844940 1.663216
Ba2   Ba    Ba6+2 0.999930 0.527130 0.344940 1.654011
Ba3   Ba    Ba6+2 0.499930 0.972870 0.844940 1.663319
Ba4   Ba    Ba6+2 0.499930 0.027130 0.344940 1.653901
C1    C     C_3   0.031543 0.295550 0.684582 -0.286714
C2    C     C_3   0.035842 0.704205 0.087692 -0.304916
C3    C     C_3   0.531610 0.795571 0.684353 -0.286887
C4    C     C_3   0.535845 0.204205 0.087657 -0.304915
C5    C     C_R   0.226780 0.705808 0.176629 -0.031940
C6    C     C_R   0.250519 0.300199 0.511966 -0.040663
C7    C     C_R   0.726768 0.205812 0.176693 -0.031874
C8    C     C_R   0.750498 0.800225 0.512441 -0.040694
C9    C     C_R   0.191547 0.680089 0.141042 0.595337
C10   C     C_R   0.218114 0.328680 0.475665 0.607838
C11   C     C_R   0.691541 0.180087 0.141086 0.595354
C12   C     C_R   0.718086 0.828703 0.476134 0.607927
C13   C     C_R   0.176472 0.712858 0.902352 0.598552
C14   C     C_R   0.159661 0.283855 0.522668 0.587311
C15   C     C_R   0.676436 0.212880 0.902398 0.598515
C16   C     C_R   0.659656 0.783813 0.522299 0.587279
C17   C     C_R   0.211880 0.739039 0.932134 -0.095438
C18   C     C_R   0.191111 0.254693 0.563427 -0.081549
C19   C     C_R   0.711833 0.239070 0.932199 -0.095499
C20   C     C_R   0.691112 0.754654 0.563044 -0.081573
C21   C     C_R   0.236875 0.735493 0.072264 -0.092275
C22   C     C_R   0.237074 0.263393 0.559577 -0.094327
C23   C     C_R   0.736840 0.235513 0.072340 -0.092255
C24   C     C_R   0.737065 0.763391 0.559636 -0.094334
C25   C     C_R   0.251518 0.702726 0.316913 -0.058857
C26   C     C_R   0.296145 0.307967 0.501703 -0.053540
C27   C     C_R   0.751515 0.202723 0.316999 -0.058862
C28   C     C_R   0.796118 0.808029 0.502609 -0.053425
C29   C     C_R   0.786632 0.227957 0.353347 0.055194
C30   C     C_R   0.828722 0.780270 0.539239 0.049370
C31   C     C_R   0.286648 0.727948 0.353216 0.055137
C32   C     C_R   0.328744 0.280200 0.538315 0.049439
C33   C     C_R   0.796755 0.258644 0.248917 0.003883
C34   C     C_R   0.815771 0.743077 0.592355 -0.006886
C35   C     C_R   0.296785 0.758626 0.248811 0.003933
C36   C     C_R   0.315782 0.243042 0.591865 -0.006900
C37   C     C_R   0.770210 0.263032 0.112545 -0.068284
C38   C     C_R   0.769652 0.735230 0.603658 -0.066810
C39   C     C_R   0.270255 0.763004 0.112437 -0.068252
C40   C     C_R   0.269658 0.235229 0.603580 -0.066816
C41   C     C_R   0.221818 0.769992 0.829450 0.396566
C42   C     C_R   0.178284 0.217303 0.612186 0.394308
C43   C     C_R   0.721743 0.270043 0.829541 0.396536
C44   C     C_R   0.678298 0.717234 0.611362 0.394329
C45   C     C_3   0.994673 0.317906 0.140375 0.696295
C46   C     C_3   0.012198 0.689674 0.596928 0.666332
C47   C     C_3   0.494684 0.817889 0.140255 0.696130
C48   C     C_3   0.512205 0.189671 0.596877 0.666311
C49   C     C_R   0.751860 0.298363 0.876402 -0.045163
C50   C     C_R   0.710233 0.691133 0.665731 -0.050995
C51   C     C_R   0.251960 0.798298 0.876225 -0.045220
C52   C     C_R   0.210227 0.191200 0.666475 -0.051017
C53   C     C_R   0.776330 0.295367 0.017267 -0.089702
C54   C     C_R   0.755827 0.699354 0.661190 -0.096358
C55   C     C_R   0.276410 0.795317 0.017091 -0.089796
C56   C     C_R   0.255830 0.199387 0.661496 -0.096323
C57   C     C_R   0.805949 0.324716 0.065355 0.601790
C58   C     C_R   0.787703 0.672132 0.712835 0.596137
C59   C     C_R   0.306045 0.824659 0.065098 0.601730
C60   C     C_R   0.287714 0.172166 0.713102 0.596082
C61   C     C_R   0.832031 0.285342 0.276053 0.575273
C62   C     C_R   0.846854 0.713445 0.635135 0.591682
C63   C     C_R   0.332064 0.785322 0.275968 0.575289
C64   C     C_R   0.346861 0.213408 0.634674 0.591689
C65   C     C_2   0.116492 0.648058 0.798905 -0.104577
C66   C     C_2   0.114235 0.347814 0.306607 -0.135752
C67   C     C_2   0.616498 0.148057 0.798893 -0.104628
C68   C     C_2   0.614215 0.847801 0.306662 -0.135496
C69   C     C_3   0.077650 0.624680 0.777304 -0.002434
C70   C     C_3   0.077686 0.373912 0.282801 0.001007
C71   C     C_3   0.577658 0.124677 0.777284 -0.002335
C72   C     C_3   0.577676 0.873907 0.282837 0.001065
C73   C     C_1   0.103274 0.584380 0.992331 0.011377
C74   C     C_1   0.103492 0.413781 0.499804 0.049656
C75   C     C_1   0.603279 0.084378 0.992317 0.011341
C76   C     C_1   0.603482 0.913771 0.499859 0.049364
C77   C     C_2   0.136878 0.610086 0.032936 0.379477
C78   C     C_2   0.131349 0.384165 0.553062 0.361882
C79   C     C_2   0.636881 0.110086 0.032925 0.379456
C80   C     C_2   0.631320 0.884145 0.553147 0.361377
C81   C     C_2   0.140025 0.648247 0.945246 0.081450
C82   C     C_2   0.139902 0.350019 0.446461 0.173358
C83   C     C_2   0.640021 0.148250 0.945254 0.081363
C84   C     C_2   0.639872 0.850000 0.446541 0.173049
C85   C     C_R   0.873068 0.355130 0.408843 -0.108225
C86   C     C_R   0.880400 0.650749 0.896294 -0.099010
C87   C     C_R   0.373107 0.855104 0.408751 -0.108185
C88   C     C_R   0.380401 0.150753 0.896261 -0.098963
C89   C     C_3   0.018729 0.286247 0.234105 -0.356363
C90   C     C_3   0.995404 0.725924 0.512309 -0.281541
C91   C     C_3   0.518734 0.786198 0.233819 -0.356274
C92   C     C_3   0.495414 0.225921 0.512245 -0.281502
C93   C     C_R   0.903303 0.385344 0.465665 0.019753
C94   C     C_R   0.908956 0.619346 0.955542 -0.003571
C95   C     C_R   0.403332 0.885323 0.465602 0.019882
C96   C     C_R   0.408956 0.119350 0.955524 -0.003549
C97   C     C_R   0.901411 0.415005 0.207199 0.048962
C98   C     C_R   0.901205 0.585876 0.703582 0.036351
C99   C     C_R   0.401431 0.914998 0.207172 0.049062
C100  C     C_R   0.401215 0.085880 0.703564 0.036396
C101  C     C_R   0.880594 0.380809 0.151438 -0.131551
C102  C     C_R   0.877018 0.618626 0.648318 -0.159627
C103  C     C_R   0.380632 0.880798 0.151378 -0.131716
C104  C     C_R   0.377043 0.118635 0.648276 -0.159695
C105  C     C_R   0.863027 0.351895 0.253509 0.187921
C106  C     C_R   0.864488 0.649532 0.748001 0.243501
C107  C     C_R   0.363070 0.851872 0.253408 0.187915
C108  C     C_R   0.364499 0.149537 0.747952 0.243436
C109  C     C_2   0.083341 0.587325 0.845720 -0.285504
C110  C     C_2   0.087558 0.411197 0.346232 -0.233479
C111  C     C_2   0.583348 0.087322 0.845703 -0.285595
C112  C     C_2   0.587565 0.911190 0.346273 -0.233672
C113  C     C_3   0.156347 0.504340 0.989225 0.360678
C114  C     C_3   0.149569 0.507728 0.511148 0.328916
C115  C     C_3   0.656357 0.004348 0.989252 0.359563
C116  C     C_3   0.649445 0.007862 0.511287 0.329767
C117  C     C_3   0.204409 0.490936 0.014692 0.611579
C118  C     C_3   0.198734 0.498725 0.489117 0.614833
C119  C     C_3   0.704351 0.990792 0.014840 0.611896
C120  C     C_3   0.698690 0.999187 0.489298 0.614053
C121  C     C_3   0.833973 0.484846 0.953836 0.254915
C122  C     C_3   0.833348 0.512396 0.459955 0.287072
C123  C     C_3   0.333987 0.984851 0.953689 0.255262
C124  C     C_3   0.333383 0.012470 0.459625 0.287121
C125  C     C_3   0.807754 0.446559 0.963663 0.278703
C126  C     C_3   0.809875 0.551922 0.438018 0.238223
C127  C     C_3   0.307829 0.946521 0.962798 0.278570
C128  C     C_3   0.309887 0.051997 0.437866 0.238055
C129  C     C_3   0.012034 0.334812 0.648073 0.304565
C130  C     C_3   0.014441 0.664847 0.095247 0.324031
C131  C     C_3   0.512064 0.834823 0.647960 0.304425
C132  C     C_3   0.514442 0.164847 0.095217 0.323987
C133  C     C_R   0.910993 0.417922 0.361800 -0.199085
C134  C     C_R   0.913632 0.584867 0.856638 -0.217977
C135  C     C_R   0.411008 0.917910 0.361777 -0.199053
C136  C     C_R   0.413632 0.084869 0.856631 -0.217950
H1    H     H_    0.021411 0.354170 0.745940 0.113235
H2    H     H_    0.034732 0.646556 0.175460 0.083040
H3    H     H_    0.521471 0.854185 0.745784 0.113205
H4    H     H_    0.534735 0.146555 0.175425 0.083032
H5    H     H_    0.223434 0.514931 0.068753 0.119924
H6    H     H_    0.217391 0.507237 0.596969 0.049525
H7    H     H_    0.723379 0.014647 0.069723 0.120216
H8    H     H_    0.717272 0.007806 0.597216 0.049070
H9    H     H_    0.851475 0.484961 0.841189 0.106892
H10   H     H_    0.849994 0.505687 0.349148 0.097096
H11   H     H_    0.351537 0.985070 0.841166 0.107142
H12   H     H_    0.350095 0.005841 0.348893 0.097309
H13   H     H_    0.831811 0.423308 0.944524 0.130356
H14   H     H_    0.835486 0.573053 0.409365 0.110962
H15   H     H_    0.331941 0.923298 0.943952 0.130640
H16   H     H_    0.335495 0.073130 0.409164 0.110884
H17   H     H_    0.026609 0.345774 0.538030 -0.011530
H18   H     H_    0.014515 0.652347 0.975939 -0.024558
H19   H     H_    0.526587 0.845790 0.537846 -0.011472
H20   H     H_    0.514514 0.152347 0.975909 -0.024532
H21   H     H_    0.030175 0.276976 0.579327 0.141279
H22   H     H_    0.069613 0.701752 0.038063 0.127806
H23   H     H_    0.530165 0.776984 0.579156 0.141361
H24   H     H_    0.569613 0.201752 0.038005 0.127855
H25   H     H_    0.066450 0.298800 0.725343 0.141876
H26   H     H_    0.038749 0.716649 0.206680 0.115971
H27   H     H_    0.566543 0.798836 0.724746 0.141582
H28   H     H_    0.538758 0.216647 0.206646 0.115958
H29   H     H_    0.995293 0.271363 0.312920 0.096410
H30   H     H_    0.978260 0.745341 0.595347 0.114273
H31   H     H_    0.495303 0.771319 0.312669 0.096389
H32   H     H_    0.478264 0.245337 0.595267 0.114211
H33   H     H_    0.757232 0.322285 0.797921 0.153771
H34   H     H_    0.698997 0.663395 0.706225 0.147374
H35   H     H_    0.257362 0.822201 0.797697 0.153769
H36   H     H_    0.198981 0.163490 0.707298 0.147409
H37   H     H_    0.859646 0.335993 0.495475 0.130074
H38   H     H_    0.872022 0.674403 0.972581 0.082011
H39   H     H_    0.359685 0.835969 0.495377 0.130175
H40   H     H_    0.372014 0.174404 0.972545 0.081986
H41   H     H_    0.243770 0.680027 0.398741 0.115712
H42   H     H_    0.306639 0.336137 0.463732 0.123689
H43   H     H_    0.743786 0.180013 0.398832 0.115680
H44   H     H_    0.806598 0.836227 0.464975 0.123791
H45   H     H_    0.127323 0.664702 0.699930 0.151757
H46   H     H_    0.120330 0.324965 0.223191 0.094997
H47   H     H_    0.627335 0.164701 0.699918 0.151690
H48   H     H_    0.620321 0.824964 0.223209 0.095048
H49   H     H_    0.876878 0.377565 0.027529 0.155407
H50   H     H_    0.866018 0.619984 0.528258 0.097903
H51   H     H_    0.376931 0.877564 0.027474 0.155604
H52   H     H_    0.366059 0.120000 0.528203 0.097986
H53   H     H_    0.012750 0.281468 0.779003 0.129318
H54   H     H_    0.015482 0.723609 0.012570 0.152380
H55   H     H_    0.512903 0.781498 0.778994 0.129396
H56   H     H_    0.515481 0.223610 0.012553 0.152375
H57   H     H_    0.033355 0.264763 0.153568 0.108455
H58   H     H_    0.971899 0.718291 0.415978 0.130405
H59   H     H_    0.533320 0.764719 0.153172 0.108415
H60   H     H_    0.471915 0.218287 0.415895 0.130504
H61   H     H_    0.045702 0.298521 0.307142 0.112404
H62   H     H_    0.023670 0.741843 0.461543 0.093660
H63   H     H_    0.545735 0.798445 0.306802 0.112596
H64   H     H_    0.523682 0.241842 0.461505 0.093656
H65   H     H_    0.138098 0.481091 0.930921 0.072340
H66   H     H_    0.146535 0.539142 0.527957 -0.025506
H67   H     H_    0.638058 0.981186 0.930645 0.072841
H68   H     H_    0.646164 0.039248 0.528300 -0.026047
H69   H     H_    0.157529 0.530096 0.913163 -0.076327
H70   H     H_    0.130146 0.500545 0.406848 0.056820
H71   H     H_    0.657656 0.030144 0.913500 -0.075583
H72   H     H_    0.630115 0.000580 0.406892 0.056760
N1    N     N_R   0.170457 0.680140 0.994464 -0.423140
N2    N     N_R   0.173235 0.320477 0.483076 -0.433242
N3    N     N_R   0.670442 0.180148 0.994499 -0.423173
N4    N     N_R   0.673214 0.820461 0.483134 -0.433235
N5    N     N_R   0.833850 0.320265 0.195880 -0.416731
N6    N     N_R   0.832610 0.678667 0.694755 -0.419173
N7    N     N_R   0.333907 0.820234 0.195736 -0.416649
N8    N     N_R   0.332619 0.178670 0.694685 -0.419212
O1    O     O_2   0.914200 0.445720 0.903420 -0.487372
O2    O     O_2   0.914200 0.554280 0.403420 -0.479829
O3    O     O_2   0.414200 0.945720 0.903420 -0.487431
O4    O     O_2   0.414200 0.054280 0.403420 -0.479968
O5    O     O_3   0.134563 0.489524 0.646510 -0.670586
O6    O     O_3   0.135993 0.511374 0.133625 -0.623673
O7    O     O_3   0.634584 0.989504 0.646503 -0.670640
O8    O     O_3   0.635975 0.011357 0.133621 -0.623837
O9    O     O_3   0.023565 0.331869 0.023177 -0.607807
O10   O     O_3   0.033776 0.666226 0.485195 -0.597302
O11   O     O_3   0.523575 0.831875 0.023103 -0.607762
O12   O     O_3   0.533794 0.166225 0.485165 -0.597304
O13   O     O_3   0.049930 0.518940 0.045960 -0.515423
O14   O     O_3   0.049930 0.481060 0.545960 -0.517688
O15   O     O_3   0.549930 0.018940 0.045960 -0.515359
O16   O     O_3   0.549930 0.981060 0.545960 -0.517814
O17   O     O_2   0.178566 0.658866 0.244309 -0.551168
O18   O     O_2   0.229912 0.360757 0.436827 -0.553187
O19   O     O_2   0.678570 0.158855 0.244348 -0.551229
O20   O     O_2   0.729875 0.860804 0.437654 -0.552824
O21   O     O_2   0.149207 0.721135 0.801405 -0.583032
O22   O     O_2   0.120049 0.276875 0.524428 -0.610893
O23   O     O_2   0.649159 0.221162 0.801458 -0.582946
O24   O     O_2   0.620052 0.776800 0.523709 -0.610853
O25   O     O_2   0.805983 0.354448 0.990758 -0.616459
O26   O     O_2   0.775400 0.642655 0.776022 -0.600844
O27   O     O_2   0.306129 0.854364 0.990314 -0.616723
O28   O     O_2   0.275423 0.142718 0.776537 -0.600700
O29   O     O_2   0.861912 0.276800 0.367370 -0.613019
O30   O     O_2   0.886556 0.718577 0.620240 -0.635871
O31   O     O_2   0.361929 0.776787 0.367347 -0.613093
O32   O     O_2   0.386561 0.218508 0.619461 -0.635835
O33   O     O_3   0.950020 0.480960 0.143730 -0.484187
O34   O     O_3   0.950020 0.519040 0.643730 -0.493796
O35   O     O_3   0.450020 0.980960 0.143730 -0.484238
O36   O     O_3   0.450020 0.019040 0.643730 -0.493819
O37   O     O_3   0.985090 0.412220 0.642040 -0.513740
O38   O     O_3   0.985090 0.587780 0.142040 -0.508589
O39   O     O_3   0.485090 0.912220 0.642040 -0.513739
O40   O     O_3   0.485090 0.087780 0.142040 -0.508583
O41   O     O_2   0.917484 0.379282 0.789110 -0.479611
O42   O     O_2   0.916628 0.620962 0.283992 -0.468010
O43   O     O_2   0.417475 0.879289 0.789040 -0.479525
O44   O     O_2   0.416628 0.120965 0.283973 -0.468013
O45   O     O_3   0.864640 0.490567 0.079287 -0.665720
O46   O     O_3   0.864387 0.510118 0.586021 -0.675199
O47   O     O_3   0.364600 0.990526 0.079339 -0.665990
O48   O     O_3   0.364358 0.010145 0.585868 -0.675073
O49   O     O_3   0.965704 0.331731 0.631653 -0.601056
O50   O     O_3   0.970884 0.668528 0.150731 -0.595047
O51   O     O_3   0.465731 0.831726 0.631783 -0.600982
O52   O     O_3   0.470887 0.168529 0.150714 -0.595053
O53   O     O_2   0.085560 0.445380 0.786390 -0.431753
O54   O     O_2   0.085560 0.554620 0.286390 -0.435832
O55   O     O_2   0.585560 0.945380 0.786390 -0.431576
O56   O     O_2   0.585560 0.054620 0.286390 -0.435901
O57   O     O_3   0.014550 0.412170 0.047860 -0.429640
O58   O     O_3   0.014550 0.587830 0.547860 -0.483344
O59   O     O_3   0.514550 0.912170 0.047860 -0.429694
O60   O     O_3   0.514550 0.087830 0.547860 -0.483390
O61   O     O_2   0.087729 0.378583 0.950461 -0.463088
O62   O     O_2   0.093332 0.612416 0.457008 -0.443788
O63   O     O_2   0.587738 0.878593 0.950507 -0.462900
O64   O     O_2   0.593340 0.112405 0.457014 -0.443882
P1    P     P_3+3 0.909970 0.458430 0.077330 0.946722
P2    P     P_3+3 0.909970 0.541570 0.577330 0.939767
P3    P     P_3+3 0.409970 0.958430 0.077330 0.946622
P4    P     P_3+3 0.409970 0.041570 0.577330 0.939674
P5    P     P_3+3 0.089830 0.458070 0.612460 1.010887
P6    P     P_3+3 0.089830 0.541930 0.112460 1.015842
P7    P     P_3+3 0.589830 0.958070 0.612460 1.010841
P8    P     P_3+3 0.589830 0.041930 0.112460 1.015902
P9    P     P_3+3 0.051926 0.373922 0.077826 1.032132
P10   P     P_3+3 0.055350 0.623771 0.568186 0.994487
P11   P     P_3+3 0.551928 0.873926 0.077839 1.032241
P12   P     P_3+3 0.555357 0.123768 0.568172 0.994399
P13   P     P_3+3 0.944428 0.624041 0.133631 0.966496
P14   P     P_3+3 0.942285 0.377779 0.632486 0.972499
P15   P     P_3+3 0.444429 0.124043 0.133615 0.966484
P16   P     P_3+3 0.442298 0.877769 0.632469 0.972626
O65   O     O_3   0.205875 0.458680 0.112875 -0.692237
H73   H     H_    0.237390 0.455347 0.145194 0.341275
O66   O     O_3   0.215041 0.519184 0.360976 -0.725975
H74   H     H_    0.218151 0.546285 0.394760 0.290515
O67   O     O_3   0.705612 0.958364 0.111924 -0.692839
H75   H     H_    0.737020 0.955324 0.147193 0.340877
O68   O     O_3   0.714820 0.019774 0.361217 -0.726849
H76   H     H_    0.717644 0.046905 0.395002 0.291240
O69   O     O_3   0.223967 0.482090 0.870873 -0.770027
H77   H     H_    0.209346 0.458470 0.830605 0.347057
O70   O     O_3   0.204136 0.459331 0.463440 -0.678186
H78   H     H_    0.236579 0.454292 0.466837 0.336999
O71   O     O_3   0.724032 0.982157 0.871086 -0.769116
H79   H     H_    0.709440 0.958641 0.830083 0.347858
O72   O     O_3   0.704437 0.959829 0.463525 -0.678541
H80   H     H_    0.736930 0.954988 0.467198 0.336078
C137  C     C_3   0.802904 0.519558 0.949300 -0.319270
H81   H     H_    0.822631 0.546406 0.946817 0.126822
H82   H     H_    0.781119 0.518674 0.844442 0.076354
H83   H     H_    0.781485 0.520169 0.053047 0.170037
C138  C     C_3   0.799599 0.480475 0.488289 -0.346634
H84   H     H_    0.773420 0.479703 0.396874 0.087495
H85   H     H_    0.816819 0.452266 0.491672 0.117871
H86   H     H_    0.783204 0.484716 0.601980 0.157416
C139  C     C_3   0.302872 0.019535 0.949418 -0.319448
H87   H     H_    0.322564 0.046408 0.947094 0.126889
H88   H     H_    0.281076 0.018681 0.844567 0.076595
H89   H     H_    0.281470 0.020096 0.053233 0.169910
C140  C     C_3   0.299644 0.980518 0.487279 -0.346623
H90   H     H_    0.273729 0.979714 0.395096 0.087292
H91   H     H_    0.316860 0.952327 0.491443 0.118547
H92   H     H_    0.282977 0.984790 0.600308 0.157063
O73   O     O_3   0.776357 0.443285 0.841078 -0.726130
H93   H     H_    0.749598 0.458348 0.869116 0.307533
O74   O     O_3   0.781298 0.551562 0.306600 -0.742769
H94   H     H_    0.752538 0.540079 0.336826 0.309331
O75   O     O_3   0.276640 0.943270 0.839614 -0.726474
H95   H     H_    0.249798 0.958254 0.867313 0.307519
O76   O     O_3   0.281262 0.051659 0.306573 -0.742608
H96   H     H_    0.252546 0.040102 0.336833 0.309338
C141  C     C_3   0.786085 0.439566 0.122395 -0.345384
H97   H     H_    0.811767 0.439228 0.216078 0.067705
H98   H     H_    0.760705 0.461774 0.146384 0.092484
H99   H     H_    0.769058 0.411432 0.122483 0.176795
C142  C     C_3   0.785305 0.566507 0.582204 -0.365701
H100  H     H_    0.808258 0.568788 0.683750 0.111197
H101  H     H_    0.771470 0.595286 0.555448 0.172393
H102  H     H_    0.757090 0.547582 0.611638 0.105989
C143  C     C_3   0.285925 0.939418 0.120989 -0.345999
H103  H     H_    0.311470 0.938940 0.215079 0.068076
H104  H     H_    0.260557 0.961631 0.145012 0.092280
H105  H     H_    0.268857 0.911320 0.120218 0.177260
C144  C     C_3   0.285366 0.066552 0.582204 -0.365103
H106  H     H_    0.308349 0.068741 0.683728 0.110883
H107  H     H_    0.271606 0.095377 0.555720 0.172204
H108  H     H_    0.257112 0.047657 0.611541 0.105927
O77   O     O_3   0.203510 0.773435 0.681387 -0.688708
H109  H     H_    0.202879 0.747518 0.633861 0.324958
O78   O     O_3   0.134828 0.205163 0.610476 -0.689982
H110  H     H_    0.123009 0.209811 0.503295 0.333475
O79   O     O_3   0.703430 0.273493 0.681437 -0.688579
H111  H     H_    0.702831 0.247578 0.633849 0.324899
O80   O     O_3   0.634864 0.705055 0.609113 -0.689959
H112  H     H_    0.623125 0.709770 0.501889 0.333507
C145  C     C_3   0.810171 0.222707 0.509346 -0.328004
H113  H     H_    0.808697 0.249746 0.577930 0.140998
H114  H     H_    0.794583 0.200001 0.581353 0.077057
H115  H     H_    0.845249 0.214101 0.490952 0.165491
C146  C     C_3   0.876728 0.791978 0.522042 -0.329643
H116  H     H_    0.894302 0.789975 0.636842 0.149973
H117  H     H_    0.893197 0.773428 0.434394 0.150906
H118  H     H_    0.880058 0.822031 0.480911 0.093451
C147  C     C_3   0.310199 0.722687 0.509108 -0.328149
H119  H     H_    0.308750 0.749710 0.577710 0.141157
H120  H     H_    0.294610 0.699981 0.581038 0.077060
H121  H     H_    0.345257 0.714080 0.490654 0.165497
C148  C     C_3   0.376756 0.291863 0.520591 -0.329672
H122  H     H_    0.394404 0.289924 0.635290 0.149887
H123  H     H_    0.393148 0.273241 0.433006 0.150957
H124  H     H_    0.380097 0.321888 0.479090 0.093394
O81   O     O_3   0.174321 0.593753 0.100582 -0.697982
H125  H     H_    0.200717 0.607004 0.058849 0.301293
O82   O     O_3   0.152411 0.387992 0.696632 -0.678392
H126  H     H_    0.169060 0.364069 0.718853 0.311224
O83   O     O_3   0.674330 0.093755 0.100539 -0.697689
H127  H     H_    0.700724 0.107010 0.058801 0.301421
O84   O     O_3   0.652362 0.887961 0.696753 -0.677911
H128  H     H_    0.668974 0.864022 0.719030 0.311339
C149  C     C_3   0.929892 0.453233 0.434698 -0.217651
H129  H     H_    0.966224 0.454246 0.415762 0.137759
H130  H     H_    0.914171 0.478757 0.385115 0.106780
H131  H     H_    0.922599 0.454168 0.561445 0.140875
C150  C     C_3   0.928867 0.548683 0.934689 -0.215010
H132  H     H_    0.911345 0.523911 0.885316 0.110279
H133  H     H_    0.965137 0.545072 0.920698 0.125052
H134  H     H_    0.920153 0.548727 0.060372 0.144484
C151  C     C_3   0.429880 0.953226 0.434715 -0.217603
H135  H     H_    0.466213 0.954253 0.415824 0.137765
H136  H     H_    0.414153 0.978744 0.385120 0.106694
H137  H     H_    0.422573 0.954156 0.561452 0.140809
C152  C     C_3   0.428862 0.048686 0.934712 -0.215055
H138  H     H_    0.411356 0.023911 0.885319 0.110004
H139  H     H_    0.465134 0.045077 0.920777 0.125077
H140  H     H_    0.420130 0.048729 0.060380 0.144345
C153  C     C_3   0.070437 0.551371 0.757523 -0.218686
H141  H     H_    0.080723 0.552156 0.634389 0.129952
H142  H     H_    0.086816 0.525876 0.804958 0.094848
H143  H     H_    0.034150 0.546912 0.765669 0.128180
C154  C     C_3   0.099651 0.443294 0.239460 -0.297244
H144  H     H_    0.095512 0.437885 0.113341 0.146659
H145  H     H_    0.078569 0.468302 0.267189 0.112867
H146  H     H_    0.135388 0.449042 0.257514 0.181312
C155  C     C_3   0.570356 0.051370 0.757662 -0.218783
H147  H     H_    0.580513 0.052136 0.634416 0.130068
H148  H     H_    0.586792 0.025879 0.804900 0.094594
H149  H     H_    0.534074 0.046927 0.766166 0.128036
C156  C     C_3   0.599696 0.943277 0.239530 -0.296782
H150  H     H_    0.595655 0.937836 0.113383 0.146946
H151  H     H_    0.578571 0.968276 0.267024 0.112821
H152  H     H_    0.635415 0.949056 0.257858 0.180973
C157  C     C_3   0.954022 0.300463 0.056728 -0.284916
H153  H     H_    0.937706 0.322317 0.981115 0.151976
H154  H     H_    0.963786 0.275765 0.982821 0.077932
H155  H     H_    0.929448 0.290168 0.142899 0.100344
C158  C     C_3   0.971922 0.669502 0.667720 -0.178781
H156  H     H_    0.981379 0.643279 0.733066 -0.003651
H157  H     H_    0.955334 0.688835 0.752186 0.107601
H158  H     H_    0.948305 0.661374 0.572779 0.110942
C159  C     C_3   0.454022 0.800480 0.056548 -0.284720
H159  H     H_    0.437698 0.822364 0.981109 0.152009
H160  H     H_    0.463779 0.775817 0.982443 0.078014
H161  H     H_    0.429459 0.790149 0.142675 0.100205
C160  C     C_3   0.471925 0.169496 0.667625 -0.178691
H162  H     H_    0.481382 0.143284 0.733047 -0.003663
H163  H     H_    0.455312 0.188834 0.752012 0.107442
H164  H     H_    0.448330 0.161349 0.572644 0.111107
O85   O     O_3   0.979868 0.347191 0.241036 -0.774035
H165  H     H_    0.961786 0.334939 0.323165 0.282997
O86   O     O_3   0.041640 0.700810 0.717253 -0.772989
H166  H     H_    0.067574 0.712984 0.666901 0.335975
O87   O     O_3   0.479896 0.847149 0.241066 -0.774139
H167  H     H_    0.461811 0.834878 0.323140 0.282978
O88   O     O_3   0.541636 0.200808 0.717234 -0.772971
H168  H     H_    0.567572 0.212986 0.666909 0.336020

loop_
_geom_bond_atom_site_label_1
_geom_bond_atom_site_label_2
_ccdc_geom_bond_type
O77   H109  S    
C51   C55   A    
C140  H91   S    
C158  H156  S    
O44   P15   D    
C38   C54   A    
C86   H38   S    
O75   H95   S    
O73   H93   S    
C41   O77   S    
C94   C134  S    
C45   O85   S    
C64   N8    Am   
C57   N5    Am   
C151  H136  S    
C62   N6    Am   
C70   C110  A    
C11   O19   D    
Ba1   O1    S    
C9    N1    Am   
C5    C9    A    
O6    P6    S    
C148  H124  S    
C4    H28   S    
C77   O81   S    
C7    C11   A    
C8    C12   A    
Ba1   O13   S    
O42   P13   D    
C66   C70   A    
O82   H126  S    
C125  O73   S    
C15   O23   D    
C43   C49   A    
C146  H118  S    
C68   C84   A    
C13   O21   D    
C155  H148  S    
O48   P4    S    
C26   H42   S    
O53   P5    D    
C73   C109  A    
C144  H107  S    
C19   C23   A    
O34   P2    S    
C131  H19   S    
C116  H68   S    
C101  H49   S    
C11   N3    Am   
C147  H121  S    
C97   C133  D    
C9    O17   D    
O65   H73   S    
C3    H23   S    
C13   C17   A    
C100  C136  D    
C28   C30   A    
C127  O75   S    
C137  H83   S    
C15   C19   A    
Ba1   O57   S    
C71   P12   S    
Ba2   O54   S    
C74   C78   A    
Ba2   O13   S    
Ba3   O59   S    
O66   H74   S    
C7    C23   A    
C160  H164  S    
C131  O51   S    
C97   P1    S    
C132  O52   S    
O69   H77   S    
C128  C144  S    
C142  H102  S    
O1    P1    D    
C116  O7    S    
C99   P3    S    
C121  H9    S    
C124  C140  S    
C6    C10   A    
C149  H129  S    
Ba4   O60   S    
C158  H158  S    
C145  H115  S    
C71   C111  A    
O84   H128  S    
C65   H45   S    
C2    H54   S    
Ba1   O34   S    
C47   C159  S    
C121  O45   S    
C93   P14   S    
C80   C84   S    
C67   H47   S    
C53   C57   A    
C115  C119  S    
O40   P15   S    
C59   O27   D    
C150  H132  S    
C25   C31   A    
C55   C59   A    
C26   C32   A    
C56   C60   A    
C50   H34   S    
C127  C143  S    
C153  H141  S    
C90   H30   S    
C61   N5    Am   
C114  H66   S    
O59   P11   S    
C118  O70   S    
C15   N3    Am   
C118  H6    S    
C123  C127  S    
O74   H94   S    
C121  C125  S    
O37   P14   S    
O2    P2    D    
C138  H84   S    
O78   H110  S    
O64   P12   D    
C99   C103  A    
C45   C89   S    
C154  H144  S    
C145  H113  S    
C47   C91   S    
C116  H72   S    
C62   O30   D    
C45   C157  S    
C157  H153  S    
C47   O87   S    
C134  C150  S    
C75   C111  A    
C21   C39   A    
C152  H138  S    
C22   C40   A    
C159  H159  S    
C3    C131  S    
O36   P4    S    
C52   H36   S    
O7    P7    S    
O51   P16   S    
C99   C135  D    
Ba3   O39   S    
C31   C147  S    
C29   C145  S    
C91   H63   S    
O58   P10   S    
C12   N4    Am   
C114  C118  S    
O14   P5    S    
C139  H88   S    
O61   P9    D    
C3    H27   S    
C124  H12   S    
O63   P11   D    
C33   C61   A    
C149  H131  S    
C88   H40   S    
C80   O84   S    
O45   P1    S    
C75   P8    S    
Ba3   O15   S    
C131  H3    S    
O47   P3    S    
Ba4   O16   S    
C95   C135  S    
C14   N2    Am   
C107  N7    S    
C93   C133  S    
O49   P14   S    
C156  H151  S    
C115  O8    S    
C92   H64   S    
C17   C41   A    
C141  H98   S    
C150  H134  S    
C113  O6    S    
C19   C43   A    
C47   O11   S    
C20   C44   A    
C76   C112  A    
C72   P11   S    
C4    H24   S    
C153  H143  S    
C73   P6    S    
C46   C90   S    
C126  O74   S    
C69   P10   S    
C96   P15   S    
C120  O72   S    
C89   H57   S    
C82   N2    S    
C60   O28   D    
C138  H86   S    
C51   H35   S    
C108  N8    S    
C126  H14   S    
C154  H146  S    
O54   P6    D    
C100  P4    S    
C130  H18   S    
C111  C155  S    
C157  H155  S    
O5    P5    S    
O68   H76   S    
C36   C64   A    
C102  H50   S    
Ba3   Ba4   S    
C152  H140  S    
C65   C81   A    
C159  H161  S    
C92   H60   S    
C17   C21   A    
Ba3   O3    S    
O4    P4    D    
C14   C18   A    
C103  C107  A    
C20   C24   A    
Ba2   O58   S    
C126  C142  S    
Ba3   O55   S    
C48   O88   S    
C143  H105  S    
C110  C154  S    
C115  H71   S    
Ba2   P6    S    
C113  H69   S    
C151  H135  S    
C125  H13   S    
C122  H10   S    
C14   O22   D    
O60   P12   S    
C46   O10   S    
C129  H17   S    
C33   C37   A    
O16   P7    S    
C148  H123  S    
C105  N5    S    
C66   H46   S    
C132  H20   S    
C109  C153  S    
C36   C40   A    
C41   C51   A    
Ba4   O40   S    
C42   C52   A    
C122  O46   S    
C87   C95   S    
C94   P13   S    
O85   H165  S    
C146  H117  S    
C54   C58   A    
C79   C83   S    
C2    H26   S    
C155  H147  S    
C4    C132  S    
C76   C80   A    
Ba1   P1    S    
C144  H106  S    
C5    C21   A    
Ba3   P3    S    
C120  H8    S    
C89   H29   S    
C143  H103  S    
C128  O76   S    
C8    C24   A    
C16   N4    Am   
C113  H65   S    
C147  H120  S    
C102  C106  A    
C58   O26   D    
C122  C126  S    
O38   P13   S    
O35   P3    S    
Ba2   O2    S    
C69   C109  A    
C10   N2    Am   
C137  H82   S    
Ba3   O36   S    
C121  C137  S    
Ba2   O14   S    
C160  H163  S    
C136  C152  S    
C119  O71   S    
O80   H112  S    
C65   C69   A    
C90   H62   S    
C142  H101  S    
C64   O32   D    
O72   H80   S    
C158  H157  S    
C74   C110  A    
C46   C158  S    
Ba1   O37   S    
C78   O82   S    
C49   H33   S    
C118  O66   S    
C151  H137  S    
C10   O18   D    
C49   C53   A    
O62   P10   D    
C78   C82   S    
C29   C33   A    
C104  C108  A    
C31   C35   A    
O86   H166  S    
Ba4   P8    S    
Ba3   O16   S    
C130  H2    S    
O46   P2    S    
O76   H96   S    
C73   C77   A    
Ba1   O14   S    
C124  O48   S    
O50   P13   S    
C67   C83   A    
C18   C42   A    
C155  H149  S    
C130  O50   S    
C3    H55   S    
Ba2   O33   S    
C123  C139  S    
C100  C104  A    
C144  H108  S    
C74   P5    S    
C1    H53   S    
O83   H127  S    
C16   O24   D    
C48   C160  S    
C143  H104  S    
C70   P9    S    
C88   C108  D    
C43   O79   S    
C133  C149  S    
C129  H1    S    
C114  H70   S    
C127  H15   S    
C37   C53   A    
C132  H4    S    
C46   O86   S    
O55   P7    D    
C75   C79   A    
C140  H92   S    
C98   P2    S    
O71   H79   S    
C101  C105  A    
C40   C56   A    
C63   N7    Am   
C4    H56   S    
C45   O9    S    
C139  H87   S    
C52   C56   A    
O10   P10   S    
O67   H75   S    
C18   C22   A    
C149  H130  S    
C83   N3    S    
C91   H31   S    
C1    H21   S    
O41   P14   D    
C61   O29   D    
C140  H90   S    
Ba3   P7    S    
C68   C72   A    
C156  H150  S    
C141  H97   S    
C44   C50   A    
C150  H133  S    
C122  C138  S    
Ba4   P4    S    
C25   H41   S    
C58   N6    Am   
C34   C38   A    
C145  H114  S    
O33   P1    S    
C153  H142  S    
C57   O25   D    
C85   C105  D    
Ba1   Ba2   S    
C98   C134  D    
C87   C107  D    
C6    C26   A    
C68   H48   S    
C113  C117  S    
C95   P16   S    
C96   C136  S    
C128  H16   S    
C2    H22   S    
C138  H85   S    
C87   H39   S    
C27   C29   A    
C98   C102  A    
C1    H25   S    
C154  H145  S    
C42   O78   S    
Ba1   O53   S    
C5    C25   A    
Ba2   P2    S    
C123  H11   S    
C6    C22   A    
C32   C148  S    
C7    C27   A    
C157  H154  S    
C8    C28   A    
C135  C151  S    
C13   N1    Am   
C124  C128  S    
C152  H139  S    
C159  H160  S    
C114  O5    S    
C97   C101  A    
O39   P16   S    
C60   N8    Am   
Ba1   P5    S    
Ba4   O56   S    
C16   C20   A    
C32   C36   A    
O15   P8    S    
C48   O12   S    
C35   C39   A    
O70   H78   S    
Ba4   O4    S    
C117  O65   S    
C85   C93   S    
C90   H58   S    
C139  H89   S    
O11   P11   S    
C81   N1    S    
O12   P12   S    
C23   C37   A    
C129  O49   S    
O52   P15   S    
O8    P8    S    
C30   C146  S    
O9    P9    S    
C12   O20   D    
C148  H122  S    
C1    C129  S    
O3    P3    D    
C123  O47   S    
C117  O69   S    
Ba2   O38   S    
C119  H7    S    
C79   O83   S    
C85   H37   S    
C125  C141  S    
Ba4   O15   S    
C117  H5    S    
C44   O80   S    
C115  H67   S    
C86   C106  D    
C103  H51   S    
C66   C82   A    
C156  H152  S    
C88   C96   S    
C146  H116  S    
C50   C54   A    
C141  H99   S    
C34   C62   A    
C84   N4    S    
C27   H43   S    
C30   C34   A    
C35   C63   A    
C28   H44   S    
C104  H52   S    
C76   P7    S    
C39   C55   A    
C89   H61   S    
O79   H111  S    
C119  O67   S    
O88   H168  S    
C2    C130  S    
C147  H119  S    
C67   C71   A    
O87   H167  S    
O81   H125  S    
C59   N7    Am   
C24   C38   A    
C72   C112  A    
O43   P16   D    
C48   C92   S    
C137  H81   S    
C106  N6    S    
C77   C81   S    
O56   P8    D    
C112  C156  S    
O57   P9    S    
C91   H59   S    
C160  H162  S    
C92   H32   S    
O13   P6    S    
C120  O68   S    
Ba4   O35   S    
C142  H100  S    
C86   C94   S    
C116  C120  S    
C63   O31   D    
