data_mof_unit_27675.cif
_audit_creation_date              2013-03-05T16:04:29-0500
_audit_creation_method            fapswitch 2.2
_symmetry_space_group_name_H-M    P1
_symmetry_Int_Tables_number       1
_space_group_crystal_system       triclinic
_cell_length_a                    10.86986
_cell_length_b                    9.596748
_cell_length_c                    15.054034
_cell_angle_alpha                 89.893366
_cell_angle_beta                  91.57526
_cell_angle_gamma                 89.812978
_cell_volume                      1569.76135393

loop_
_atom_site_label
_atom_site_type_symbol
_atom_site_description
_atom_site_fract_x
_atom_site_fract_y
_atom_site_fract_z
_atom_type_partial_charge
O1    O     O_R   0.319640 0.618740 0.499990 -0.503469
O2    O     O_R   0.680360 0.381260 0.500010 -0.550965
O3    O     O_R   0.680360 0.618740 0.500010 -0.541762
O4    O     O_R   0.319640 0.381260 0.499990 -0.562603
C1    C     C_R   0.262393 0.500189 0.505776 0.892195
C2    C     C_R   0.737112 0.499782 0.492344 0.870038
O5    O     O_R   0.499970 0.618800 0.370260 -0.555568
O6    O     O_R   0.500030 0.381200 0.629740 -0.555105
O7    O     O_R   0.500030 0.618800 0.629740 -0.546548
O8    O     O_R   0.499970 0.381200 0.370260 -0.555811
C3    C     C_R   0.499223 0.500165 0.329379 0.830972
C4    C     C_R   0.500698 0.499946 0.670612 0.837119
Cu1   Cu    Cu3+1 0.500000 0.640660 0.500000 1.105948
Cu2   Cu    Cu3+1 0.500000 0.359340 0.500000 1.083222
C5    C     C_R   0.611758 0.486258 0.814305 0.334318
C6    C     C_R   0.388060 0.488178 0.185700 0.335922
C7    C     C_R   0.499661 0.500285 0.766904 -0.238526
C8    C     C_R   0.500198 0.500926 0.233071 -0.233264
C9    C     C_R   0.387167 0.509505 0.810741 0.354366
C10   C     C_R   0.612716 0.508666 0.189195 0.356650
C11   C     C_R   0.386622 0.492917 0.903810 -0.021730
C12   C     C_R   0.613207 0.491758 0.096189 -0.022127
C13   C     C_R   0.500058 0.490158 0.952998 -0.121555
C14   C     C_R   0.499777 0.490324 0.047004 -0.122488
C15   C     C_R   0.613614 0.490199 0.908194 -0.073299
C16   C     C_R   0.386232 0.492011 0.091806 -0.073978
C17   C     C_R   0.274340 0.486998 0.949242 0.339846
C18   C     C_R   0.725466 0.484116 0.050799 0.339160
C19   C     C_R   0.273965 0.498524 0.042074 0.424866
C20   C     C_R   0.725916 0.495255 0.957917 0.424197
C21   C     C_R   0.062112 0.373577 0.509966 0.399305
C22   C     C_R   0.936156 0.627187 0.483790 0.342547
C23   C     C_R   0.937657 0.372638 0.488140 0.431923
C24   C     C_R   0.062508 0.628282 0.504163 0.443054
C25   C     C_R   0.871469 0.499540 0.483730 -0.399050
C26   C     C_R   0.127423 0.500801 0.510269 -0.352471
C27   C     C_R   0.435377 0.074547 0.436117 0.287680
C28   C     C_R   0.565210 0.925411 0.563638 0.294551
C29   C     C_R   0.564834 0.073607 0.563788 0.287118
C30   C     C_R   0.435743 0.926419 0.435851 0.295667
N1    N     N_R   0.500000 0.852070 0.500000 -0.319613
N2    N     N_R   0.500000 0.147930 0.500000 -0.322260
N3    N     N_R   0.722351 0.462958 0.766089 0.176981
O9    O     O_R   0.761360 0.556529 0.711056 -0.279697
O10   O     O_R   0.782691 0.346368 0.775796 -0.214093
N4    N     N_R   0.277399 0.466045 0.233947 0.175609
O11   O     O_R   0.238612 0.560020 0.288758 -0.286318
O12   O     O_R   0.216629 0.350222 0.224364 -0.215821
O13   O     O_3   0.277225 0.538471 0.765251 -0.673665
H1    H     H_    0.290961 0.563597 0.702671 0.320327
O14   O     O_3   0.722754 0.536407 0.234579 -0.682667
H2    H     H_    0.709030 0.561814 0.297073 0.302561
O15   O     O_3   0.163171 0.465098 0.905163 -0.647327
H3    H     H_    0.175229 0.386877 0.863276 0.380957
O16   O     O_3   0.836511 0.460876 0.094995 -0.647866
H4    H     H_    0.824063 0.383002 0.137192 0.380744
O17   O     O_3   0.164394 0.517660 0.085277 -0.610976
H5    H     H_    0.097186 0.541439 0.042203 0.385450
O18   O     O_3   0.835597 0.512574 0.914650 -0.610773
H6    H     H_    0.903053 0.534998 0.957652 0.386343
O19   O     O_3   0.116798 0.247398 0.530559 -0.583698
H7    H     H_    0.172226 0.262479 0.583055 0.335070
O20   O     O_3   0.879778 0.751616 0.460759 -0.637025
H8    H     H_    0.822918 0.733211 0.409513 0.346878
O21   O     O_3   0.883784 0.245012 0.472141 -0.577655
H9    H     H_    0.827095 0.256173 0.419857 0.335327
O22   O     O_3   0.124556 0.752460 0.517894 -0.626862
H10   H     H_    0.065746 0.831250 0.520807 0.408652
N5    N     N_R   0.366350 0.146261 0.368081 0.188092
O23   O     O_R   0.408231 0.148868 0.287957 -0.291969
O24   O     O_R   0.249985 0.169791 0.379143 -0.221513
N6    N     N_R   0.636937 0.853615 0.630325 0.193270
O25   O     O_R   0.596817 0.847603 0.710876 -0.282249
O26   O     O_R   0.753550 0.833774 0.617944 -0.224269
N7    N     N_R   0.633547 0.144383 0.631975 0.187802
O27   O     O_R   0.750023 0.166895 0.621316 -0.217063
O28   O     O_R   0.591129 0.146916 0.711940 -0.292392
N8    N     N_R   0.369135 0.855952 0.366320 0.193147
O29   O     O_R   0.251145 0.839674 0.372922 -0.221063
O30   O     O_R   0.416231 0.850090 0.287871 -0.290720

loop_
_geom_bond_atom_site_label_1
_geom_bond_atom_site_label_2
_geom_bond_distance
_ccdc_geom_bond_type
O16   H4    0.991953 S    
C3    C8    1.450151 S    
C27   N5    1.427370 S    
C17   C19   1.402188 A    
C21   O19   1.378229 S    
N3    O9    1.300599 A    
O3    C2    1.302665 A    
Cu1   N1    2.028848 S    
C23   O21   1.378066 S    
O2    C2    1.302157 A    
O15   H3    0.991947 S    
O5    C3    1.295153 A    
O1    C1    1.302461 A    
C9    C11   1.409968 A    
C14   C16   1.422705 A    
C10   O14   1.387853 S    
C28   C29   1.422195 A    
N8    O30   1.301249 A    
C5    C15   1.413568 A    
C1    C26   1.470512 S    
C2    C25   1.469732 S    
C27   N2    1.372166 A    
N5    O24   1.299412 A    
O7    Cu1   1.963947 S    
C7    C9    1.407982 A    
C4    C7    1.449960 S    
C13   C14   1.415271 A    
C21   C23   1.383394 A    
C29   N7    1.427111 S    
C24   C26   1.411898 A    
O3    Cu1   1.971053 S    
Cu2   N2    2.028849 S    
C11   C17   1.416619 A    
O18   H6    0.989163 S    
C12   C18   1.416582 A    
Cu1   Cu2   2.699757 S    
N5    O23   1.301122 A    
C18   O16   1.379458 S    
C29   N2    1.372757 A    
N4    O12   1.301075 A    
C6    C16   1.413489 A    
C28   N6    1.428758 S    
O22   H10   0.990359 S    
C22   C25   1.414430 A    
C28   N1    1.372598 A    
N6    O26   1.299716 A    
O8    Cu2   1.963947 S    
C6    N4    1.438287 S    
N8    O29   1.299014 A    
O4    C1    1.302363 A    
O14   H2    0.987472 S    
C22   C24   1.399078 A    
N7    O27   1.299311 A    
N3    O10   1.301068 A    
C9    O13   1.387995 S    
O6    C4    1.296025 A    
C20   O18   1.384508 S    
N7    O28   1.301094 A    
C30   N8    1.428743 S    
C30   N1    1.373539 A    
C19   O17   1.384501 S    
O13   H1    0.987450 S    
C11   C13   1.420870 A    
C12   C14   1.420776 A    
O1    Cu1   1.972420 S    
C15   C20   1.415295 A    
C5    C7    1.400986 A    
N4    O11   1.300507 A    
O6    Cu2   1.964724 S    
C22   O20   1.379736 S    
C10   C12   1.409942 A    
N6    O25   1.301127 A    
C24   O22   1.384290 S    
C17   O15   1.379423 S    
C27   C30   1.421557 A    
C18   C20   1.402270 A    
C5    N3    1.438328 S    
O17   H5    0.989222 S    
C23   C25   1.412986 A    
C8    C10   1.408001 A    
C13   C15   1.422775 A    
O4    Cu2   1.971055 S    
O19   H7    0.991607 S    
O2    Cu2   1.972419 S    
O7    C4    1.294876 A    
O8    C3    1.295871 A    
O20   H8    0.991634 S    
O5    Cu1   1.964724 S    
C16   C19   1.415169 A    
C6    C8    1.401004 A    
O21   H9    0.991605 S    
C21   C26   1.414287 A    
