data_mof_unit_33414.cif
_audit_creation_date              2012-12-11T15:12:41-0500
_audit_creation_method            fapswitch 2.2
_symmetry_space_group_name_H-M    P1
_symmetry_Int_Tables_number       1
_space_group_crystal_system       triclinic
_cell_length_a                    22.048723
_cell_length_b                    7.092602
_cell_length_c                    19.703931
_cell_angle_alpha                 89.999986
_cell_angle_beta                  99.482207
_cell_angle_gamma                 90.0
_cell_volume                      3039.25507376

loop_
_atom_site_label
_atom_site_type_symbol
_atom_type_description
_atom_site_fract_x
_atom_site_fract_y
_atom_site_fract_z
_atom_type_partial_charge
O1    O     O_R   0.448420 0.506120 0.415750 -0.546019
O2    O     O_R   0.551580 0.006120 0.584250 -0.546020
O3    O     O_R   0.436490 0.174470 0.555610 -0.532334
O4    O     O_R   0.563510 0.674470 0.444390 -0.532334
C1    C     C_R   0.421596 0.344634 0.575892 0.702247
C2    C     C_R   0.578404 0.844634 0.424108 0.702250
O5    O     O_R   0.441310 0.176330 0.414520 -0.532793
O6    O     O_R   0.558690 0.676330 0.585480 -0.532794
O7    O     O_R   0.556430 0.007110 0.442150 -0.521480
O8    O     O_R   0.443570 0.507110 0.557850 -0.521481
C3    C     C_R   0.428612 0.343769 0.387707 0.760772
C4    C     C_R   0.571388 0.843769 0.612293 0.760773
O9    O     O_3   0.537770 0.339560 0.509230 -0.372709
O10   O     O_3   0.462230 0.839560 0.490770 -0.372708
V1    V     V_3+5 0.492990 0.064280 0.498290 1.553464
V2    V     V_3+5 0.507010 0.564280 0.501710 1.553461
C5    C     C_R   0.868906 0.947380 0.697361 -0.048050
C6    C     C_R   0.131093 0.447387 0.302638 -0.048050
C7    C     C_R   0.883978 0.940786 0.822919 -0.188746
C8    C     C_R   0.116022 0.440787 0.177081 -0.188745
C9    C     C_R   0.588183 0.765906 0.736301 0.292278
C10   C     C_R   0.411816 0.265905 0.263699 0.292274
C11   C     C_R   0.628771 0.706141 0.795915 -0.136132
C12   C     C_R   0.371228 0.206136 0.204086 -0.136128
C13   C     C_R   0.693194 0.729970 0.800071 -0.070654
C14   C     C_R   0.306805 0.229963 0.199931 -0.070651
C15   C     C_R   0.716545 0.841094 0.749638 0.062172
C16   C     C_R   0.283454 0.341092 0.250363 0.062174
C17   C     C_R   0.675824 0.882772 0.687496 -0.039654
C18   C     C_R   0.324176 0.382773 0.312505 -0.039655
C19   C     C_R   0.780147 0.897527 0.755966 0.084817
C20   C     C_R   0.219853 0.397526 0.244035 0.084820
C21   C     C_R   0.804107 0.943998 0.695451 -0.050881
C22   C     C_R   0.195892 0.444001 0.304549 -0.050881
C23   C     C_R   0.762252 0.990202 0.635188 0.010954
C24   C     C_R   0.237748 0.490206 0.364812 0.010955
C25   C     C_R   0.699517 0.960287 0.632216 -0.195153
C26   C     C_R   0.300482 0.460289 0.367784 -0.195152
C27   C     C_R   0.819378 0.921478 0.820472 0.331155
C28   C     C_R   0.180621 0.421474 0.179529 0.331157
C29   C     C_R   0.908472 0.950609 0.761357 -0.097280
C30   C     C_R   0.091528 0.450616 0.238643 -0.097279
C31   C     C_R   0.612165 0.842476 0.680587 -0.107222
C32   C     C_R   0.387834 0.342476 0.319413 -0.107219
H1    H     H_    0.668942 0.000715 0.585698 0.132525
H2    H     H_    0.331058 0.500718 0.414302 0.132525
C33   C     C_3   0.805870 0.772646 0.256064 0.023930
C34   C     C_3   0.194130 0.272646 0.743936 0.023931
C35   C     C_3   0.785613 0.124032 0.240788 0.150173
C36   C     C_3   0.214387 0.624032 0.759212 0.150174
C37   C     C_3   0.733228 0.108587 0.291771 -0.376934
C38   C     C_3   0.266772 0.608587 0.708229 -0.376935
H3    H     H_    0.850570 0.807665 0.288104 0.157242
H4    H     H_    0.149430 0.307665 0.711897 0.157243
C39   C     C_1   0.623121 0.856621 0.377274 -0.057762
C40   C     C_1   0.376879 0.356621 0.622726 -0.057764
C41   C     C_3   0.786289 0.929220 0.200659 -0.125515
C42   C     C_3   0.213711 0.429220 0.799341 -0.125516
C43   C     C_3   0.758211 0.752234 0.306860 0.614490
C44   C     C_3   0.241790 0.252235 0.693141 0.614490
C45   C     C_3   0.704924 0.899108 0.288100 -0.120601
C46   C     C_3   0.295077 0.399109 0.711900 -0.120600
C47   C     C_3   0.671369 0.854510 0.211367 0.539700
C48   C     C_3   0.328631 0.354510 0.788633 0.539698
C49   C     C_3   0.719231 0.885028 0.159379 0.599656
C50   C     C_3   0.280769 0.385028 0.840622 0.599657
C51   C     C_1   0.659758 0.873961 0.337494 0.240019
C52   C     C_1   0.340243 0.373961 0.662507 0.240018
C53   C     C_1   0.832303 0.934558 0.152063 0.054468
C54   C     C_1   0.167697 0.434558 0.847937 0.054469
C55   C     C_1   0.871827 0.940994 0.115748 -0.121061
C56   C     C_1   0.128173 0.440994 0.884252 -0.121058
O11   O     O_R   0.056480 0.288780 0.942210 -0.539200
O12   O     O_R   0.943520 0.788780 0.057790 -0.539199
O13   O     O_R   0.058700 0.616820 0.085490 -0.538054
O14   O     O_R   0.941300 0.116820 0.914510 -0.538055
C57   C     C_R   0.073328 0.448650 0.110681 0.700656
C58   C     C_R   0.926672 0.948650 0.889319 0.700656
O15   O     O_R   0.063520 0.618570 0.944410 -0.530469
O16   O     O_R   0.936480 0.118570 0.055590 -0.530469
O17   O     O_R   0.948420 0.787670 0.915740 -0.519715
O18   O     O_R   0.051580 0.287670 0.084260 -0.519715
C59   C     C_R   0.079889 0.449909 0.926078 0.730674
C60   C     C_R   0.920111 0.949909 0.073922 0.730674
O19   O     O_3   0.962260 0.453430 0.990800 -0.373072
O20   O     O_3   0.037740 0.953430 0.009200 -0.373072
V3    V     V_3+5 0.007000 0.728750 0.001710 1.537786
V4    V     V_3+5 0.993000 0.228750 0.998290 1.537787
C61   C     C_2   0.975623 0.974644 0.764340 0.807167
O21   O     O_2   0.010923 0.847593 0.786319 -0.543412
O22   O     O_R   0.998100 0.145741 0.743587 -0.614226
H5    H     H_    0.044332 0.145816 0.746629 0.298867
C62   C     C_2   0.024377 0.474656 0.235659 0.807166
O23   O     O_2   0.989076 0.347606 0.213681 -0.543413
O24   O     O_R   0.001902 0.645756 0.256412 -0.614225
H6    H     H_    0.955670 0.645836 0.253368 0.298868
O25   O     O_3   0.769531 0.267924 0.191862 -0.568144
H7    H     H_    0.800791 0.276560 0.160993 0.316942
O26   O     O_3   0.230469 0.767924 0.808138 -0.568144
H8    H     H_    0.199209 0.776560 0.839007 0.316942
C63   C     C_2   0.851509 0.180232 0.277325 0.837176
O27   O     O_2   0.896876 0.088138 0.269976 -0.542821
O28   O     O_R   0.860849 0.347083 0.315262 -0.658837
H9    H     H_    0.905698 0.371016 0.334709 0.319813
C64   C     C_2   0.148491 0.680232 0.722675 0.837174
O29   O     O_2   0.103125 0.588138 0.730024 -0.542820
O30   O     O_R   0.139152 0.847083 0.684738 -0.658838
H10   H     H_    0.094302 0.871017 0.665291 0.319811
C65   C     C_2   0.760587 0.160403 0.367645 0.849753
O31   O     O_2   0.731322 0.256798 0.402402 -0.510360
O32   O     O_R   0.819760 0.103337 0.397714 -0.622071
H11   H     H_    0.834700 0.163666 0.443965 0.328251
C66   C     C_2   0.239413 0.660404 0.632355 0.849754
O33   O     O_2   0.268678 0.756800 0.597599 -0.510361
O34   O     O_R   0.180240 0.603338 0.602286 -0.622071
H12   H     H_    0.165301 0.663669 0.556036 0.328251
C67   C     C_2   0.676876 0.240391 0.269654 1.071336
O35   O     O_2   0.665526 0.306474 0.211740 -0.447082
O36   O     O_R   0.634124 0.271050 0.313895 -0.637957
H13   H     H_    0.599135 0.356972 0.293306 0.329982
C68   C     C_2   0.323124 0.740392 0.730346 1.071337
O37   O     O_2   0.334475 0.806474 0.788260 -0.447080
O38   O     O_R   0.365876 0.771050 0.686105 -0.637957
H14   H     H_    0.400865 0.856972 0.706695 0.329985
O39   O     O_3   0.720690 0.727491 0.115446 -0.622629
H15   H     H_    0.726333 0.610256 0.142699 0.384788
O40   O     O_3   0.279311 0.227492 0.884554 -0.622627
H16   H     H_    0.273668 0.110256 0.857302 0.384788
O41   O     O_3   0.698964 0.039095 0.116338 -0.576149
H17   H     H_    0.723628 0.042475 0.078481 0.337753
O42   O     O_3   0.301036 0.539096 0.883662 -0.576148
H18   H     H_    0.276372 0.542477 0.921519 0.337753
O43   O     O_3   0.649020 0.668315 0.208637 -0.599343
H19   H     H_    0.623809 0.646146 0.162723 0.336275
O44   O     O_3   0.350980 0.168316 0.791364 -0.599343
H20   H     H_    0.376191 0.146146 0.837278 0.336278
O45   O     O_3   0.814406 0.600849 0.223930 -0.607499
H21   H     H_    0.854829 0.604277 0.208173 0.312147
O46   O     O_3   0.185594 0.100849 0.776070 -0.607500
H22   H     H_    0.145172 0.104277 0.791827 0.312146
O47   O     O_3   0.732389 0.572987 0.301916 -0.580788
H23   H     H_    0.765594 0.485061 0.319405 0.340737
O48   O     O_3   0.267612 0.072988 0.698084 -0.580788
H24   H     H_    0.234406 0.985061 0.680595 0.340737
C69   C     C_2   0.780438 0.096376 0.577495 0.807226
O49   O     O_2   0.759217 0.051283 0.518620 -0.522801
O50   O     O_R   0.819547 0.252121 0.590508 -0.634231
H25   H     H_    0.826445 0.318934 0.546995 0.323360
C70   C     C_2   0.219562 0.596381 0.422505 0.807226
O51   O     O_2   0.240783 0.551289 0.481380 -0.522801
O52   O     O_R   0.180454 0.752129 0.409492 -0.634231
H26   H     H_    0.173556 0.818941 0.453004 0.323360
O53   O     O_3   0.619153 0.971335 0.194227 -0.623017
H27   H     H_    0.599272 0.942904 0.146362 0.338225
O54   O     O_3   0.380848 0.471335 0.805773 -0.623018
H28   H     H_    0.400728 0.442904 0.853638 0.338227
C71   C     C_2   0.895331 0.915093 0.633359 0.827337
O55   O     O_2   0.875503 0.786326 0.594667 -0.529936
O56   O     O_R   0.941953 0.031446 0.616878 -0.625276
H29   H     H_    0.955489 0.994571 0.571959 0.313463
C72   C     C_2   0.104668 0.415106 0.366641 0.827336
O57   O     O_2   0.124495 0.286339 0.405334 -0.529935
O58   O     O_R   0.058046 0.531461 0.383121 -0.625276
H30   H     H_    0.044511 0.494589 0.428040 0.313463
O59   O     O_3   0.792418 0.945604 0.878615 -0.632216
H31   H     H_    0.823802 0.971654 0.919437 0.275043
O60   O     O_3   0.207582 0.445591 0.121385 -0.632217
H32   H     H_    0.176198 0.471639 0.080562 0.275042
O61   O     O_3   0.525147 0.737241 0.727441 -0.643093
H33   H     H_    0.512565 0.688880 0.770000 0.322127
O62   O     O_3   0.474852 0.237243 0.272557 -0.643093
H34   H     H_    0.487434 0.188913 0.229995 0.322124
C73   C     C_2   0.735230 0.611646 0.849860 0.871089
O63   O     O_2   0.775945 0.520182 0.829950 -0.552760
O64   O     O_R   0.728452 0.605459 0.919183 -0.619785
H35   H     H_    0.759934 0.520708 0.947566 0.311646
C74   C     C_2   0.264769 0.111633 0.150144 0.871076
O65   O     O_2   0.224053 0.020176 0.170056 -0.552760
O66   O     O_R   0.271547 0.105431 0.080822 -0.619786
H36   H     H_    0.240066 0.020677 0.052441 0.311645
C75   C     C_2   0.604409 0.600545 0.850421 0.836968
O67   O     O_2   0.576977 0.684406 0.890332 -0.514143
O68   O     O_R   0.612970 0.405529 0.855890 -0.643651
H37   H     H_    0.594417 0.349218 0.895097 0.330530
C76   C     C_2   0.395590 0.100527 0.149583 0.836974
O69   O     O_2   0.423013 0.184383 0.109662 -0.514140
O70   O     O_R   0.387039 0.905506 0.144127 -0.643654
H38   H     H_    0.405591 0.849186 0.104922 0.330527
O71   O     O_3   0.786686 0.775957 0.375828 -0.612104
H39   H     H_    0.822263 0.688553 0.385530 0.318637
O72   O     O_3   0.213314 0.275958 0.624173 -0.612104
H40   H     H_    0.177738 0.188554 0.614471 0.318637

loop_
_geom_bond_atom_site_label_1
_geom_bond_atom_site_label_2
_ccdc_geom_bond_type
C29   C61   S    
O62   H34   S    
C47   C49   S    
O4    V2    S    
O59   H31   S    
C15   C17   A    
C30   C62   S    
O61   H33   S    
C1    C40   S    
C64   O29   D    
O58   H30   S    
O1    C3    A    
C2    C39   S    
O16   C60   A    
O2    C4    A    
C2    O7    A    
O15   V3    S    
C69   O49   D    
O38   H14   S    
C38   C66   S    
C34   H4    S    
C64   O30   S    
C48   O54   S    
C36   O26   S    
C62   O23   D    
C8    C57   S    
C47   O43   S    
C23   C25   A    
C12   C14   A    
C50   O42   S    
C4    C31   S    
C70   O52   S    
C44   O48   S    
C35   C63   S    
C8    C28   A    
C6    C72   S    
O20   V4    S    
C24   C70   S    
C14   C74   S    
C17   C25   A    
O48   H24   S    
C9    O61   S    
O25   H7    S    
C35   C41   S    
C50   O40   S    
C18   C26   A    
C44   C46   S    
C23   C69   S    
C53   C55   T    
C62   O24   S    
C28   O60   S    
C46   C48   S    
C65   O32   S    
C69   O50   S    
C75   O67   D    
C9    C31   A    
O47   H23   S    
C42   C50   S    
C71   O55   D    
C10   C32   A    
O50   H25   S    
C35   C37   S    
C37   C45   S    
C36   C64   S    
C36   C38   S    
O30   H10   S    
C19   C21   A    
O12   V3    S    
C61   O22   S    
C5    C71   S    
O14   V4    S    
C22   C24   A    
C10   O62   S    
C34   O46   S    
C33   H3    S    
O5    V1    S    
C48   O44   S    
C37   C65   S    
C17   C31   A    
C18   C32   A    
C5    C21   A    
C72   O58   S    
C34   C44   S    
O54   H28   S    
C55   C60   S    
C73   O64   S    
C9    C11   A    
O46   H22   S    
C43   C45   S    
C26   H2    S    
O19   V3    S    
C15   C19   A    
O72   H40   S    
C36   C42   S    
C63   O27   D    
O44   H20   S    
C47   O53   S    
C66   O33   D    
C75   O68   S    
O12   C60   A    
O60   H32   S    
O8    V2    S    
C67   O36   S    
O20   V3    S    
C42   C54   S    
C74   O66   S    
C73   O63   D    
C33   C43   S    
C54   C56   T    
C12   C76   S    
C20   C22   A    
C27   O59   S    
C7    C58   S    
O5    C3    A    
O68   H37   S    
O11   V4    S    
C21   C23   A    
C49   O41   S    
C33   C41   S    
O13   C57   A    
C38   C68   S    
C45   C51   S    
C8    C30   A    
O56   H29   S    
C16   C20   A    
O6    C4    A    
C33   O45   S    
C45   C47   S    
C7    C29   A    
C3    C32   S    
O1    V2    S    
O2    V1    S    
C6    C22   A    
C48   C50   S    
C68   O37   D    
O17   V3    S    
C7    C27   A    
O13   V3    S    
O9    V1    S    
O43   H19   S    
C10   C12   A    
C43   O71   S    
O4    C2    A    
C25   H1    S    
O42   H18   S    
C61   O21   D    
O22   H5    S    
O3    V1    S    
O41   H17   S    
C63   O28   S    
O19   V4    S    
C11   C75   S    
O32   H11   S    
O14   C58   A    
C41   C49   S    
O3    C1    A    
C71   O56   S    
O36   H13   S    
C34   C42   S    
O40   H16   S    
C13   C15   A    
O45   H21   S    
C14   C16   A    
O26   H8    S    
C46   C52   S    
C40   C52   T    
C6    C30   A    
O24   H6    S    
C1    O8    A    
O16   V4    S    
O64   H35   S    
C72   O57   D    
C70   O51   D    
C24   C26   A    
O15   C59   A    
C58   O17   A    
C76   O69   D    
O39   H15   S    
C39   C51   T    
C57   O18   A    
C44   O72   S    
O18   V4    S    
C16   C18   A    
C37   C67   S    
C19   C27   A    
O10   V2    S    
C20   C28   A    
O7    V1    S    
O71   H39   S    
C5    C29   A    
C68   O38   S    
C56   C59   S    
C76   O70   S    
C35   O25   S    
O66   H36   S    
C13   C73   S    
O70   H38   S    
C11   C13   A    
C43   O47   S    
O6    V2    S    
C74   O65   D    
O9    V2    S    
C65   O31   D    
O28   H9    S    
O10   V1    S    
C38   C46   S    
C41   C53   S    
O53   H27   S    
C67   O35   D    
O52   H26   S    
O11   C59   A    
O34   H12   S    
C49   O39   S    
C66   O34   S    
