data_mof_unit_28725.cif
_audit_creation_date              2012-12-11T15:39:20-0500
_audit_creation_method            fapswitch 2.2
_symmetry_space_group_name_H-M    P1
_symmetry_Int_Tables_number       1
_space_group_crystal_system       triclinic
_cell_length_a                    17.31618
_cell_length_b                    24.425162
_cell_length_c                    14.885241
_cell_angle_alpha                 89.547872
_cell_angle_beta                  125.617029
_cell_angle_gamma                 90.553621
_cell_volume                      5117.70660624

loop_
_atom_site_label
_atom_site_type_symbol
_atom_type_description
_atom_site_fract_x
_atom_site_fract_y
_atom_site_fract_z
_atom_type_partial_charge
C1    C     C_R   0.354757 0.347263 0.909301 -0.151167
C2    C     C_R   0.689492 0.375925 0.093621 -0.145634
C3    C     C_R   0.854880 0.847216 0.909404 -0.132126
C4    C     C_R   0.186738 0.871465 0.092415 -0.108970
C5    C     C_R   0.391192 0.685514 0.996946 0.050668
C6    C     C_R   0.683738 0.644850 0.999683 0.036851
C7    C     C_R   0.888122 0.184406 0.000523 -0.027255
C8    C     C_R   0.183703 0.144767 0.999472 0.028393
C9    C     C_R   0.448013 0.497598 0.274052 -0.112376
C10   C     C_R   0.429133 0.498360 0.628969 -0.098560
C11   C     C_R   0.948248 0.997771 0.274319 -0.122577
C12   C     C_R   0.928898 0.998477 0.628861 -0.094755
C13   C     C_R   0.174357 0.499654 0.724974 0.052362
C14   C     C_R   0.801895 0.499692 0.369683 0.065440
C15   C     C_R   0.674355 0.999439 0.724881 0.048992
C16   C     C_R   0.302189 0.999479 0.369303 0.065267
C17   C     C_R   0.021151 0.549991 0.628416 0.160823
C18   C     C_R   0.926962 0.549799 0.538898 0.165671
C19   C     C_R   0.521130 0.049687 0.628256 0.154448
C20   C     C_R   0.427005 0.049480 0.538649 0.156778
C21   C     C_R   0.071465 0.500756 0.669485 0.031985
C22   C     C_R   0.880916 0.500502 0.487153 0.031398
C23   C     C_R   0.571478 0.000464 0.669311 0.037378
C24   C     C_R   0.381121 0.000187 0.486748 0.034110
C25   C     C_R   0.018454 0.451710 0.637495 -0.177155
C26   C     C_R   0.923122 0.451526 0.545826 -0.171490
C27   C     C_R   0.518547 0.951383 0.637134 -0.177338
C28   C     C_R   0.423295 0.951187 0.545302 -0.180848
C29   C     C_3   0.938111 0.601600 0.493111 -0.483954
C30   C     C_3   0.041091 0.601721 0.590185 -0.495256
C31   C     C_3   0.438147 0.101316 0.492957 -0.484637
C32   C     C_3   0.541071 0.101444 0.590068 -0.493501
C33   C     C_R   0.242748 0.725561 0.938463 -0.384881
C34   C     C_R   0.846470 0.685916 0.099508 -0.363909
C35   C     C_R   0.825376 0.277969 0.935217 -0.393268
C36   C     C_R   0.346548 0.185704 0.099018 -0.366982
C37   C     C_R   0.774598 0.321748 0.934852 0.792688
C38   C     C_R   0.399792 0.228851 0.101043 0.769417
C39   C     C_R   0.190527 0.766653 0.939801 0.787119
C40   C     C_R   0.899818 0.728991 0.101523 0.771291
C41   C     C_R   0.747942 0.320790 0.007362 -0.188062
C42   C     C_R   0.367189 0.256602 0.001915 -0.152203
C43   C     C_R   0.236235 0.815025 0.996184 -0.182220
C44   C     C_R   0.867473 0.756585 0.002311 -0.141582
C45   C     C_R   0.448979 0.653761 0.089385 0.046683
C46   C     C_R   0.592500 0.631481 0.907502 -0.010823
C47   C     C_R   0.950164 0.152991 0.090913 0.189093
C48   C     C_R   0.092366 0.131502 0.907387 -0.017280
C49   C     C_R   0.772685 0.277363 0.080632 -0.411829
C50   C     C_R   0.300557 0.230346 0.901653 -0.400435
C51   C     C_R   0.334008 0.822562 0.051076 -0.393558
C52   C     C_R   0.801090 0.730199 0.902132 -0.377576
C53   C     C_R   0.386850 0.780914 0.049017 0.784343
C54   C     C_R   0.749803 0.686059 0.901232 0.765285
C55   C     C_R   0.820578 0.233777 0.079477 0.805390
C56   C     C_R   0.249336 0.186168 0.900733 0.767877
C57   C     C_R   0.340553 0.732411 0.993197 -0.157223
C58   C     C_R   0.760783 0.671504 0.999680 -0.151489
C59   C     C_R   0.846629 0.233680 0.006291 -0.173710
C60   C     C_R   0.260659 0.171423 0.999286 -0.149859
C61   C     C_R   0.374638 0.543985 0.450483 -0.137758
C62   C     C_R   0.377414 0.543358 0.359284 -0.134579
C63   C     C_R   0.874924 0.044292 0.450722 -0.142018
C64   C     C_R   0.877916 0.043694 0.359678 -0.120206
C65   C     C_R   0.403046 0.495218 0.332393 0.157947
C66   C     C_R   0.394382 0.495980 0.512580 0.157380
C67   C     C_R   0.903212 0.995490 0.332576 0.150315
C68   C     C_R   0.894126 0.996207 0.512452 0.156745
C69   C     C_R   0.401479 0.445549 0.379080 -0.151692
C70   C     C_R   0.397050 0.445927 0.468802 -0.148482
C71   C     C_R   0.901078 0.945805 0.378822 -0.145848
C72   C     C_R   0.896411 0.946160 0.468379 -0.153034
C73   C     C_R   0.479446 0.452889 0.247150 -0.232624
C74   C     C_R   0.449877 0.453683 0.696342 -0.220513
C75   C     C_R   0.979455 0.952978 0.247240 -0.237462
C76   C     C_R   0.949588 0.953759 0.696145 -0.265240
C77   C     C_R   0.232449 0.545298 0.755329 -0.102652
C78   C     C_R   0.752624 0.544883 0.306397 -0.138735
C79   C     C_R   0.732333 0.045119 0.755275 -0.097234
C80   C     C_R   0.252719 0.044757 0.306411 -0.136639
C81   C     C_R   0.480201 0.544016 0.249912 0.704920
C82   C     C_R   0.444221 0.544232 0.691922 0.718274
C83   C     C_R   0.980559 0.044145 0.250215 0.727989
C84   C     C_R   0.944197 0.044302 0.691965 0.719858
C85   C     C_R   0.230774 0.453842 0.749506 -0.116256
C86   C     C_R   0.755128 0.454315 0.304699 -0.114083
C87   C     C_R   0.730849 0.953720 0.749424 -0.111295
C88   C     C_R   0.255522 0.954139 0.304097 -0.119704
C89   C     C_R   0.357543 0.652653 0.907340 -0.024504
C90   C     C_R   0.685628 0.630598 0.092302 0.047708
C91   C     C_R   0.854229 0.152576 0.908710 0.009201
C92   C     C_R   0.185739 0.130474 0.092179 0.048623
C93   C     C_R   0.446389 0.347601 0.092307 -0.115244
C94   C     C_R   0.596964 0.374004 0.908369 -0.071576
C95   C     C_R   0.946469 0.847626 0.092404 -0.109437
C96   C     C_R   0.093645 0.872449 0.906709 -0.011890
C97   C     C_R   0.388058 0.314764 0.001470 0.147450
C98   C     C_R   0.685674 0.360753 0.002164 0.190480
C99   C     C_R   0.888235 0.814746 0.001649 0.153638
C100  C     C_R   0.180181 0.856174 0.998990 0.127876
H1    H     H_    0.317308 0.333746 0.824705 0.102415
H2    H     H_    0.746930 0.369425 0.179473 0.117449
H3    H     H_    0.817462 0.833647 0.824841 0.107877
H4    H     H_    0.242925 0.862213 0.177590 0.115536
H5    H     H_    0.928505 0.595884 0.413095 0.207328
H6    H     H_    0.059987 0.636463 0.647540 0.208962
H7    H     H_    0.428620 0.095646 0.412972 0.210074
H8    H     H_    0.559886 0.136186 0.647387 0.202558
H9    H     H_    0.897669 0.635976 0.495342 0.212891
H10   H     H_    0.089109 0.595876 0.564271 0.213850
H11   H     H_    0.397657 0.135660 0.495203 0.207120
H12   H     H_    0.589129 0.095632 0.564198 0.215935
H13   H     H_    0.207142 0.687476 0.897600 0.185036
H14   H     H_    0.870273 0.666667 0.176931 0.193381
H15   H     H_    0.846141 0.278094 0.879270 0.192647
H16   H     H_    0.370607 0.166296 0.176381 0.195807
H17   H     H_    0.749517 0.275232 0.134327 0.198274
H18   H     H_    0.282717 0.245830 0.823524 0.185015
H19   H     H_    0.368500 0.860297 0.094601 0.192816
H20   H     H_    0.783508 0.745555 0.824033 0.189130
H21   H     H_    0.365032 0.582983 0.475920 0.208128
H22   H     H_    0.367600 0.581570 0.317098 0.199784
H23   H     H_    0.865650 0.083317 0.476387 0.211924
H24   H     H_    0.868560 0.081953 0.317812 0.223079
H25   H     H_    0.414046 0.406763 0.355506 0.128670
H26   H     H_    0.406490 0.407329 0.509803 0.124152
H27   H     H_    0.913340 0.906994 0.355014 0.130315
H28   H     H_    0.905391 0.907522 0.509063 0.126516
H29   H     H_    0.468402 0.410151 0.254964 0.145268
H30   H     H_    0.432401 0.411407 0.671317 0.128565
H31   H     H_    0.968276 0.910257 0.255022 0.146838
H32   H     H_    0.931756 0.911540 0.670845 0.143119
H33   H     H_    0.213644 0.587019 0.755161 0.109978
H34   H     H_    0.756431 0.584937 0.338433 0.122160
H35   H     H_    0.713159 0.086685 0.755060 0.114438
H36   H     H_    0.256504 0.084729 0.338742 0.124243
H37   H     H_    0.209492 0.411343 0.738393 0.101208
H38   H     H_    0.764786 0.412346 0.332594 0.097273
H39   H     H_    0.709700 0.911197 0.738285 0.100236
H40   H     H_    0.265555 0.912050 0.331418 0.098080
H41   H     H_    0.494348 0.335134 0.177352 0.182660
H42   H     H_    0.568930 0.365225 0.823430 0.130631
H43   H     H_    0.994474 0.835217 0.177474 0.181618
H44   H     H_    0.064312 0.864306 0.821159 0.118580
H45   H     H_    0.052570 0.412798 0.672758 0.133191
H46   H     H_    0.887708 0.412452 0.514063 0.135828
H47   H     H_    0.552701 0.912474 0.672361 0.133660
H48   H     H_    0.387930 0.912113 0.513360 0.135150
N1    N     N_R   0.394180 0.396910 0.943210 -0.044796
N2    N     N_R   0.605820 0.396910 0.056790 -0.046644
N3    N     N_R   0.894180 0.896910 0.943210 -0.047113
N4    N     N_R   0.105820 0.896910 0.056790 -0.049420
N5    N     N_R   0.450950 0.603070 0.056740 -0.085923
N6    N     N_R   0.549050 0.603070 0.943260 -0.085019
N7    N     N_R   0.950950 0.103070 0.056740 -0.093709
N8    N     N_R   0.049050 0.103070 0.943260 -0.088330
N9    N     N_R   0.525650 0.471570 0.206150 -0.071088
N10   N     N_R   0.474350 0.471570 0.793850 -0.071420
N11   N     N_R   0.025650 0.971570 0.206150 -0.072274
N12   N     N_R   0.974350 0.971570 0.793850 -0.075564
N13   N     N_R   0.319480 0.528420 0.793810 -0.040476
N14   N     N_R   0.680520 0.528420 0.206190 -0.046466
N15   N     N_R   0.819480 0.028420 0.793810 -0.039873
N16   N     N_R   0.180520 0.028420 0.206190 -0.047211
N17   N     N_R   0.525640 0.528390 0.206120 -0.110159
N18   N     N_R   0.474360 0.528390 0.793880 -0.102388
N19   N     N_R   0.025640 0.028390 0.206120 -0.115515
N20   N     N_R   0.974360 0.028390 0.793880 -0.103548
N21   N     N_R   0.319490 0.471590 0.793840 -0.047168
N22   N     N_R   0.680510 0.471590 0.206160 -0.039752
N23   N     N_R   0.819490 0.971590 0.793840 -0.045553
N24   N     N_R   0.180510 0.971590 0.206160 -0.043124
N25   N     N_R   0.394130 0.603080 0.943110 -0.076159
N26   N     N_R   0.605870 0.603080 0.056890 -0.083405
N27   N     N_R   0.894130 0.103080 0.943110 -0.081373
N28   N     N_R   0.105870 0.103080 0.056890 -0.088906
N29   N     N_R   0.450990 0.396900 0.056840 -0.052406
N30   N     N_R   0.549010 0.396900 0.943160 -0.055014
N31   N     N_R   0.950990 0.896900 0.056840 -0.053673
N32   N     N_R   0.049010 0.896900 0.943160 -0.050928
Ni1   Ni    Ni4+2 0.434860 0.434850 0.869700 0.209777
Ni2   Ni    Ni4+2 0.565140 0.434850 0.130300 0.220223
Ni3   Ni    Ni4+2 0.934860 0.934850 0.869700 0.223245
Ni4   Ni    Ni4+2 0.065140 0.934850 0.130300 0.219389
Ni5   Ni    Ni4+2 0.565130 0.565140 0.130240 0.227622
Ni6   Ni    Ni4+2 0.434870 0.565140 0.869760 0.259909
Ni7   Ni    Ni4+2 0.065130 0.065140 0.130240 0.222603
Ni8   Ni    Ni4+2 0.934870 0.065140 0.869760 0.254727
F1    F     F_    0.750312 0.364095 0.863624 -0.692233
F2    F     F_    0.477899 0.244893 0.200203 -0.714793
F3    F     F_    0.096224 0.758188 0.890482 -0.701133
F4    F     F_    0.977730 0.745137 0.200743 -0.714369
F5    F     F_    0.481603 0.787814 0.100264 -0.706098
F6    F     F_    0.690293 0.658810 0.805132 -0.696793
F7    F     F_    0.834764 0.189960 0.144235 -0.670283
F8    F     F_    0.189496 0.159092 0.804493 -0.702587
C101  C     C_1   0.524618 0.676108 0.194509 0.292289
N33   N     N_1   0.585487 0.694052 0.278938 -0.036361
C102  C     C_1   0.539606 0.663192 0.807155 0.295630
N34   N     N_1   0.497725 0.689602 0.727626 -0.014185
C103  C     C_1   0.028509 0.175542 0.194332 0.201311
N35   N     N_1   0.091305 0.193698 0.277273 -0.063159
C104  C     C_1   0.039216 0.163466 0.807386 0.289101
N36   N     N_1   0.997069 0.190061 0.728135 -0.013177
F9    F     F_    0.473504 0.596184 0.273480 -0.749308
F10   F     F_    0.400618 0.592712 0.648886 -0.743582
F11   F     F_    0.974673 0.096376 0.274353 -0.704376
F12   F     F_    0.900706 0.092829 0.649121 -0.740649
C105  C     C_1   0.318794 0.672477 0.797431 0.082503
N37   N     N_1   0.287614 0.688364 0.709139 -0.041722
C106  C     C_1   0.739071 0.658290 0.197133 0.025043
N38   N     N_1   0.781428 0.681461 0.280435 -0.074676
C107  C     C_1   0.812067 0.173219 0.798583 0.060080
N39   N     N_1   0.778223 0.189713 0.710048 -0.042129
C108  C     C_1   0.239874 0.157878 0.197296 0.002189
N40   N     N_1   0.282856 0.180846 0.280819 -0.083987

loop_
_geom_bond_atom_site_label_1
_geom_bond_atom_site_label_2
_ccdc_geom_bond_type
C2    N2    A    
C55   F7    S    
C104  N36   T    
C95   H43   S    
C88   N24   A    
C55   C59   A    
C76   H32   S    
C103  N35   T    
C6    C58   S    
C37   F1    S    
C19   C20   A    
C89   N25   A    
N16   Ni7   S    
C71   H27   S    
N2    Ni2   S    
C107  N39   T    
C92   N28   A    
N6    Ni6   S    
C48   C104  S    
C12   C84   A    
C33   C39   A    
C10   C66   S    
C9    C73   A    
C72   H28   S    
N20   Ni8   S    
N5    N25   A    
C29   H9    S    
C35   C37   A    
C38   C42   A    
N26   Ni5   S    
C82   N18   A    
C90   C106  S    
C44   C99   S    
C95   C99   A    
C94   C98   A    
C75   N11   A    
N29   Ni2   S    
C73   N9    A    
C14   C78   A    
C53   F5    S    
C47   C103  S    
C92   C108  S    
C35   C59   A    
C94   N30   A    
C41   C49   A    
C26   H46   S    
C84   F12   S    
C88   H40   S    
C83   F11   S    
N27   Ni8   S    
C56   F8    S    
C61   C66   A    
C49   H17   S    
C20   C24   A    
C75   H31   S    
C38   F2    S    
C40   F4    S    
C51   H19   S    
C1    N1    A    
C8    C92   A    
C23   C27   A    
N11   Ni4   S    
N4    Ni4   S    
C82   F10   S    
N15   N23   A    
N12   Ni3   S    
N32   Ni3   S    
C6    C46   A    
N2    N30   A    
N13   N21   A    
C44   C52   A    
C15   C23   S    
C48   N8    A    
C69   H25   S    
C102  N34   T    
C16   C24   S    
N18   Ni6   S    
N22   Ni2   S    
N1    Ni1   S    
C17   C30   S    
C29   H5    S    
C61   C62   A    
C77   H33   S    
N11   N19   A    
C4    N4    A    
C19   C32   S    
C7    C59   S    
N10   Ni1   S    
C52   C54   A    
C17   C18   A    
C13   C77   A    
N8    Ni8   S    
C77   N13   A    
C46   N6    A    
C73   H29   S    
N25   Ni6   S    
C28   H48   S    
C74   N10   A    
C13   C21   S    
C94   H42   S    
C64   C67   A    
C43   C100  S    
C14   C86   A    
C16   C88   A    
C42   C97   S    
C1    C97   A    
N7    Ni7   S    
C93   N29   A    
N19   Ni7   S    
N23   Ni3   S    
C89   C105  S    
C11   C83   A    
C25   C26   A    
C6    C90   A    
C5    C45   A    
C15   C79   A    
C10   C82   A    
C80   N16   A    
C56   C60   A    
N15   Ni8   S    
C16   C80   A    
C7    C47   A    
N4    N32   A    
C19   C23   A    
C108  N40   T    
C8    C48   A    
N13   Ni6   S    
C84   N20   A    
C3    C99   A    
C96   H44   S    
C39   F3    S    
N24   Ni4   S    
N3    N31   A    
C106  N38   T    
N14   N22   A    
C40   C44   A    
C68   C72   A    
C87   N23   A    
C9    C65   S    
N1    N29   A    
C105  N37   T    
C101  N33   T    
C91   N27   A    
C18   C29   S    
C96   N32   A    
C35   H15   S    
C78   H34   S    
N21   Ni1   S    
C42   C50   A    
C52   H20   S    
C95   N31   A    
C30   H10   S    
C78   N14   A    
C1    H1    S    
C50   H18   S    
C4    C100  A    
C32   H8    S    
C14   C22   S    
C34   C40   A    
N16   N24   A    
C45   N5    A    
N9    Ni2   S    
C11   C67   S    
N9    N17   A    
C36   H16   S    
C74   H30   S    
C93   C97   A    
C7    C91   A    
C62   H22   S    
C93   H41   S    
N10   N18   A    
N28   Ni7   S    
C81   F9    S    
N31   Ni4   S    
C54   C58   A    
C85   H37   S    
C3    H3    S    
C21   C25   A    
C63   C68   A    
C76   N12   A    
C81   N17   A    
C32   H12   S    
C62   C65   A    
N17   Ni5   S    
C18   C22   A    
C31   H7    S    
C31   C32   S    
C24   C28   A    
C61   H21   S    
C87   H39   S    
C3    N3    A    
C36   C60   A    
C49   C55   A    
N8    N28   A    
N14   Ni5   S    
C63   H23   S    
N3    Ni3   S    
C33   C57   A    
C34   H14   S    
C79   H35   S    
C64   H24   S    
C90   N26   A    
C33   H13   S    
C80   H36   S    
C5    C57   S    
C12   C68   S    
C12   C76   A    
C54   F6    S    
C91   C107  S    
C11   C75   A    
C50   C56   A    
C8    C60   S    
C10   C74   A    
C70   H26   S    
C46   C102  S    
C66   C70   A    
N5    Ni5   S    
C86   N22   A    
C43   C51   A    
C65   C69   A    
C96   C100  A    
C36   C38   A    
C53   C57   A    
C4    H4    S    
C31   H11   S    
C67   C71   A    
N12   N20   A    
C37   C41   A    
C69   C70   A    
C83   N19   A    
C85   N21   A    
N30   Ni1   S    
C86   H38   S    
C29   C30   S    
C63   C64   A    
N7    N27   A    
C79   N15   A    
N6    N26   A    
C71   C72   A    
C2    C98   A    
C27   H47   S    
C22   C26   A    
C15   C87   A    
C13   C85   A    
C27   C28   A    
C34   C58   A    
C2    H2    S    
C41   C98   S    
C25   H45   S    
C51   C53   A    
C45   C101  S    
C39   C43   A    
C5    C89   A    
C30   H6    S    
C9    C81   A    
C47   N7    A    
C20   C31   S    
C17   C21   A    
