data_mof_unit_11028.cif
_audit_creation_date              2012-12-11T15:45:04-0500
_audit_creation_method            fapswitch 2.2
_symmetry_space_group_name_H-M    P1
_symmetry_Int_Tables_number       1
_space_group_crystal_system       triclinic
_cell_length_a                    19.323159
_cell_length_b                    11.389556
_cell_length_c                    18.710838
_cell_angle_alpha                 89.668921
_cell_angle_beta                  90.22149
_cell_angle_gamma                 88.641978
_cell_volume                      4116.66405813

loop_
_atom_site_label
_atom_site_type_symbol
_atom_type_description
_atom_site_fract_x
_atom_site_fract_y
_atom_site_fract_z
_atom_type_partial_charge
C1    C     C_R   0.759268 0.533989 0.647016 0.539332
C2    C     C_R   0.176547 0.064505 0.547390 -0.146264
C3    C     C_R   0.531413 0.905287 0.954388 0.023716
C4    C     C_R   0.959900 0.242500 0.971321 -0.086884
C5    C     C_R   0.967157 0.250616 0.045951 -0.072921
C6    C     C_R   0.459909 0.742491 0.971318 -0.086910
C7    C     C_R   0.467164 0.750607 0.045949 -0.072954
C8    C     C_3   0.038169 0.531657 0.028565 -0.206129
C9    C     C_3   0.006221 0.527205 0.957477 -0.200381
C10   C     C_3   0.538143 0.031668 0.028570 -0.206170
C11   C     C_3   0.506206 0.027209 0.957478 -0.200386
C12   C     C_R   0.760840 0.532986 0.851560 0.560986
C13   C     C_R   0.324976 0.573291 0.449628 -0.150366
C14   C     C_R   0.239428 0.534293 0.148868 0.568419
C15   C     C_R   0.260840 0.032986 0.851560 0.560985
C16   C     C_R   0.739428 0.034292 0.148868 0.568418
C17   C     C_R   0.787745 0.166448 0.860327 0.559883
C18   C     C_R   0.212431 0.167177 0.140341 0.558354
C19   C     C_R   0.287747 0.666453 0.860327 0.559888
C20   C     C_R   0.712432 0.667175 0.140341 0.558337
C21   C     C_R   0.966056 0.344142 0.854347 0.537997
C22   C     C_R   0.030074 0.346722 0.147512 0.548756
C23   C     C_R   0.466057 0.844141 0.854346 0.537995
C24   C     C_R   0.676547 0.564505 0.547390 -0.146265
C25   C     C_R   0.530074 0.846722 0.147513 0.548767
C26   C     C_R   0.762196 0.104601 0.415359 0.021526
C27   C     C_R   0.235690 0.102458 0.583798 0.021207
C28   C     C_R   0.262196 0.604601 0.415359 0.021528
C29   C     C_R   0.735690 0.602458 0.583798 0.021207
C30   C     C_R   0.720656 0.188943 0.449280 0.024451
C31   C     C_R   0.272053 0.192908 0.551766 0.024026
C32   C     C_R   0.220656 0.688943 0.449280 0.024452
C33   C     C_R   0.772053 0.692908 0.551766 0.024025
C34   C     C_R   0.732933 0.219362 0.520488 0.018780
C35   C     C_3   0.644912 0.192484 0.458533 -0.257306
C36   C     C_R   0.259489 0.224291 0.480410 0.014149
C37   C     C_R   0.232933 0.719362 0.520488 0.018780
C38   C     C_R   0.759489 0.724291 0.480410 0.014149
C39   C     C_2   0.646436 0.159367 0.917524 0.599508
C40   C     C_2   0.356464 0.129302 0.085044 0.646140
C41   C     C_2   0.146440 0.659373 0.917524 0.599503
C42   C     C_2   0.856468 0.629291 0.085039 0.646193
C43   C     C_2   0.635969 0.215939 0.077967 0.546578
C44   C     C_2   0.372454 0.188936 0.931824 0.530021
C45   C     C_2   0.135968 0.715938 0.077966 0.546580
C46   C     C_3   0.347453 0.206250 0.544763 -0.260699
C47   C     C_2   0.872457 0.688931 0.931825 0.530035
C48   C     C_2   0.911304 0.953141 0.918554 0.604834
C49   C     C_2   0.085924 0.987519 0.079815 0.646823
C50   C     C_2   0.411305 0.453144 0.918553 0.604824
C51   C     C_2   0.585927 0.487515 0.079817 0.646836
C52   C     C_2   0.780427 0.898881 0.918698 0.592829
C53   C     C_2   0.217250 0.914099 0.074444 0.572934
C54   C     C_2   0.280427 0.398891 0.918702 0.592841
C55   C     C_2   0.717253 0.414096 0.074447 0.572901
C56   C     C_3   0.144912 0.692484 0.458533 -0.257306
C57   C     C_3   0.847453 0.706250 0.544763 -0.260699
C58   C     C_3   0.657968 0.224667 0.536002 -0.264063
C59   C     C_3   0.334008 0.240492 0.467266 -0.266178
C60   C     C_3   0.157968 0.724667 0.536002 -0.264063
C61   C     C_R   0.240240 0.534632 0.353070 0.543569
C62   C     C_3   0.834008 0.740492 0.467266 -0.266177
C63   C     C_R   0.785889 0.163466 0.560199 0.001614
C64   C     C_R   0.211988 0.162842 0.438974 0.001942
C65   C     C_R   0.285889 0.663466 0.560199 0.001614
C66   C     C_R   0.711988 0.662842 0.438974 0.001942
C67   C     C_R   0.995150 0.339196 0.424040 -0.030107
C68   C     C_R   0.003910 0.338574 0.575336 -0.031048
C69   C     C_R   0.495150 0.839196 0.424040 -0.030106
C70   C     C_R   0.503910 0.838574 0.575336 -0.031048
C71   C     C_R   0.988668 0.122795 0.427107 -0.089090
C72   C     C_R   0.259268 0.033989 0.647016 0.539333
C73   C     C_R   0.014704 0.122353 0.573596 -0.088543
C74   C     C_R   0.488668 0.622795 0.427107 -0.089090
C75   C     C_R   0.514704 0.622353 0.573596 -0.088543
C76   C     C_R   0.995478 0.016903 0.464341 -0.163097
C77   C     C_R   0.009699 0.016717 0.537149 -0.161520
C78   C     C_R   0.495478 0.516903 0.464341 -0.163097
C79   C     C_R   0.509699 0.516717 0.537149 -0.161519
C80   C     C_R   0.004701 0.230868 0.537747 0.011984
C81   C     C_R   0.996464 0.231130 0.462241 0.014232
C82   C     C_R   0.504701 0.730868 0.537747 0.011984
C83   C     C_R   0.740240 0.034632 0.353070 0.543565
C84   C     C_R   0.496464 0.731130 0.462241 0.014232
C85   C     C_R   0.007013 0.444636 0.535750 0.010605
C86   C     C_R   0.989446 0.444925 0.462935 0.011108
C87   C     C_R   0.507013 0.944636 0.535750 0.010604
C88   C     C_R   0.489446 0.944925 0.462935 0.011108
C89   C     C_R   0.791876 0.171725 0.638825 0.564250
C90   C     C_R   0.207711 0.170965 0.360404 0.561994
C91   C     C_R   0.291876 0.671725 0.638825 0.564250
C92   C     C_R   0.707711 0.670965 0.360404 0.561989
C93   C     C_R   0.022693 0.552686 0.568059 -0.086276
C94   C     C_R   0.835440 0.098651 0.521787 -0.147785
C95   C     C_R   0.971747 0.553219 0.429639 -0.084355
C96   C     C_R   0.522693 0.052686 0.568059 -0.086276
C97   C     C_R   0.471747 0.053219 0.429639 -0.084355
C98   C     C_R   0.008280 0.658476 0.533327 -0.146242
C99   C     C_R   0.984201 0.658750 0.463506 -0.146374
C100  C     C_R   0.508279 0.158476 0.533327 -0.146242
C101  C     C_R   0.484201 0.158750 0.463506 -0.146374
C102  C     C_R   0.752556 0.096740 0.081595 0.009277
C103  C     C_R   0.249227 0.097991 0.918858 0.019332
C104  C     C_R   0.252558 0.596746 0.081596 0.009281
C105  C     C_R   0.166150 0.091048 0.475531 -0.141276
C106  C     C_R   0.749228 0.597989 0.918858 0.019327
C107  C     C_R   0.813436 0.062749 0.045766 -0.065989
C108  C     C_R   0.185043 0.083362 0.951986 -0.054642
C109  C     C_R   0.313439 0.562758 0.045768 -0.066004
C110  C     C_R   0.685044 0.583358 0.951987 -0.054644
C111  C     C_R   0.819948 0.082296 0.973720 -0.086678
C112  C     C_R   0.177640 0.104876 0.024455 -0.035613
C113  C     C_R   0.319952 0.582306 0.973721 -0.086694
C114  C     C_R   0.677642 0.604872 0.024456 -0.035607
C115  C     C_R   0.706598 0.169588 0.966637 0.041496
C116  C     C_R   0.335440 0.598651 0.521787 -0.147785
C117  C     C_R   0.296401 0.152640 0.036359 0.035375
C118  C     C_R   0.206601 0.669597 0.966638 0.041494
C119  C     C_R   0.796402 0.652636 0.036359 0.035372
C120  C     C_R   0.699265 0.160706 0.042584 -0.010917
C121  C     C_R   0.305571 0.143105 0.961276 0.016379
C122  C     C_R   0.199267 0.660713 0.042585 -0.010921
C123  C     C_R   0.805572 0.643102 0.961276 0.016414
C124  C     C_3   0.842307 0.939981 0.036435 -0.188849
C125  C     C_3   0.150764 0.967838 0.961008 -0.188303
C126  C     C_3   0.342310 0.439991 0.036436 -0.188832
C127  C     C_R   0.666150 0.591048 0.475531 -0.141276
C128  C     C_3   0.650767 0.467832 0.961009 -0.188297
C129  C     C_3   0.841010 0.959404 0.956008 0.076810
C130  C     C_3   0.155031 0.983804 0.040653 0.076185
C131  C     C_3   0.341012 0.459413 0.956009 0.076812
C132  C     C_3   0.655033 0.483799 0.040655 0.076194
C133  C     C_R   0.771718 0.145514 0.935398 -0.014120
C134  C     C_R   0.228806 0.152311 0.064835 -0.035962
C135  C     C_R   0.271722 0.645525 0.935400 -0.014122
C136  C     C_R   0.728808 0.652309 0.064835 -0.035986
C137  C     C_R   0.971675 0.345810 0.647586 0.523873
C138  C     C_R   0.824976 0.073291 0.449628 -0.150366
C139  C     C_R   0.028135 0.346572 0.352233 0.520314
C140  C     C_R   0.471675 0.845810 0.647586 0.523874
C141  C     C_R   0.528135 0.846572 0.352233 0.520318
C142  C     C_R   0.010470 0.335769 0.073571 0.050683
C143  C     C_R   0.992143 0.322320 0.925371 0.009558
C144  C     C_R   0.510468 0.835770 0.073572 0.050636
C145  C     C_R   0.492147 0.822320 0.925370 0.009550
C146  C     C_R   0.046134 0.404953 0.026733 -0.003476
C147  C     C_R   0.031418 0.405276 0.954386 0.023684
C148  C     C_R   0.546125 0.904967 0.026735 -0.003482
Cr1   Cr    Cr6+3 0.885860 0.491680 0.749630 1.074794
Cr2   Cr    Cr6+3 0.112430 0.179310 0.249850 1.053822
Cr3   Cr    Cr6+3 0.387570 0.679310 0.750150 1.049186
Cr4   Cr    Cr6+3 0.612430 0.679310 0.249850 1.053821
Cr5   Cr    Cr6+3 0.114140 0.491680 0.250370 1.064231
Cr6   Cr    Cr6+3 0.385860 0.991680 0.749630 1.074789
Cr7   Cr    Cr6+3 0.614140 0.991680 0.250370 1.064236
Cr8   Cr    Cr6+3 0.730490 0.332970 0.748720 1.034468
Cr9   Cr    Cr6+3 0.269510 0.332970 0.251280 1.038026
Cr10  Cr    Cr6+3 0.230490 0.832970 0.748720 1.034467
Cr11  Cr    Cr6+3 0.769510 0.832970 0.251280 1.038050
Cr12  Cr    Cr6+3 0.887570 0.179310 0.750150 1.049189
H1    H     H_    0.878831 0.058040 0.549120 0.163267
H2    H     H_    0.183173 0.893486 0.942404 0.208613
H3    H     H_    0.306106 0.373090 0.055128 0.190307
H4    H     H_    0.683177 0.393480 0.942406 0.208609
H5    H     H_    0.894767 0.930770 0.060736 0.220368
H6    H     H_    0.097709 0.971226 0.937942 0.231641
H7    H     H_    0.394771 0.430784 0.060736 0.220395
H8    H     H_    0.597712 0.471218 0.937944 0.231648
H9    H     H_    0.925334 0.181916 0.948820 0.163862
H10   H     H_    0.939380 0.192578 0.081096 0.152950
H11   H     H_    0.425349 0.681899 0.948816 0.163879
H12   H     H_    0.126507 0.045304 0.447231 0.165156
H13   H     H_    0.439390 0.692562 0.081093 0.152971
H14   H     H_    0.091676 0.553420 0.026075 0.177229
H15   H     H_    0.949232 0.524965 0.961956 0.182730
H16   H     H_    0.591648 0.053447 0.026086 0.177255
H17   H     H_    0.449216 0.024956 0.961951 0.182664
H18   H     H_    0.004334 0.570681 0.070260 0.212579
H19   H     H_    0.024402 0.585013 0.915174 0.212699
H20   H     H_    0.504299 0.070677 0.070262 0.212562
H21   H     H_    0.524390 0.085024 0.915180 0.212702
H22   H     H_    0.862392 0.016840 0.423458 0.136094
H23   H     H_    0.378831 0.558040 0.549120 0.163267
H24   H     H_    0.142617 0.002388 0.571543 0.140146
H25   H     H_    0.362392 0.516840 0.423458 0.136094
H26   H     H_    0.642617 0.502388 0.571543 0.140146
H27   H     H_    0.122841 0.604045 0.451741 0.176436
H28   H     H_    0.874862 0.620218 0.551647 0.178724
H29   H     H_    0.622841 0.104045 0.451741 0.176436
H30   H     H_    0.374862 0.120218 0.551647 0.178724
H31   H     H_    0.619615 0.264543 0.426893 0.149365
H32   H     H_    0.366988 0.279356 0.577756 0.153924
H33   H     H_    0.119615 0.764544 0.426893 0.149365
H34   H     H_    0.626507 0.545304 0.447231 0.165157
H35   H     H_    0.866988 0.779356 0.577756 0.153924
H36   H     H_    0.638975 0.313953 0.549445 0.129879
H37   H     H_    0.346217 0.332592 0.455406 0.140765
H38   H     H_    0.138975 0.813953 0.549445 0.129879
H39   H     H_    0.846217 0.832592 0.455406 0.140765
H40   H     H_    0.644287 0.155538 0.575027 0.155520
H41   H     H_    0.353281 0.175939 0.427648 0.156505
H42   H     H_    0.144287 0.655538 0.575027 0.155520
H43   H     H_    0.853281 0.675939 0.427648 0.156505
H44   H     H_    0.990288 0.935217 0.436216 0.102826
H45   H     H_    0.016789 0.739988 0.560510 0.108122
H46   H     H_    0.016780 0.935039 0.565901 0.100775
H47   H     H_    0.490288 0.435217 0.436216 0.102825
H48   H     H_    0.516780 0.435039 0.565901 0.100775
H49   H     H_    0.974553 0.118709 0.371221 0.138975
H50   H     H_    0.029047 0.117915 0.629481 0.140818
H51   H     H_    0.474553 0.618709 0.371221 0.138975
H52   H     H_    0.529047 0.617915 0.629481 0.140817
H53   H     H_    0.949167 0.556854 0.376582 0.145172
H54   H     H_    0.045680 0.556150 0.620841 0.147689
H55   H     H_    0.449167 0.056854 0.376582 0.145173
H56   H     H_    0.973946 0.740567 0.435736 0.106192
H57   H     H_    0.545680 0.056150 0.620841 0.147689
H58   H     H_    0.571242 0.240676 0.858605 0.324627
H59   H     H_    0.428472 0.193259 0.151898 0.327775
H60   H     H_    0.071244 0.740678 0.858606 0.324627
H61   H     H_    0.928478 0.693233 0.151895 0.327780
H62   H     H_    0.537270 0.275870 0.065321 0.365888
H63   H     H_    0.466959 0.253027 0.953293 0.376977
H64   H     H_    0.037270 0.775869 0.065320 0.365867
H65   H     H_    0.966961 0.753023 0.953296 0.376974
H66   H     H_    0.966857 0.920035 0.829235 0.317325
H67   H     H_    0.516790 0.239988 0.560510 0.108122
H68   H     H_    0.029570 0.948135 0.167159 0.314248
H69   H     H_    0.466855 0.420036 0.829233 0.317324
H70   H     H_    0.529572 0.448134 0.167161 0.314246
H71   H     H_    0.682551 0.841425 0.926193 0.357409
H72   H     H_    0.311578 0.837298 0.059473 0.354036
H73   H     H_    0.182552 0.341433 0.926201 0.357407
H74   H     H_    0.811581 0.337296 0.059479 0.354033
H75   H     H_    0.473946 0.240567 0.435736 0.106190
H76   H     H_    0.806101 0.873083 0.055126 0.190292
O1    O     O_R   0.957020 0.451640 0.669920 -0.515645
O2    O     O_R   0.168040 0.093290 0.169870 -0.430395
O3    O     O_R   0.331960 0.593290 0.830130 -0.440642
O4    O     O_R   0.668040 0.593290 0.169870 -0.430403
O5    O     O_R   0.945600 0.250580 0.824860 -0.526236
O6    O     O_R   0.054400 0.250580 0.175140 -0.510734
O7    O     O_R   0.445600 0.750580 0.824860 -0.526242
O8    O     O_R   0.554400 0.750580 0.175140 -0.510729
O9    O     O_3   0.834640 0.334650 0.749500 -0.327799
O10   O     O_3   0.165360 0.334650 0.250500 -0.324255
O11   O     O_3   0.334640 0.834650 0.749500 -0.327801
O12   O     O_R   0.042980 0.451640 0.330080 -0.520287
O13   O     O_3   0.665360 0.834650 0.250500 -0.324255
O14   O     O_R   0.821450 0.543440 0.674610 -0.487197
O15   O     O_R   0.178550 0.543440 0.325390 -0.487693
O16   O     O_R   0.321450 0.043440 0.674610 -0.487196
O17   O     O_R   0.678550 0.043440 0.325390 -0.487696
O18   O     O_R   0.715320 0.458650 0.668100 -0.544188
O19   O     O_R   0.284680 0.458650 0.331900 -0.543129
O20   O     O_R   0.215320 0.958650 0.668100 -0.544188
O21   O     O_R   0.784680 0.958650 0.331900 -0.543127
O22   O     O_R   0.737170 0.209590 0.674530 -0.492593
O23   O     O_R   0.457020 0.951640 0.669920 -0.515644
O24   O     O_R   0.262830 0.209590 0.325470 -0.498221
O25   O     O_R   0.237170 0.709590 0.674530 -0.492593
O26   O     O_R   0.762830 0.709590 0.325470 -0.498219
O27   O     O_R   0.832710 0.092740 0.669580 -0.490206
O28   O     O_R   0.167290 0.092740 0.330420 -0.493101
O29   O     O_R   0.332710 0.592740 0.669580 -0.490205
O30   O     O_R   0.667290 0.592740 0.330420 -0.493104
O31   O     O_R   0.946290 0.250060 0.676040 -0.528886
O32   O     O_R   0.053710 0.250060 0.323960 -0.529518
O33   O     O_R   0.446290 0.750060 0.676040 -0.528886
O34   O     O_R   0.542980 0.951640 0.330080 -0.520286
O35   O     O_R   0.553710 0.750060 0.323960 -0.529519
O36   O     O_R   0.956270 0.452200 0.830470 -0.498460
O37   O     O_R   0.043730 0.452200 0.169530 -0.514056
O38   O     O_R   0.456270 0.952200 0.830470 -0.498459
O39   O     O_R   0.543730 0.952200 0.169530 -0.514049
O40   O     O_R   0.820760 0.543950 0.823440 -0.443203
O41   O     O_R   0.179240 0.543950 0.176560 -0.453133
O42   O     O_R   0.320760 0.043950 0.823440 -0.443207
O43   O     O_R   0.679240 0.043950 0.176560 -0.453133
O44   O     O_R   0.714570 0.459210 0.828640 -0.529999
O45   O     O_R   0.736470 0.210100 0.823360 -0.458220
O46   O     O_R   0.285430 0.459210 0.171360 -0.522296
O47   O     O_R   0.214570 0.959210 0.828640 -0.530002
O48   O     O_R   0.785430 0.959210 0.171360 -0.522281
O49   O     O_2   0.641083 0.068178 0.883828 -0.500144
O50   O     O_R   0.603141 0.255505 0.900566 -0.696274
O51   O     O_2   0.376588 0.028141 0.095363 -0.530908
O52   O     O_R   0.389051 0.221450 0.119755 -0.679802
O53   O     O_2   0.141092 0.568185 0.883825 -0.500142
O54   O     O_R   0.103142 0.755507 0.900568 -0.696275
O55   O     O_2   0.876641 0.528144 0.095285 -0.530998
O56   O     O_R   0.263530 0.210100 0.176640 -0.466043
O57   O     O_R   0.889027 0.721421 0.119793 -0.679774
O58   O     O_2   0.632408 0.228294 0.142543 -0.414301
O59   O     O_R   0.580453 0.258109 0.036345 -0.707741
O60   O     O_2   0.381981 0.202513 0.868045 -0.427784
O61   O     O_R   0.423380 0.228438 0.978566 -0.730899
O62   O     O_2   0.132406 0.728293 0.142543 -0.414306
O63   O     O_R   0.080452 0.758104 0.036344 -0.707742
O64   O     O_2   0.881986 0.702504 0.868047 -0.427784
O65   O     O_R   0.923381 0.728435 0.978569 -0.730942
O66   O     O_2   0.963706 0.975285 0.951481 -0.522904
O67   O     O_R   0.236470 0.710100 0.823360 -0.458214
O68   O     O_R   0.917242 0.920799 0.846741 -0.590543
O69   O     O_2   0.037251 0.041590 0.053630 -0.516641
O70   O     O_R   0.078010 0.936391 0.147356 -0.603912
O71   O     O_2   0.463710 0.475274 0.951481 -0.522905
O72   O     O_R   0.417241 0.420806 0.846739 -0.590541
O73   O     O_2   0.537253 0.541581 0.053629 -0.516645
O74   O     O_R   0.578013 0.436390 0.147359 -0.603904
O75   O     O_2   0.782832 0.874874 0.855123 -0.397825
O76   O     O_R   0.719560 0.878269 0.956700 -0.741769
O77   O     O_2   0.220589 0.894957 0.138751 -0.399724
O78   O     O_R   0.763530 0.710100 0.176640 -0.466009
O79   O     O_R   0.273910 0.881428 0.031789 -0.755082
O80   O     O_2   0.282830 0.374883 0.855127 -0.397816
O81   O     O_R   0.219561 0.378278 0.956707 -0.741781
O82   O     O_2   0.720592 0.394958 0.138754 -0.399760
O83   O     O_R   0.773913 0.381423 0.031793 -0.755070
O84   O     O_R   0.831960 0.093290 0.830130 -0.440649

loop_
_geom_bond_atom_site_label_1
_geom_bond_atom_site_label_2
_ccdc_geom_bond_type
C70   C140  S    
C26   C83   S    
C43   O59   S    
C142  C146  A    
C11   H21   S    
C90   O24   A    
C50   O71   D    
Cr5   O15   S    
H59   O52   S    
C57   H35   S    
Cr4   O8    S    
Cr8   O9    S    
Cr9   O19   S    
Cr8   O45   S    
C95   C99   A    
C42   C119  S    
Cr9   O24   S    
C20   O78   A    
C116  H23   S    
C29   C33   A    
C44   C121  S    
C78   H47   S    
Cr4   O13   S    
C24   C127  A    
Cr1   O1    S    
C41   C118  S    
Cr9   O10   S    
C12   O44   A    
C88   C97   A    
C60   H38   S    
C43   C120  S    
C92   O30   A    
C28   C61   S    
C40   C117  S    
H61   O57   S    
C47   O65   S    
C107  C124  S    
C75   H52   S    
C13   H25   S    
C27   C31   A    
H73   O81   S    
C28   C32   A    
C126  H7    S    
Cr3   O33   S    
Cr4   O30   S    
C18   O56   A    
C40   O52   S    
C16   O48   A    
C100  H67   S    
C47   C123  S    
Cr5   O10   S    
C1    C29   S    
Cr11  O48   S    
C53   O79   S    
C141  O34   A    
C69   C88   A    
C60   H42   S    
C82   C84   A    
C17   O84   A    
C17   C133  S    
C48   C129  S    
C23   O7    A    
C103  C121  A    
C1    O18   A    
C21   O5    A    
C146  C147  A    
C25   O8    A    
Cr1   O14   S    
C65   C91   S    
C93   H54   S    
C1    O14   A    
C15   O42   A    
C33   C38   A    
C112  C134  A    
C4    C5    A    
C27   C72   S    
C6    C7    A    
C119  C123  A    
C119  C136  A    
C74   H51   S    
C45   O62   D    
C47   O64   D    
Cr6   O16   S    
Cr11  O26   S    
C137  O1    A    
C138  H22   S    
Cr10  O20   S    
C3    C11   S    
C50   C131  S    
Cr3   O7    S    
H71   O76   S    
C124  H76   S    
C55   C132  S    
C113  C135  A    
C69   C141  S    
C34   C58   S    
C73   C77   A    
C31   C36   A    
Cr5   O37   S    
C15   C103  S    
C91   O29   A    
C75   C79   A    
C21   O36   A    
C10   C148  S    
C38   C62   S    
C125  H2    S    
Cr7   O13   S    
C85   C86   A    
C39   O49   D    
C63   C94   A    
C35   C58   S    
Cr5   O41   S    
C62   H39   S    
C8    H14   S    
C104  C122  A    
Cr5   O12   S    
C128  H4    S    
C140  O33   A    
C118  C122  A    
Cr7   O43   S    
C85   C93   A    
C71   H49   S    
C31   C46   S    
C37   C65   A    
C5    H10   S    
C11   H17   S    
C67   C139  S    
C110  C114  A    
C9    H19   S    
C22   O37   A    
C51   O74   S    
C61   O19   A    
C68   C85   A    
C63   C89   S    
C70   C82   A    
C70   C87   A    
C30   C34   A    
Cr1   O40   S    
Cr11  O13   S    
C86   C95   A    
C66   C92   S    
C20   O4    A    
C52   O76   S    
C19   O3    A    
Cr12  O27   S    
C56   H27   S    
C22   C142  S    
C102  C107  A    
C54   O80   D    
C32   C37   A    
C20   C136  S    
C94   H1    S    
C67   C81   A    
C97   H55   S    
C25   C144  S    
Cr10  O11   S    
C126  H3    S    
Cr2   O32   S    
Cr7   O34   S    
Cr12  O84   S    
Cr2   O10   S    
C42   O55   D    
C35   H31   S    
C107  C111  A    
C8    C146  S    
C89   O22   A    
Cr1   O36   S    
C74   C84   A    
C50   O72   S    
C75   C82   A    
C26   C30   A    
C49   C130  S    
C69   C84   A    
C36   C64   A    
C5    C142  A    
C95   H53   S    
C96   C100  A    
C58   H36   S    
C100  C101  A    
C9    H15   S    
C10   C11   S    
Cr6   O23   S    
C124  H5    S    
C109  C126  S    
Cr6   O11   S    
C110  C128  S    
C112  C130  S    
C18   O2    A    
Cr2   O28   S    
Cr9   O46   S    
C71   C81   A    
C87   C88   A    
C68   C80   A    
H66   O68   S    
C64   C90   S    
Cr12  O9    S    
C36   C59   S    
H68   O70   S    
C41   O54   S    
H63   O61   S    
C52   C129  S    
C140  O23   A    
Cr8   O44   S    
C49   O69   D    
Cr3   O11   S    
C71   C76   A    
C99   H56   S    
C139  O12   A    
Cr4   O35   S    
C19   C135  S    
C96   H57   S    
C98   C99   A    
C24   H26   S    
Cr6   O38   S    
C24   C29   A    
C111  C129  S    
H64   O63   S    
H62   O59   S    
C13   C28   A    
C2    C27   A    
C17   O45   A    
C35   H29   S    
Cr9   O56   S    
C68   C137  S    
C114  C132  S    
C72   O20   A    
C117  C134  A    
C64   C105  A    
H65   O65   S    
Cr7   O39   S    
C6    C145  A    
C115  C133  A    
C108  C112  A    
C55   O83   S    
C61   O15   A    
C2    H24   S    
C14   O41   A    
Cr10  O47   S    
C49   O70   S    
C94   C138  A    
C19   O67   A    
C55   O82   D    
Cr10  O67   S    
C22   O6    A    
C102  C120  A    
C67   C86   A    
Cr1   O9    S    
C46   H32   S    
C26   C138  A    
C51   C132  S    
C45   C122  S    
Cr3   O3    S    
C40   O51   D    
C10   H20   S    
C25   O39   A    
H69   O72   S    
C77   H46   S    
C124  C129  S    
C83   O21   A    
C141  O35   A    
C13   C116  A    
H70   O74   S    
C56   C60   S    
Cr2   O6    S    
C74   C78   A    
C43   O58   D    
C44   O61   S    
C32   C56   S    
C118  C135  A    
C51   O73   D    
H58   O50   S    
C139  O32   A    
C105  H12   S    
C46   C59   S    
C137  O31   A    
C15   O47   A    
C144  C148  A    
C12   O40   A    
C4    C143  A    
C57   C62   S    
C14   O46   A    
C143  C147  A    
C54   C131  S    
C23   C145  S    
C58   H40   S    
C30   C35   S    
C83   O17   A    
C45   O63   S    
C16   O43   A    
C48   O66   D    
C104  C109  A    
C23   O38   A    
C79   H48   S    
C66   C127  A    
C117  C121  A    
C57   H28   S    
C125  C130  S    
Cr3   O29   S    
C38   C66   A    
C8    C9    S    
Cr2   O2    S    
C106  C123  A    
C101  H75   S    
C98   H45   S    
C18   C134  S    
C103  C108  A    
C54   O81   S    
Cr12  O5    S    
C109  C113  A    
C3    C148  A    
C114  C136  A    
H74   O83   S    
C46   H30   S    
C128  C132  S    
Cr11  O78   S    
C7    C144  A    
C3    C145  A    
Cr8   O18   S    
Cr8   O22   S    
C6    H11   S    
C39   O50   S    
C10   H16   S    
C4    H9    S    
C73   H50   S    
Cr6   O42   S    
C76   C77   A    
C21   C143  S    
C127  H34   S    
C78   C79   A    
C111  C133  A    
C9    C147  S    
C59   H41   S    
C14   C104  S    
Cr4   O4    S    
C42   O57   S    
Cr10  O25   S    
C87   C96   A    
C72   O16   A    
C89   O27   A    
C16   C102  S    
C108  C125  S    
C65   C116  A    
C90   O28   A    
C106  C110  A    
H60   O54   S    
H72   O79   S    
C33   C57   S    
C113  C131  S    
C44   O60   D    
C80   C81   A    
C48   O68   S    
C91   O25   A    
C76   H44   S    
C41   O53   D    
C2    C105  A    
C39   C115  S    
C52   O75   D    
C125  H6    S    
C12   C106  S    
Cr7   O17   S    
C126  C131  S    
C59   H37   S    
C7    H13   S    
C34   C63   A    
C73   C80   A    
C92   O26   A    
C62   H43   S    
C37   C60   S    
C56   H33   S    
C8    H18   S    
Cr12  O31   S    
Cr11  O21   S    
C115  C120  A    
C128  H8    S    
C53   O77   D    
C53   C130  S    
C93   C98   A    
C97   C101  A    
