data_mof_unit_27972.cif
_audit_creation_date              2012-12-10T17:49:43-0500
_audit_creation_method            fapswitch 2.2
_symmetry_space_group_name_H-M    P1
_symmetry_Int_Tables_number       1
_space_group_crystal_system       triclinic
_cell_length_a                    10.508384
_cell_length_b                    10.701887
_cell_length_c                    9.905035
_cell_angle_alpha                 88.438271
_cell_angle_beta                  88.919973
_cell_angle_gamma                 92.03294
_cell_volume                      1112.58211101

loop_
_atom_site_label
_atom_site_type_symbol
_atom_type_description
_atom_site_fract_x
_atom_site_fract_y
_atom_site_fract_z
_atom_type_partial_charge
C1    C     C_R   0.502356 0.258793 0.502596 0.875313
C2    C     C_R   0.470867 0.051848 0.629532 0.095920
C3    C     C_R   0.492156 0.123407 0.507504 -0.173037
C4    C     C_R   0.257378 0.501520 0.501334 0.830392
C5    C     C_R   0.479871 0.066947 0.382567 -0.249668
C6    C     C_R   0.456312 0.940244 0.373876 0.163688
C7    C     C_R   0.445672 0.867948 0.495140 -0.209104
C8    C     C_R   0.329083 0.338043 0.147448 -0.162217
C9    C     C_R   0.245182 0.258799 0.080605 -0.218673
C10   C     C_R   0.245915 0.258927 0.940887 -0.196948
C11   C     C_R   0.330921 0.337979 0.867216 -0.198270
C12   C     C_3   0.963145 0.483672 0.372084 -0.121062
C13   C     C_R   0.415877 0.420666 0.931434 0.153102
C14   C     C_R   0.415377 0.420870 0.076068 0.175299
C15   C     C_R   0.583462 0.572735 0.067597 -0.133939
C16   C     C_R   0.479653 0.737336 0.498305 0.885960
C17   C     C_R   0.582496 0.573847 0.924487 -0.119783
C18   C     C_R   0.742447 0.500192 0.498673 0.886049
C19   C     C_3   0.034520 0.520658 0.626411 0.228570
C20   C     C_3   0.951397 0.408735 0.581847 -0.187196
C21   C     C_3   0.877240 0.500907 0.496133 -0.003989
C22   C     C_3   0.958275 0.612881 0.541470 -0.193104
C23   C     C_3   0.040328 0.391811 0.458035 -0.219065
C24   C     C_3   0.047470 0.595220 0.418018 -0.208687
C25   C     C_3   0.439988 0.890323 0.233237 -0.375171
C26   C     C_3   0.568775 0.884202 0.159758 -0.844418
C27   C     C_3   0.072788 0.543136 0.772055 -0.396124
C28   C     C_3   0.957047 0.563868 0.863025 -0.887154
C29   C     C_3   0.122182 0.503271 0.504070 -0.019542
C30   C     C_R   0.489857 0.097425 0.761076 -0.168923
C31   C     C_R   0.441233 0.030972 0.874698 -0.153443
C32   C     C_R   0.376325 0.916901 0.860291 -0.162534
C33   C     C_R   0.371224 0.863947 0.733802 -0.134329
C34   C     C_R   0.427625 0.927168 0.619230 0.073678
H1    H     H_    0.334253 0.867049 0.947532 0.136981
H2    H     H_    0.556174 0.839486 0.061029 0.246674
H3    H     H_    0.611156 0.979770 0.141021 0.241095
H4    H     H_    0.387142 0.798886 0.233105 0.222365
H5    H     H_    0.378652 0.953953 0.175082 0.173009
H6    H     H_    0.652899 0.630674 0.118174 0.147998
H7    H     H_    0.324039 0.330260 0.254679 0.204356
H8    H     H_    0.179962 0.196121 0.137787 0.143691
H9    H     H_    0.181282 0.196417 0.889027 0.155281
H10   H     H_    0.649778 0.634394 0.867578 0.153575
H11   H     H_    0.907597 0.648759 0.828964 0.253390
H12   H     H_    0.327777 0.331438 0.760237 0.212589
H13   H     H_    0.889459 0.481738 0.861837 0.266309
H14   H     H_    0.988304 0.576833 0.968355 0.248549
H15   H     H_    0.121839 0.460399 0.810980 0.225949
H16   H     H_    0.138971 0.626147 0.774542 0.202084
H17   H     H_    0.078183 0.302068 0.424098 0.130746
H18   H     H_    0.488779 0.121521 0.288784 0.181240
H19   H     H_    0.452521 0.069568 0.973707 0.157048
H20   H     H_    0.920283 0.702805 0.574640 0.130470
H21   H     H_    0.091024 0.671072 0.351708 0.136231
H22   H     H_    0.929524 0.468535 0.267987 0.145105
H23   H     H_    0.544937 0.181538 0.780435 0.172816
H24   H     H_    0.908072 0.332842 0.648278 0.133008
H25   H     H_    0.322727 0.773634 0.725701 0.141942
H26   H     H_    0.636007 0.829570 0.220667 0.268022
N1    N     N_R   0.498800 0.498800 0.142780 -0.120657
N2    N     N_R   0.498760 0.498720 0.857170 -0.124427
O1    O     O_R   0.500000 0.316780 0.614690 -0.649770
O2    O     O_R   0.499990 0.316750 0.385360 -0.638916
O3    O     O_R   0.313960 0.499980 0.614650 -0.660975
O4    O     O_R   0.313940 0.499960 0.385310 -0.636506
O5    O     O_R   0.500010 0.683250 0.614640 -0.615921
O6    O     O_R   0.500000 0.683220 0.385310 -0.610490
O7    O     O_R   0.686060 0.500040 0.614690 -0.616325
O8    O     O_R   0.686040 0.500020 0.385350 -0.621879
Zn1   Zn    Zn3+2 0.500010 0.500020 0.653130 0.912125
Zn2   Zn    Zn3+2 0.499990 0.499980 0.346870 0.921626

loop_
_geom_bond_atom_site_label_1
_geom_bond_atom_site_label_2
_ccdc_geom_bond_type
C18   O8    A    
C28   H13   S    
C18   C21   S    
C19   C20   S    
C22   H20   S    
C24   H21   S    
C12   C23   S    
C9    H8    S    
C23   C29   S    
C4    O3    A    
C25   H4    S    
C6    C25   S    
C30   H23   S    
O7    Zn1   S    
C24   C29   S    
O4    Zn2   S    
C13   N2    A    
C8    C9    A    
C5    H18   S    
C16   O6    A    
C19   C27   S    
C9    C10   A    
C4    C29   S    
C27   H16   S    
C2    C34   A    
C18   O7    A    
C33   H25   S    
C21   C22   S    
C1    O1    A    
C28   H11   S    
C32   H1    S    
C19   C22   S    
C8    H7    S    
C25   C26   S    
O3    Zn1   S    
C14   N1    A    
C12   C21   S    
C1    C3    S    
C17   N2    A    
C23   H17   S    
C31   C32   A    
C20   C23   S    
C30   C31   A    
O6    Zn2   S    
C33   C34   A    
C15   N1    A    
C16   O5    A    
C31   H19   S    
C12   H22   S    
N1    Zn2   S    
C26   H2    S    
C7    C16   S    
O1    Zn1   S    
C7    C34   A    
C22   C24   S    
C20   H24   S    
C19   C29   S    
C1    O2    A    
C15   C17   A    
C28   H14   S    
C8    C14   A    
C10   H9    S    
C3    C5    A    
C26   H3    S    
C6    C7    A    
C12   C24   S    
C2    C30   A    
C32   C33   A    
C2    C3    A    
C17   H10   S    
C25   H5    S    
C4    O4    A    
C11   C13   A    
C5    C6    A    
N2    Zn1   S    
O5    Zn1   S    
O2    Zn2   S    
C15   H6    S    
C10   C11   A    
C20   C21   S    
C27   C28   S    
C11   H12   S    
O8    Zn2   S    
C13   C14   A    
C26   H26   S    
C27   H15   S    
