data_mof_unit_22077.cif
_audit_creation_date              2012-12-11T16:39:21-0500
_audit_creation_method            fapswitch 2.2
_symmetry_space_group_name_H-M    P1
_symmetry_Int_Tables_number       1
_space_group_crystal_system       triclinic
_cell_length_a                    25.085713
_cell_length_b                    6.97476
_cell_length_c                    21.617898
_cell_angle_alpha                 90.332078
_cell_angle_beta                  99.060824
_cell_angle_gamma                 89.826677
_cell_volume                      3735.1457041

loop_
_atom_site_label
_atom_site_type_symbol
_atom_type_description
_atom_site_fract_x
_atom_site_fract_y
_atom_site_fract_z
_atom_type_partial_charge
O1    O     O_R   0.188680 0.380540 0.689820 -0.535603
O2    O     O_R   0.811320 0.619460 0.310180 -0.528574
O3    O     O_R   0.311320 0.880540 0.810180 -0.548750
O4    O     O_R   0.688680 0.119460 0.189820 -0.531052
O5    O     O_R   0.300940 0.707710 0.691860 -0.512444
O6    O     O_R   0.699060 0.292290 0.308140 -0.537610
O7    O     O_R   0.199060 0.207710 0.808140 -0.498416
O8    O     O_R   0.800940 0.792290 0.191860 -0.537884
C1    C     C_R   0.317641 0.541770 0.676391 0.729781
C2    C     C_R   0.680744 0.458561 0.321352 0.723823
C3    C     C_R   0.183240 0.042175 0.824940 0.837283
C4    C     C_R   0.818794 0.957573 0.178172 0.731310
O9    O     O_R   0.188460 0.710090 0.682560 -0.503878
O10   O     O_R   0.811540 0.289910 0.317440 -0.511860
O11   O     O_R   0.311540 0.210090 0.817440 -0.516595
O12   O     O_R   0.688460 0.789910 0.182560 -0.515603
O13   O     O_R   0.198040 0.882940 0.800810 -0.522846
O14   O     O_R   0.801960 0.117060 0.199190 -0.536286
O15   O     O_R   0.301960 0.382940 0.699190 -0.548986
O16   O     O_R   0.698040 0.617060 0.300810 -0.537931
C5    C     C_R   0.168141 0.542889 0.665885 0.769889
C6    C     C_R   0.832446 0.456607 0.333636 0.683343
C7    C     C_R   0.331901 0.043984 0.833489 0.722219
C8    C     C_R   0.668346 0.956303 0.165637 0.674402
O17   O     O_3   0.253280 0.547850 0.788810 -0.341358
O18   O     O_3   0.746720 0.452150 0.211190 -0.332143
O19   O     O_3   0.246720 0.047850 0.711190 -0.356492
O20   O     O_3   0.753280 0.952150 0.288810 -0.333232
V1    V     V_3+5 0.249390 0.821720 0.742800 1.696644
V2    V     V_3+5 0.750610 0.178280 0.257200 1.657361
V3    V     V_3+5 0.250610 0.321720 0.757200 1.709518
V4    V     V_3+5 0.749390 0.678280 0.242800 1.656445
C9    C     C_R   0.464913 0.888650 0.927659 -0.008439
C10   C     C_R   0.536649 0.139688 0.073838 -0.050638
C11   C     C_R   0.074663 0.366425 0.520365 -0.083905
C12   C     C_R   0.968825 0.637962 0.416800 -0.067357
H1    H     H_    0.495418 0.784864 0.920508 0.150185
H2    H     H_    0.515773 0.275470 0.072402 0.139759
H3    H     H_    0.071325 0.238673 0.491297 0.131833
H4    H     H_    0.992654 0.766361 0.414778 0.132519
C13   C     C_R   0.420146 0.903191 0.880533 -0.096947
C14   C     C_R   0.584575 0.122883 0.116455 -0.116943
C15   C     C_R   0.116911 0.379629 0.571140 -0.103795
C16   C     C_R   0.919071 0.620841 0.377016 -0.110370
H5    H     H_    0.418028 0.812929 0.839567 0.157118
H6    H     H_    0.596525 0.243128 0.147405 0.165083
H7    H     H_    0.146099 0.264145 0.578233 0.169285
H8    H     H_    0.907095 0.735672 0.344255 0.163208
C17   C     C_R   0.380765 0.043360 0.883037 -0.180286
C18   C     C_R   0.617441 0.958294 0.118251 -0.177446
C19   C     C_R   0.121757 0.538534 0.612209 -0.169486
C20   C     C_R   0.885195 0.460034 0.378941 -0.178634
C21   C     C_R   0.391622 0.186860 0.930458 0.457392
C22   C     C_R   0.597996 0.801295 0.077260 0.410109
C23   C     C_R   0.083293 0.691099 0.598685 0.440295
C24   C     C_R   0.905149 0.308425 0.421741 0.417620
C25   C     C_R   0.432062 0.154852 0.982151 -0.164562
C26   C     C_R   0.547363 0.816865 0.039318 -0.181652
C27   C     C_R   0.042479 0.677870 0.545944 -0.166230
C28   C     C_R   0.955664 0.329224 0.460311 -0.162453
H9    H     H_    0.436080 0.256678 0.020299 0.157352
H10   H     H_    0.531723 0.694544 0.011692 0.180486
H11   H     H_    0.012395 0.789982 0.536817 0.200735
H12   H     H_    0.969736 0.220643 0.494644 0.196803
C29   C     C_R   0.470118 0.007059 0.981572 0.039118
C30   C     C_R   0.517898 0.987875 0.033104 0.037468
C31   C     C_R   0.036836 0.515351 0.507355 0.020107
C32   C     C_R   0.987423 0.492422 0.459202 0.020446
C33   C     C_R   0.111509 0.102243 0.971062 0.365580
C34   C     C_R   0.908495 0.806122 0.058777 0.277486
C35   C     C_R   0.382784 0.602123 0.527219 0.367829
C36   C     C_R   0.587789 0.314446 0.437612 0.283565
C37   C     C_R   0.142303 0.156965 0.923740 0.315829
C38   C     C_R   0.861008 0.835461 0.085797 0.279975
C39   C     C_R   0.353540 0.653943 0.576495 0.339893
C40   C     C_R   0.636146 0.341162 0.412218 0.279961
C41   C     C_R   0.144107 0.030006 0.871553 -0.224045
C42   C     C_R   0.861926 0.960797 0.137636 -0.154276
C43   C     C_R   0.356288 0.531346 0.629690 -0.196164
C44   C     C_R   0.636508 0.464660 0.360671 -0.155610
C45   C     C_R   0.109170 0.871783 0.865510 -0.206266
C46   C     C_R   0.906789 0.078901 0.154398 -0.313936
C47   C     C_R   0.394840 0.384175 0.636736 -0.209941
C48   C     C_R   0.591863 0.584157 0.343022 -0.329909
H13   H     H_    0.111014 0.769267 0.828295 0.201680
H14   H     H_    0.907681 0.176335 0.193853 0.124397
H15   H     H_    0.398008 0.292266 0.677468 0.160576
H16   H     H_    0.592009 0.680428 0.303819 0.127358
C49   C     C_R   0.069701 0.846547 0.903933 -0.057167
C50   C     C_R   0.951053 0.071384 0.121974 -0.056621
C51   C     C_R   0.429795 0.352847 0.593009 -0.063784
C52   C     C_R   0.546807 0.581075 0.374534 -0.063823
C53   C     C_R   0.070142 0.964015 0.957560 -0.098353
C54   C     C_R   0.952402 0.934818 0.073209 -0.068403
C55   C     C_R   0.425048 0.464922 0.537952 -0.093696
C56   C     C_R   0.544289 0.445350 0.422931 -0.063413
C57   C     C_1   0.029218 0.946049 0.999187 0.244739
C58   C     C_1   0.995090 0.939134 0.033684 0.242202
C59   C     C_1   0.465728 0.452563 0.495422 0.233723
C60   C     C_1   0.500446 0.448489 0.461376 0.247300
S1    S     S_3+6 0.374556 0.429779 0.915023 0.009611
O21   O     O_2   0.314974 0.464099 0.907971 -0.298525
O22   O     O_2   0.402180 0.557820 0.966320 -0.337981
O23   O     O_3   0.396506 0.481404 0.847428 -0.535060
H17   H     H_    0.364652 0.530085 0.818914 0.334469
S2    S     S_3+6 0.635780 0.597829 0.058188 0.028339
O24   O     O_2   0.668595 0.504208 0.113674 -0.307742
O25   O     O_2   0.598304 0.449224 0.025013 -0.354743
O26   O     O_3   0.675892 0.668496 0.007538 -0.424044
H18   H     H_    0.686194 0.549078 0.987323 0.428277
S3    S     S_3+6 0.078349 0.887381 0.650093 -0.008068
O27   O     O_2   0.128394 0.008015 0.658031 -0.350050
O28   O     O_2   0.030884 0.012545 0.625369 -0.324601
O29   O     O_3   0.069352 0.799074 0.719663 -0.525317
H19   H     H_    0.047211 0.896214 0.737648 0.365574
S4    S     S_3+6 0.869205 0.098924 0.437749 0.030225
O30   O     O_2   0.842160 0.999248 0.379705 -0.324765
O31   O     O_2   0.907380 0.958396 0.474092 -0.348383
O32   O     O_3   0.823397 0.161325 0.482914 -0.423213
H20   H     H_    0.814137 0.040530 0.502606 0.429585
S5    S     S_3+6 0.129409 0.179678 0.050427 0.139364
O33   O     O_2   0.092802 0.341856 0.062635 -0.268062
O34   O     O_2   0.122602 0.015027 0.093019 -0.278694
O35   O     O_3   0.193975 0.251292 0.067173 -0.441208
H21   H     H_    0.197708 0.305173 0.110128 0.393060
S6    S     S_3+6 0.915266 0.595539 0.013656 0.134426
O36   O     O_2   0.895056 0.636257 0.945888 -0.183991
O37   O     O_2   0.973258 0.532459 0.020885 -0.321039
O38   O     O_3   0.878743 0.415319 0.036755 -0.423068
H22   H     H_    0.886406 0.419174 0.083086 0.312103
S7    S     S_3+6 0.360102 0.677955 0.449097 0.159556
O39   O     O_2   0.389806 0.856820 0.436493 -0.234265
O40   O     O_2   0.370466 0.522994 0.403833 -0.279595
O41   O     O_3   0.293271 0.721431 0.438133 -0.441235
H23   H     H_    0.284985 0.776027 0.395495 0.391956
S8    S     S_3+6 0.578426 0.103359 0.480287 0.114178
O42   O     O_2   0.586384 0.150714 0.549001 -0.237212
O43   O     O_2   0.522092 0.029879 0.460215 -0.310742
O44   O     O_3   0.621753 0.928447 0.467598 -0.412171
H24   H     H_    0.616539 0.912504 0.421508 0.326369
S9    S     S_3+6 0.176514 0.381534 0.932307 0.065603
O45   O     O_2   0.175624 0.482725 0.871188 -0.335475
O46   O     O_2   0.150423 0.513644 0.973957 -0.297465
O47   O     O_3   0.240413 0.338277 0.965582 -0.443341
H25   H     H_    0.251129 0.451123 0.992713 0.410889
S10   S     S_3+6 0.797423 0.753261 0.047547 0.151343
O48   O     O_2   0.798172 0.696556 0.980612 -0.190805
O49   O     O_2   0.779805 0.584046 0.082000 -0.304052
O50   O     O_3   0.753253 0.935413 0.047325 -0.440648
H26   H     H_    0.733502 0.909679 0.082378 0.343467
S11   S     S_3+6 0.318447 0.878396 0.574558 0.060270
O51   O     O_2   0.337438 0.985944 0.634336 -0.370043
O52   O     O_2   0.328510 0.004373 0.521524 -0.253769
O53   O     O_3   0.251823 0.836254 0.568394 -0.494709
H27   H     H_    0.235505 0.962448 0.575442 0.355939
S12   S     S_3+6 0.698943 0.259528 0.452864 0.146999
O54   O     O_2   0.695481 0.208820 0.519559 -0.190159
O55   O     O_2   0.717235 0.086331 0.420088 -0.312811
O56   O     O_3   0.744110 0.438179 0.454180 -0.439442
H28   H     H_    0.763335 0.413193 0.418435 0.343626
C61   C     C_2   0.030430 0.690379 0.886483 0.588728
H29   H     H_    0.040687 0.570938 0.858090 0.058227
O57   O     O_2   0.985412 0.697337 0.900561 -0.450045
C62   C     C_2   0.996044 0.202968 0.143634 0.562573
H30   H     H_    0.987751 0.347982 0.158039 0.031281
O58   O     O_2   0.042546 0.146654 0.150168 -0.450498
C63   C     C_2   0.467876 0.190915 0.605279 0.590036
H31   H     H_    0.485559 0.156579 0.653045 0.032513
O59   O     O_2   0.476666 0.085635 0.562900 -0.439011
C64   C     C_2   0.502819 0.717883 0.352588 0.585385
H32   H     H_    0.511180 0.844569 0.326797 0.019523
O60   O     O_2   0.456588 0.687885 0.360353 -0.446382

loop_
_geom_bond_atom_site_label_1
_geom_bond_atom_site_label_2
_ccdc_geom_bond_type
C26   H10   S    
C47   H15   S    
O1    C5    A    
S1    O21   D    
C50   C54   A    
C23   C27   A    
O19   V1    S    
O13   V1    S    
O3    C7    A    
S3    O27   D    
C10   C14   A    
O1    V3    S    
C44   C48   A    
S7    O41   S    
O15   V3    S    
C10   C30   A    
C61   H29   S    
C9    C29   A    
C62   O58   D    
C63   O59   D    
C37   S9    S    
O7    C3    A    
C18   C22   A    
C64   O60   D    
O9    V1    S    
C62   H30   S    
C34   C54   A    
O38   H22   S    
C33   C53   A    
S9    O46   D    
C14   H6    S    
O4    C8    A    
C55   C59   S    
C7    C17   S    
C35   C55   A    
S2    O24   D    
C54   C58   S    
C52   C56   A    
S4    O30   D    
O2    V4    S    
C1    C43   S    
S11   O53   S    
C49   C61   S    
O3    V1    S    
C37   C41   A    
S5    O35   S    
C3    C41   S    
C27   C31   A    
C26   C30   A    
C3    O13   A    
C59   C60   T    
C52   C64   S    
C4    C42   S    
C34   C38   A    
S11   O51   D    
C33   C37   A    
O14   V2    S    
C2    O16   A    
C11   C31   A    
C11   C15   A    
O5    V1    S    
O16   V4    S    
C36   C40   A    
C45   C49   A    
C34   S6    S    
O11   C7    A    
O12   C8    A    
O17   V1    S    
O10   V2    S    
S8    O44   S    
C13   C17   A    
O23   H17   S    
C61   O57   D    
C1    O15   A    
C57   C58   T    
S10   O49   D    
C8    C18   S    
C35   C39   A    
O7    V3    S    
C22   S2    S    
O19   V3    S    
C31   C32   S    
O8    V4    S    
C48   H16   S    
O20   V4    S    
S8    O43   D    
O26   H18   S    
S9    O47   S    
C21   S1    S    
C63   H31   S    
C2    C44   S    
O18   V4    S    
S8    O42   D    
S6    O38   S    
C46   H14   S    
C51   C55   A    
C40   S12   S    
C9    H1    S    
C24   C28   A    
C50   C62   S    
C11   H3    S    
O5    C1    A    
S10   O50   S    
C42   C46   A    
O56   H28   S    
C33   S5    S    
O8    C4    A    
C24   S4    S    
O9    C5    A    
S3    O28   D    
O32   H20   S    
O11   V3    S    
O53   H27   S    
S5    O33   D    
C14   C18   A    
O6    V2    S    
O18   V2    S    
S1    O23   S    
C38   C42   A    
O10   C6    A    
C12   C16   A    
S7    O39   D    
C53   C57   S    
C5    C19   S    
C12   H4    S    
C6    C20   S    
S10   O48   D    
C22   C26   A    
C51   C63   S    
S12   O54   D    
S6    O37   D    
C23   S3    S    
C10   H2    S    
O17   V3    S    
C38   S10   S    
S12   O56   S    
C40   C44   A    
C25   C29   A    
O47   H25   S    
S7    O40   D    
C21   C25   A    
O6    C2    A    
O44   H24   S    
C12   C32   A    
C25   H9    S    
O41   H23   S    
O12   V4    S    
C47   C51   A    
C27   H11   S    
C46   C50   A    
S4    O32   S    
C28   H12   S    
C9    C13   A    
O2    C6    A    
S12   O55   D    
C29   C30   S    
S9    O45   D    
C43   C47   A    
C16   C20   A    
S2    O25   D    
C15   C19   A    
S6    O36   D    
C17   C21   A    
C56   C60   S    
O20   V2    S    
S4    O31   D    
S3    O29   S    
C19   C23   A    
O29   H19   S    
S11   O52   D    
C49   C53   A    
O4    V2    S    
S5    O34   D    
C15   H7    S    
C36   S8    S    
C35   S7    S    
C36   C56   A    
C20   C24   A    
C28   C32   A    
S1    O22   D    
C41   C45   A    
C64   H32   S    
C4    O14   A    
C39   S11   S    
C13   H5    S    
C48   C52   A    
O50   H26   S    
C39   C43   A    
C45   H13   S    
C16   H8    S    
O35   H21   S    
S2    O26   S    
