data_mof_unit_41629.cif
_audit_creation_date              2012-12-10T17:27:49-0500
_audit_creation_method            fapswitch 2.2
_symmetry_space_group_name_H-M    P1
_symmetry_Int_Tables_number       1
_space_group_crystal_system       triclinic
_cell_length_a                    10.62089
_cell_length_b                    12.042323
_cell_length_c                    12.854184
_cell_angle_alpha                 93.677652
_cell_angle_beta                  90.619495
_cell_angle_gamma                 86.946427
_cell_volume                      1638.29238065

loop_
_atom_site_label
_atom_site_type_symbol
_atom_type_description
_atom_site_fract_x
_atom_site_fract_y
_atom_site_fract_z
_atom_type_partial_charge
C1    C     C_R   0.497288 0.522215 0.700285 0.837387
C2    C     C_R   0.530311 0.635166 0.863491 -0.173871
C3    C     C_R   0.465693 0.444452 0.866504 -0.231994
C4    C     C_R   0.739082 0.500859 0.500975 0.965540
C5    C     C_R   0.476729 0.449138 0.973682 0.123253
C6    C     C_R   0.515120 0.548891 0.025907 0.090238
C7    C     C_R   0.527685 0.554909 0.132497 -0.244488
C8    C     C_R   0.464207 0.364229 0.137631 -0.293084
C9    C     C_R   0.451857 0.355869 0.029242 0.448247
C10   C     C_R   0.384439 0.953180 0.402602 -0.290812
C11   C     C_R   0.392415 0.837946 0.413310 0.026128
C12   C     C_R   0.936572 0.488173 0.597726 0.013935
C13   C     C_R   0.554662 0.858423 0.540998 0.067994
C14   C     C_R   0.539641 0.977268 0.541751 0.066337
C15   C     C_R   0.458462 0.023490 0.466195 0.044366
C16   C     C_R   0.502271 0.477757 0.299682 0.935970
C17   C     C_R   0.452535 0.139700 0.456175 -0.024350
C18   C     C_R   0.596102 0.166548 0.596482 -0.055798
C19   C     C_R   0.602209 0.052384 0.613243 -0.089483
C20   C     C_R   0.260849 0.499305 0.499793 0.867142
C21   C     C_R   0.873639 0.477036 0.692852 -0.158068
C22   C     C_R   0.941608 0.465069 0.785195 -0.110398
C23   C     C_R   0.871333 0.502584 0.503461 -0.172905
C24   C     C_R   0.072586 0.464388 0.784563 -0.116155
C25   C     C_R   0.135698 0.475586 0.691568 -0.130326
C26   C     C_R   0.068014 0.487363 0.596890 0.104128
C27   C     C_2   0.660677 0.020931 0.713036 0.452446
C28   C     C_2   0.664295 0.804785 0.592785 0.516688
C29   C     C_2   0.131094 0.510903 0.305845 0.382656
C30   C     C_R   0.930885 0.517891 0.409482 0.452323
C31   C     C_R   0.062254 0.511118 0.406645 -0.141754
C32   C     C_R   0.128253 0.498615 0.501186 -0.215422
C33   C     C_R   0.500364 0.463903 0.188179 -0.087303
C34   C     C_R   0.495508 0.535748 0.811733 -0.094250
C35   C     C_R   0.540084 0.641749 0.970988 -0.162607
H1    H     H_    0.553287 0.706122 0.820995 0.183571
H2    H     H_    0.237400 0.475027 0.694773 0.132507
H3    H     H_    0.557371 0.631476 0.172310 0.179799
H4    H     H_    0.442679 0.294459 0.182389 0.158521
H5    H     H_    0.568843 0.718408 0.010957 0.157651
H6    H     H_    0.902439 0.587566 0.278444 0.362688
H7    H     H_    0.401960 0.202404 0.027876 0.344320
H8    H     H_    0.741705 0.063881 0.743822 0.074754
H9    H     H_    0.652651 0.739325 0.644784 0.093652
H10   H     H_    0.224519 0.542716 0.303475 0.062849
H11   H     H_    0.436193 0.368830 0.825070 0.215612
H12   H     H_    0.391440 0.176216 0.398107 0.128813
H13   H     H_    0.644448 0.224300 0.649000 0.134066
H14   H     H_    0.319603 0.987258 0.345770 0.154891
H15   H     H_    0.333261 0.784431 0.365579 0.137254
H16   H     H_    0.771920 0.478369 0.696914 0.122116
H17   H     H_    0.892467 0.456792 0.857419 0.155325
H18   H     H_    0.125506 0.455402 0.856274 0.162008
N1    N     N_R   0.523130 0.207800 0.519340 -0.100357
N2    N     N_R   0.476870 0.792180 0.480660 -0.146848
O1    O     O_R   0.506170 0.421690 0.658830 -0.633499
O2    O     O_3   0.415155 0.258904 0.976766 -0.770557
O3    O     O_2   0.613751 0.953027 0.765375 -0.590400
O4    O     O_2   0.770555 0.833403 0.576626 -0.589155
O5    O     O_2   0.086201 0.470986 0.224870 -0.543168
O6    O     O_R   0.491330 0.609320 0.646410 -0.646892
O7    O     O_R   0.690660 0.406170 0.506210 -0.618052
O8    O     O_R   0.675810 0.593790 0.493790 -0.615811
O9    O     O_R   0.508670 0.390680 0.353590 -0.619619
O10   O     O_R   0.493830 0.578310 0.341170 -0.631261
O11   O     O_R   0.324190 0.406210 0.506210 -0.612999
O12   O     O_R   0.309340 0.593830 0.493790 -0.622924
O13   O     O_3   0.857346 0.538387 0.322534 -0.738964
Zn1   Zn    Zn3+2 0.509910 0.374720 0.508290 0.961661
Zn2   Zn    Zn3+2 0.490090 0.625280 0.491710 0.956736

loop_
_geom_bond_atom_site_label_1
_geom_bond_atom_site_label_2
_ccdc_geom_bond_type
C2    C35   A    
O6    Zn2   S    
C18   H13   S    
O8    Zn2   S    
C13   C28   S    
C26   C32   A    
C6    C7    A    
C8    H4    S    
C27   H8    S    
C16   C33   S    
C19   C27   S    
C16   O9    A    
C20   O12   A    
C31   C32   A    
C4    O8    A    
C29   O5    D    
C8    C33   A    
O12   Zn2   S    
C13   N2    A    
C2    C34   A    
C35   H5    S    
C25   C26   A    
O9    Zn1   S    
C29   C31   S    
C11   H15   S    
C30   O13   S    
C13   C14   A    
C24   C25   A    
C5    C9    A    
C7    C33   A    
C12   C23   A    
C5    C6    A    
N1    Zn1   S    
C14   C19   A    
H7    O2    S    
C20   O11   A    
C1    O1    A    
C7    H3    S    
C1    C34   S    
O1    Zn1   S    
H6    O13   S    
C9    O2    S    
C10   C15   A    
C12   C26   A    
C30   C31   A    
C22   C24   A    
O11   Zn1   S    
C10   C11   A    
C18   N1    A    
O10   Zn2   S    
N2    Zn2   S    
C23   C30   A    
C4    O7    A    
C21   H16   S    
C11   N2    A    
C6    C35   A    
C22   H17   S    
C18   C19   A    
C20   C32   S    
C28   O4    D    
C2    H1    S    
C15   C17   A    
C4    C23   S    
C14   C15   A    
C16   O10   A    
C3    H11   S    
C3    C34   A    
C25   H2    S    
C24   H18   S    
C21   C22   A    
C10   H14   S    
C12   C21   A    
C28   H9    S    
C17   N1    A    
C17   H12   S    
O7    Zn1   S    
C29   H10   S    
C8    C9    A    
C3    C5    A    
C27   O3    D    
C1    O6    A    
