data_mof_unit_44655.cif
_audit_creation_date              2012-12-10T19:03:05-0500
_audit_creation_method            fapswitch 2.2
_symmetry_space_group_name_H-M    P1
_symmetry_Int_Tables_number       1
_space_group_crystal_system       triclinic
_cell_length_a                    10.782647
_cell_length_b                    10.849991
_cell_length_c                    9.535117
_cell_angle_alpha                 90.84044
_cell_angle_beta                  91.380811
_cell_angle_gamma                 91.116107
_cell_volume                      1114.8654261

loop_
_atom_site_label
_atom_site_type_symbol
_atom_type_description
_atom_site_fract_x
_atom_site_fract_y
_atom_site_fract_z
_atom_type_partial_charge
C1    C     C_R   0.497842 0.262396 0.499007 0.858705
C2    C     C_3   0.876806 0.496851 0.504618 0.041294
C3    C     C_3   0.928524 0.621969 0.450934 -0.344256
C4    C     C_3   0.919286 0.385826 0.414104 -0.405374
C5    C     C_R   0.465969 0.066026 0.620319 0.179283
C6    C     C_R   0.484999 0.129433 0.496419 -0.061486
C7    C     C_R   0.487090 0.062408 0.369446 -0.190812
C8    C     C_R   0.486930 0.933966 0.370729 -0.199510
C9    C     C_R   0.486610 0.871212 0.499063 -0.105083
C10   C     C_R   0.467354 0.939048 0.622039 0.139457
C11   C     C_3   0.535746 0.940023 0.760156 -0.496369
C12   C     C_R   0.259161 0.497402 0.497974 0.855625
C13   C     C_3   0.532477 0.079407 0.758602 -0.461891
C14   C     C_R   0.601332 0.542320 0.077143 0.291327
C15   C     C_R   0.409493 0.440089 0.070793 -0.002723
C16   C     C_R   0.408118 0.441794 0.921894 -0.067810
C17   C     C_R   0.602295 0.540404 0.929796 0.251136
C18   C     C_3   0.662107 0.664794 0.926936 -0.512467
C19   C     C_3   0.659042 0.667948 0.085993 -0.473114
C20   C     C_R   0.498131 0.737921 0.500507 0.791036
C21   C     C_R   0.739791 0.499193 0.501814 0.775891
C22   C     C_3   0.072906 0.468032 0.646237 -0.400504
C23   C     C_3   0.931273 0.478439 0.654060 -0.397569
C24   C     C_3   0.071691 0.626071 0.461429 -0.395276
C25   C     C_3   0.059519 0.398214 0.381422 0.705513
C26   C     C_3   0.119919 0.495202 0.493963 -0.065368
Cu1   Cu    Cu3+1 0.499990 0.499980 0.640670 0.955020
Cu2   Cu    Cu3+1 0.500010 0.500020 0.359330 1.004835
H1    H     H_    0.115049 0.535539 0.723521 0.202584
H2    H     H_    0.861462 0.372531 0.317048 0.225325
H3    H     H_    0.110235 0.665185 0.364901 0.234702
H4    H     H_    0.896758 0.637514 0.341439 0.228775
H5    H     H_    0.494962 0.108600 0.270027 0.167592
H6    H     H_    0.493407 0.884834 0.271759 0.163483
H7    H     H_    0.478700 0.900295 0.844560 0.207494
H8    H     H_    0.631477 0.904792 0.751684 0.202734
H9    H     H_    0.472718 0.119186 0.840489 0.209300
H10   H     H_    0.625853 0.123853 0.750834 0.203923
H11   H     H_    0.336908 0.391269 0.123422 0.234724
H12   H     H_    0.101145 0.376497 0.683231 0.236047
H13   H     H_    0.332517 0.396545 0.863571 0.168323
H14   H     H_    0.757469 0.662477 0.885471 0.193225
H15   H     H_    0.600056 0.731731 0.877799 0.216616
H16   H     H_    0.752708 0.668548 0.136790 0.224722
H17   H     H_    0.595290 0.738014 0.127468 0.202418
H18   H     H_    0.891597 0.393683 0.701560 0.193230
H19   H     H_    0.908019 0.557785 0.723296 0.183380
H20   H     H_    0.102022 0.691643 0.547049 0.175794
H21   H     H_    0.891901 0.699249 0.514834 0.153581
H22   H     H_    0.900169 0.300236 0.473613 0.169770
N1    N     N_R   0.500800 0.500930 0.147930 -0.208098
N2    N     N_R   0.500800 0.500890 0.852020 -0.198590
O1    O     O_R   0.500000 0.319640 0.618810 -0.590308
O2    O     O_R   0.500010 0.319680 0.381230 -0.565776
O3    O     O_R   0.317690 0.499960 0.618790 -0.597382
O4    O     O_R   0.317700 0.500000 0.381210 -0.510349
O5    O     O_R   0.499990 0.680320 0.618770 -0.581174
O6    O     O_R   0.500000 0.680360 0.381190 -0.586333
O7    O     O_R   0.682300 0.500000 0.618790 -0.592501
O8    O     O_R   0.682310 0.500040 0.381210 -0.582226
S1    S     S_3+6 0.068877 0.445744 0.195977 -0.018418
O9    O     O_2   0.169496 0.540189 0.172930 -0.333192
O10   O     O_2   0.092035 0.335425 0.103604 -0.271066
O11   O     O_3   0.934961 0.506533 0.138385 -0.600407
H23   H     H_    0.945968 0.520096 0.036874 0.368124
S2    S     S_3+6 0.126829 0.245563 0.393091 -0.002364
O12   O     O_2   0.152913 0.208215 0.541667 -0.342868
O13   O     O_2   0.037455 0.152518 0.326435 -0.288511
O14   O     O_3   0.260070 0.242360 0.305739 -0.538587
H24   H     H_    0.256622 0.164491 0.250164 0.372776

loop_
_geom_bond_atom_site_label_1
_geom_bond_atom_site_label_2
_ccdc_geom_bond_type
S1    O11   S    
S2    O13   D    
C1    O2    A    
Cu1   O1    S    
C6    C7    A    
Cu1   O5    S    
C22   H1    S    
C15   N1    A    
C11   C13   S    
C9    C10   A    
C9    C20   S    
C2    C4    S    
C14   N1    A    
Cu1   O7    S    
C20   O5    A    
C22   H12   S    
O11   H23   S    
C2    C21   S    
C11   H7    S    
C17   C18   S    
C3    H21   S    
C24   H3    S    
C7    C8    A    
C23   H18   S    
C25   S1    S    
C18   H15   S    
C19   H16   S    
Cu2   O6    S    
C7    H5    S    
C14   C17   A    
C15   H11   S    
C13   H10   S    
S1    O9    D    
Cu2   O8    S    
C5    C6    A    
C5    C13   S    
C17   N2    A    
C11   H8    S    
C12   O4    A    
C12   C26   S    
C24   C26   S    
C21   O7    A    
C2    C3    S    
O14   H24   S    
C18   H14   S    
Cu2   O4    S    
C3    H4    S    
Cu2   N1    S    
Cu1   O3    S    
S2    O14   S    
C23   H19   S    
C10   C11   S    
C25   S2    S    
C20   O6    A    
C1    C6    S    
C12   O3    A    
C4    C25   S    
C5    C10   A    
S2    O12   D    
Cu1   N2    S    
C21   O8    A    
C18   C19   S    
C22   C26   S    
C4    H22   S    
C2    C23   S    
S1    O10   D    
C1    O1    A    
C22   C23   S    
C14   C19   S    
C8    H6    S    
C25   C26   S    
Cu2   O2    S    
C13   H9    S    
C16   H13   S    
C15   C16   A    
C4    H2    S    
C19   H17   S    
C16   N2    A    
C3    C24   S    
C8    C9    A    
Cu1   Cu2   S    
C24   H20   S    
