data_mof_unit_15442.cif
_audit_creation_date              2012-12-10T17:05:42-0500
_audit_creation_method            fapswitch 2.2
_symmetry_space_group_name_H-M    P1
_symmetry_Int_Tables_number       1
_space_group_crystal_system       triclinic
_cell_length_a                    25.882497
_cell_length_b                    25.796602
_cell_length_c                    18.396976
_cell_angle_alpha                 90.448468
_cell_angle_beta                  135.05945
_cell_angle_gamma                 90.22294
_cell_volume                      8675.54980563

loop_
_atom_site_label
_atom_site_type_symbol
_atom_type_description
_atom_site_fract_x
_atom_site_fract_y
_atom_site_fract_z
_atom_type_partial_charge
C1    C     C_R   0.893392 0.753605 0.780092 0.828430
C2    C     C_R   0.444194 0.205749 0.445580 -0.139281
C3    C     C_R   0.309096 0.528044 0.572333 0.452890
C4    C     C_R   0.830828 0.555521 0.695828 -0.384488
C5    C     C_R   0.832481 0.447469 0.696463 -0.381860
C6    C     C_R   0.330830 0.055521 0.695829 -0.384497
C7    C     C_R   0.332479 0.947469 0.696462 -0.381903
C8    C     C_R   0.871922 0.529300 0.789191 0.526894
C9    C     C_R   0.872701 0.475163 0.789488 0.517992
C10   C     C_R   0.371924 0.029300 0.789192 0.526912
C11   C     C_R   0.372700 0.975163 0.789488 0.517952
C12   C     C_R   0.792532 0.473387 0.602450 0.075766
C13   C     C_R   0.008459 0.285297 0.567156 -0.086602
C14   C     C_R   0.791637 0.528171 0.602085 0.052098
C15   C     C_R   0.292531 0.973387 0.602449 0.075777
C16   C     C_R   0.291637 0.028171 0.602085 0.052094
C17   C     C_R   0.749286 0.553991 0.507030 -0.035467
C18   C     C_R   0.751026 0.446113 0.507754 -0.010354
C19   C     C_R   0.249286 0.053991 0.507029 -0.035478
C20   C     C_R   0.251026 0.946113 0.507754 -0.010380
C21   C     C_R   0.706276 0.526030 0.414656 -0.124265
C22   C     C_R   0.707114 0.472567 0.414994 -0.170105
C23   C     C_R   0.206278 0.026030 0.414655 -0.124272
C24   C     C_R   0.944203 0.705742 0.445597 -0.139278
C25   C     C_R   0.207115 0.972567 0.414993 -0.170134
C26   C     C_R   0.749166 0.889835 0.499804 0.789209
C27   C     C_R   0.744890 0.110079 0.494080 0.781042
C28   C     C_R   0.249166 0.389835 0.499804 0.789217
C29   C     C_R   0.244891 0.610079 0.494080 0.781052
C30   C     C_R   0.889673 0.750108 0.499679 0.806975
C31   C     C_R   0.887368 0.253744 0.494506 0.828171
C32   C     C_R   0.389673 0.250108 0.499679 0.806989
C33   C     C_R   0.387375 0.753740 0.494517 0.828188
C34   C     C_R   0.610190 0.748846 0.501076 0.867428
C35   C     C_R   0.567255 0.766930 0.584516 0.072263
C36   C     C_R   0.608638 0.248076 0.496936 0.969633
C37   C     C_R   0.110191 0.248845 0.501079 0.867362
C38   C     C_R   0.108638 0.748075 0.496936 0.969657
C39   C     C_R   0.638374 0.769691 0.686145 0.448323
C40   C     C_R   0.514443 0.154718 0.427306 0.441646
C41   C     C_R   0.138349 0.269764 0.686115 0.448446
C42   C     C_R   0.014455 0.654712 0.427329 0.441659
C43   C     C_R   0.650752 0.801580 0.759649 -0.313453
C44   C     C_R   0.463152 0.114174 0.382522 -0.328665
C45   C     C_R   0.150701 0.301688 0.759563 -0.313474
C46   C     C_R   0.504537 0.202131 0.456988 0.068993
C47   C     C_R   0.963175 0.614162 0.382570 -0.328669
C48   C     C_R   0.594528 0.832456 0.731625 0.377008
C49   C     C_R   0.400051 0.119592 0.361192 0.462525
C50   C     C_R   0.094453 0.332559 0.731481 0.376691
C51   C     C_R   0.900078 0.619576 0.361247 0.462521
C52   C     C_2   0.459166 0.724879 0.307715 1.028623
C53   C     C_2   0.596582 0.335692 0.578341 0.976249
C54   C     C_2   0.959180 0.224789 0.307755 1.028826
C55   C     C_2   0.096567 0.835698 0.578313 0.976254
C56   C     C_2   0.273101 0.676179 0.898437 1.033714
C57   C     C_R   0.067235 0.266966 0.584484 0.072269
C58   C     C_2   0.336105 0.401403 0.914116 1.044047
C59   C     C_2   0.773142 0.176079 0.898454 1.033697
C60   C     C_2   0.836067 0.901377 0.914096 1.044081
C61   C     C_2   0.540198 0.782800 0.893071 0.965848
C62   C     C_2   0.539133 0.208002 0.893599 0.968607
C63   C     C_2   0.040153 0.282982 0.893112 0.965796
C64   C     C_2   0.039141 0.708017 0.893599 0.968614
C65   C     C_2   0.597650 0.891936 0.375104 0.988324
C66   C     C_2   0.617829 0.095182 0.273101 1.003790
C67   C     C_2   0.097650 0.391937 0.375108 0.988300
C68   C     C_R   0.004543 0.702127 0.457001 0.068982
C69   C     C_2   0.117830 0.595181 0.273101 1.003781
C70   C     C_2   0.467605 0.866431 0.592161 1.087657
C71   C     C_2   0.314663 0.172120 0.346864 0.990065
C72   C     C_2   0.967494 0.366471 0.591953 1.087512
C73   C     C_2   0.814680 0.672101 0.346901 0.990051
C74   C     C_2   0.345842 0.727695 0.301395 0.985742
C75   C     C_2   0.493421 0.333037 0.594068 0.942082
C76   C     C_2   0.845844 0.227650 0.301403 0.985767
C77   C     C_2   0.993406 0.833045 0.594038 0.942071
C78   C     C_2   0.542367 0.632680 0.152589 0.960325
C79   C     C_R   0.552174 0.748324 0.498352 -0.110325
C80   C     C_2   0.461325 0.249144 0.155178 1.011482
C81   C     C_2   0.042437 0.132667 0.152609 0.960265
C82   C     C_2   0.961327 0.749129 0.155179 1.011480
C83   C     C_2   0.392208 0.604620 0.048846 1.038786
C84   C     C_2   0.367840 0.340328 0.076070 1.023680
C85   C     C_2   0.892298 0.104559 0.048897 1.038787
C86   C     C_2   0.867817 0.840299 0.076057 1.023618
C87   C     C_R   0.552304 0.246239 0.496993 -0.101932
C88   C     C_R   0.052171 0.248324 0.498352 -0.110371
C89   C     C_R   0.890080 0.251066 0.780642 0.846040
C90   C     C_R   0.052303 0.746239 0.496991 -0.101935
C91   C     C_R   0.478662 0.737750 0.403704 -0.254766
C92   C     C_R   0.546151 0.290067 0.536696 -0.125798
C93   C     C_R   0.978666 0.237713 0.403717 -0.254841
C94   C     C_R   0.046143 0.790069 0.536681 -0.125802
C95   C     C_R   0.422209 0.741722 0.398760 -0.093239
C96   C     C_R   0.492890 0.290347 0.538368 -0.090294
C97   C     C_R   0.922206 0.241696 0.398758 -0.093263
C98   C     C_R   0.992882 0.790350 0.538351 -0.090301
C99   C     C_R   0.438411 0.762468 0.484317 -0.089672
C100  C     C_R   0.393392 0.253605 0.780092 0.828427
C101  C     C_R   0.442232 0.248743 0.492741 -0.116098
C102  C     C_R   0.938394 0.262473 0.484286 -0.089656
C103  C     C_R   0.942232 0.748742 0.492741 -0.116109
C104  C     C_R   0.480801 0.669440 0.081396 -0.041148
C105  C     C_R   0.451291 0.285012 0.082850 -0.156148
C106  C     C_R   0.980847 0.169409 0.081405 -0.041158
C107  C     C_R   0.951286 0.785000 0.082848 -0.156148
C108  C     C_R   0.408008 0.654593 0.027954 -0.188744
C109  C     C_R   0.400350 0.326042 0.037312 -0.198644
C110  C     C_R   0.908064 0.154538 0.027973 -0.188788
C111  C     C_R   0.390084 0.751061 0.780641 0.846348
C112  C     C_R   0.900334 0.826022 0.037305 -0.198651
C113  C     C_R   0.348764 0.685327 0.945913 -0.118270
C114  C     C_R   0.382547 0.354442 0.956551 -0.150354
C115  C     C_R   0.848799 0.185257 0.945926 -0.118296
C116  C     C_R   0.882525 0.854425 0.956543 -0.150331
C117  C     C_R   0.611999 0.746945 0.219661 0.941054
C118  C     C_R   0.608382 0.248526 0.219060 0.931592
C119  C     C_R   0.112001 0.246945 0.219662 0.941031
C120  C     C_R   0.108383 0.748526 0.219060 0.931591
C121  C     C_R   0.361353 0.724302 0.906672 0.468646
C122  C     C_R   0.522771 0.825304 0.633498 -0.180811
C123  C     C_R   0.406475 0.336541 0.911967 0.459669
C124  C     C_R   0.861362 0.224249 0.906677 0.468686
C125  C     C_R   0.906461 0.836534 0.911965 0.459666
C126  C     C_R   0.432737 0.731564 0.948936 -0.076252
C127  C     C_R   0.448613 0.290751 0.949298 -0.042035
C128  C     C_R   0.932741 0.231541 0.948936 -0.076194
C129  C     C_R   0.948608 0.790748 0.949297 -0.042049
C130  C     C_R   0.491941 0.714064 0.048476 -0.074015
C131  C     C_R   0.484288 0.273839 0.047425 -0.123860
C132  C     C_R   0.991960 0.214046 0.048476 -0.074018
C133  C     C_R   0.388891 0.165603 0.389310 -0.173632
C134  C     C_R   0.984284 0.773835 0.047425 -0.123861
C135  C     C_R   0.559935 0.740619 0.107047 -0.069261
C136  C     C_R   0.551679 0.247462 0.105178 -0.136548
C137  C     C_R   0.059937 0.240625 0.107048 -0.069278
C138  C     C_R   0.051679 0.747463 0.105178 -0.136542
C139  C     C_R   0.574914 0.766225 0.056164 0.412876
C140  C     C_R   0.570946 0.228276 0.054592 0.421612
C141  C     C_R   0.074891 0.266275 0.056167 0.412935
C142  C     C_R   0.070951 0.728285 0.054592 0.421618
C143  C     C_R   0.519933 0.768232 0.948047 -0.138425
C144  C     C_R   0.022702 0.325366 0.633363 -0.180602
C145  C     C_R   0.521014 0.231978 0.946967 -0.166190
C146  C     C_R   0.019903 0.268300 0.948058 -0.138315
C147  C     C_R   0.021018 0.731986 0.946967 -0.166194
C148  C     C_R   0.447356 0.752654 0.893975 -0.208512
C149  C     C_R   0.456437 0.260812 0.892793 -0.215153
C150  C     C_R   0.947342 0.252672 0.893977 -0.208576
C151  C     C_R   0.956436 0.760814 0.892793 -0.215158
C152  C     C_R   0.607683 0.943933 0.352819 -0.121147
C153  C     C_R   0.613595 0.047545 0.312881 -0.306150
C154  C     C_R   0.107683 0.443933 0.352821 -0.121136
C155  C     C_R   0.888909 0.665589 0.389348 -0.173631
C156  C     C_R   0.113596 0.547544 0.312882 -0.306148
C157  C     C_R   0.543507 0.968356 0.266744 0.454960
C158  C     C_R   0.546356 0.019547 0.244489 0.321677
C159  C     C_R   0.043508 0.468356 0.266746 0.454958
C160  C     C_R   0.046357 0.519546 0.244489 0.321689
C161  C     C_R   0.677988 0.024879 0.407107 -0.037333
C162  C     C_R   0.676714 0.970895 0.420032 -0.084649
C163  C     C_R   0.177988 0.524879 0.407108 -0.037341
C164  C     C_R   0.176715 0.470895 0.420034 -0.084645
C165  C     C_R   0.749695 0.610003 0.501657 0.843884
C166  C     C_R   0.508494 0.785262 0.567222 -0.086671
C167  C     C_R   0.750461 0.390022 0.502112 0.803400
C168  C     C_R   0.249695 0.110003 0.501657 0.843859
C169  C     C_R   0.250461 0.890022 0.502113 0.803373
C170  C     C_R   0.744820 0.945786 0.498555 -0.217524
C171  C     C_R   0.743666 0.053639 0.489481 -0.235390
C172  C     C_R   0.244820 0.445786 0.498555 -0.217528
C173  C     C_R   0.243666 0.553639 0.489481 -0.235402
C174  C     C_R   0.810234 0.974448 0.575188 0.469895
C175  C     C_R   0.809095 0.028044 0.572332 0.452895
C176  C     C_R   0.310234 0.474448 0.575189 0.469895
H1    H     H_    0.673382 0.545737 0.342023 0.182894
H2    H     H_    0.471301 0.078397 0.360633 0.151865
H3    H     H_    0.205089 0.304730 0.836835 0.185890
H4    H     H_    0.971330 0.578384 0.360690 0.151864
H5    H     H_    0.485615 0.649737 0.344685 0.337839
H6    H     H_    0.700222 0.362235 0.669468 0.334588
H7    H     H_    0.985676 0.149664 0.344867 0.337744
H8    H     H_    0.200204 0.862247 0.669436 0.334596
H9    H     H_    0.164418 0.677758 0.770689 0.347126
H10   H     H_    0.247101 0.436094 0.867390 0.378445
H11   H     H_    0.664457 0.177625 0.770706 0.347140
H12   H     H_    0.674463 0.451648 0.342435 0.173528
H13   H     H_    0.747038 0.936043 0.867334 0.378460
H14   H     H_    0.325333 0.789313 0.832946 0.324744
H15   H     H_    0.426955 0.357249 0.832859 0.338318
H16   H     H_    0.825299 0.289261 0.832949 0.324802
H17   H     H_    0.926943 0.857252 0.832863 0.338325
H18   H     H_    0.555946 0.759079 0.805308 0.343313
H19   H     H_    0.550236 0.217361 0.796383 0.359532
H20   H     H_    0.056248 0.259381 0.805704 0.343371
H21   H     H_    0.050235 0.717384 0.796376 0.359525
H22   H     H_    0.873370 0.913815 0.652756 0.329385
H23   H     H_    0.173387 0.045737 0.342023 0.182960
H24   H     H_    0.873031 0.090036 0.633411 0.324468
H25   H     H_    0.373370 0.413815 0.652756 0.329394
H26   H     H_    0.373032 0.590036 0.633410 0.324495
H27   H     H_    0.570493 0.816683 0.332233 0.323579
H28   H     H_    0.569569 0.139029 0.301724 0.320507
H29   H     H_    0.070486 0.316685 0.332235 0.323580
H30   H     H_    0.069575 0.639028 0.301729 0.320515
H31   H     H_    0.436550 0.962673 0.150900 0.400172
H32   H     H_    0.486334 0.078238 0.154430 0.365985
H33   H     H_    0.936550 0.462674 0.150902 0.400171
H34   H     H_    0.174466 0.951647 0.342434 0.173531
H35   H     H_    0.986336 0.578237 0.154428 0.365992
H36   H     H_    0.905638 0.593491 0.868751 0.330987
H37   H     H_    0.907980 0.412217 0.869654 0.329543
H38   H     H_    0.405652 0.093492 0.868755 0.330995
H39   H     H_    0.407971 0.912217 0.869653 0.329480
H40   H     H_    0.739181 0.745879 0.786726 0.337966
H41   H     H_    0.577229 0.110628 0.430107 0.324049
H42   H     H_    0.239170 0.245980 0.786749 0.337979
H43   H     H_    0.077241 0.610627 0.430120 0.324049
H44   H     H_    0.160756 0.368609 0.864220 0.389843
H45   H     H_    0.828805 0.597296 0.697545 0.161941
H46   H     H_    0.863086 0.551139 0.295325 0.355634
H47   H     H_    0.660860 0.868453 0.864419 0.389921
H48   H     H_    0.363044 0.051162 0.295237 0.355628
H49   H     H_    0.481553 0.868358 0.715003 0.371530
H50   H     H_    0.290859 0.231677 0.257195 0.338821
H51   H     H_    0.981461 0.368462 0.714809 0.371609
H52   H     H_    0.790867 0.731655 0.257223 0.338822
H53   H     H_    0.277744 0.675650 0.185365 0.380842
H54   H     H_    0.551403 0.373962 0.726393 0.370778
H55   H     H_    0.777759 0.175575 0.185432 0.380850
H56   H     H_    0.831845 0.405662 0.698744 0.160010
H57   H     H_    0.051380 0.873976 0.726353 0.370779
H58   H     H_    0.646073 0.809691 0.074529 0.365498
H59   H     H_    0.655247 0.212089 0.077779 0.347146
H60   H     H_    0.145999 0.309804 0.074509 0.365288
H61   H     H_    0.155255 0.712116 0.077780 0.347122
H62   H     H_    0.635228 0.602853 0.203624 0.359176
H63   H     H_    0.443180 0.184770 0.075801 0.316961
H64   H     H_    0.135320 0.102878 0.203662 0.359219
H65   H     H_    0.943180 0.684758 0.075794 0.316952
H66   H     H_    0.400381 0.561301 0.147268 0.365920
H67   H     H_    0.328808 0.097296 0.697546 0.161942
H68   H     H_    0.354971 0.395180 0.140707 0.367658
H69   H     H_    0.900497 0.061244 0.147345 0.365931
H70   H     H_    0.854918 0.895147 0.140665 0.367671
H71   H     H_    0.331840 0.905661 0.698743 0.159980
H72   H     H_    0.705144 0.804594 0.836920 0.185837
O1    O     O_3   0.750020 0.750020 0.500000 -0.534085
O2    O     O_R   0.750010 0.134170 0.560720 -0.599851
O3    O     O_3   0.412517 0.950222 0.881872 -0.662285
O4    O     O_3   0.693394 0.738869 0.713620 -0.759602
O5    O     O_3   0.575179 0.147266 0.444662 -0.776727
O6    O     O_3   0.193390 0.238942 0.713651 -0.759559
O7    O     O_3   0.075184 0.647266 0.444667 -0.776737
O8    O     O_3   0.108771 0.370429 0.797488 -0.705111
O9    O     O_3   0.847148 0.580740 0.310031 -0.700725
O10   O     O_3   0.608877 0.870302 0.797690 -0.704891
O11   O     O_3   0.347111 0.080763 0.309953 -0.700741
O12   O     O_2   0.430035 0.881397 0.504407 -0.564335
O13   O     O_R   0.250010 0.365830 0.560720 -0.600214
O14   O     O_R   0.457073 0.888329 0.650552 -0.698802
O15   O     O_2   0.292834 0.142570 0.372140 -0.571256
O16   O     O_R   0.268069 0.210391 0.274875 -0.728364
O17   O     O_2   0.929897 0.381390 0.504164 -0.564363
O18   O     O_R   0.956956 0.388402 0.650317 -0.698774
O19   O     O_2   0.792855 0.642550 0.372181 -0.571186
O20   O     O_R   0.768081 0.710369 0.274908 -0.728372
O21   O     O_2   0.296003 0.757461 0.265138 -0.587837
O22   O     O_R   0.331384 0.680682 0.251106 -0.751452
O23   O     O_2   0.438634 0.358711 0.549999 -0.581641
O24   O     O_R   0.250010 0.634170 0.560720 -0.599851
O25   O     O_R   0.557471 0.344146 0.696809 -0.752031
O26   O     O_2   0.795998 0.257416 0.265107 -0.587807
O27   O     O_R   0.831398 0.180619 0.251169 -0.751463
O28   O     O_2   0.938618 0.858718 0.549957 -0.581614
O29   O     O_R   0.057452 0.844157 0.696778 -0.752043
O30   O     O_3   0.645452 0.784292 0.113758 -0.693630
O31   O     O_3   0.638695 0.206078 0.111784 -0.669655
O32   O     O_3   0.145409 0.284391 0.113751 -0.693575
O33   O     O_3   0.138706 0.706098 0.111786 -0.669669
O34   O     O_2   0.547546 0.607135 0.213109 -0.572030
O35   O     O_R   0.896180 0.719660 0.731600 -0.633260
O36   O     O_R   0.595547 0.628255 0.151237 -0.767463
O37   O     O_2   0.472879 0.266460 0.227594 -0.543884
O38   O     O_R   0.456284 0.195438 0.140389 -0.768828
O39   O     O_2   0.047626 0.107110 0.213128 -0.572090
O40   O     O_R   0.095625 0.128272 0.151269 -0.767441
O41   O     O_2   0.972885 0.766442 0.227600 -0.543879
O42   O     O_R   0.956286 0.695423 0.140385 -0.768837
O43   O     O_2   0.357050 0.570880 0.981786 -0.581385
O44   O     O_R   0.415204 0.596728 0.143134 -0.671028
O45   O     O_2   0.329991 0.308878 0.071254 -0.603176
O46   O     O_R   0.896180 0.280340 0.731600 -0.653940
O47   O     O_R   0.380216 0.389936 0.117331 -0.749235
O48   O     O_2   0.857169 0.070806 0.981862 -0.581328
O49   O     O_R   0.915294 0.096676 0.143187 -0.670956
O50   O     O_2   0.829986 0.808839 0.071260 -0.603218
O51   O     O_R   0.880166 0.889911 0.117290 -0.749234
O52   O     O_R   0.396180 0.219660 0.731600 -0.633266
O53   O     O_R   0.396180 0.780340 0.731600 -0.653973
O54   O     O_R   0.664580 0.780370 0.268400 -0.542783
O55   O     O_R   0.664580 0.219630 0.268400 -0.514210
O56   O     O_R   0.164580 0.280370 0.268400 -0.542739
O57   O     O_3   0.750020 0.249980 0.500000 -0.530699
O58   O     O_R   0.164580 0.719630 0.268400 -0.514207
O59   O     O_R   0.835450 0.780390 0.731600 -0.610679
O60   O     O_R   0.835450 0.219610 0.731600 -0.588810
O61   O     O_R   0.335450 0.280390 0.731600 -0.610673
O62   O     O_R   0.335450 0.719610 0.731600 -0.588814
O63   O     O_R   0.603870 0.719650 0.268400 -0.656467
O64   O     O_R   0.603870 0.280350 0.268400 -0.657076
O65   O     O_R   0.103870 0.219650 0.268400 -0.656462
O66   O     O_R   0.103870 0.780350 0.268400 -0.657073
O67   O     O_R   0.810750 0.634210 0.560720 -0.614972
O68   O     O_3   0.250020 0.250020 0.500000 -0.534090
O69   O     O_R   0.810750 0.365790 0.560720 -0.614694
O70   O     O_R   0.310750 0.134210 0.560720 -0.614993
O71   O     O_R   0.310750 0.865790 0.560720 -0.614699
O72   O     O_R   0.750010 0.865820 0.439280 -0.597060
O73   O     O_R   0.750010 0.134180 0.439280 -0.607265
O74   O     O_R   0.250010 0.365820 0.439280 -0.597054
O75   O     O_R   0.250010 0.634180 0.439280 -0.607265
O76   O     O_R   0.896180 0.719650 0.560720 -0.623079
O77   O     O_R   0.896180 0.280350 0.560720 -0.669149
O78   O     O_R   0.396180 0.219650 0.560720 -0.623073
O79   O     O_3   0.250020 0.749980 0.500000 -0.530692
O80   O     O_R   0.396180 0.780350 0.560720 -0.669141
O81   O     O_R   0.664570 0.780390 0.560720 -0.569789
O82   O     O_R   0.664570 0.219610 0.560720 -0.539179
O83   O     O_R   0.164570 0.280390 0.560720 -0.569777
O84   O     O_R   0.164570 0.719610 0.560720 -0.539200
O85   O     O_R   0.835460 0.780370 0.439280 -0.576669
O86   O     O_R   0.835460 0.219630 0.439280 -0.614432
O87   O     O_R   0.335460 0.280370 0.439280 -0.576676
O88   O     O_R   0.335460 0.719630 0.439280 -0.614406
O89   O     O_R   0.603860 0.719660 0.439280 -0.664406
O90   O     O_R   0.689310 0.634210 0.439280 -0.608921
O91   O     O_R   0.603860 0.280340 0.439280 -0.619039
O92   O     O_R   0.103860 0.219660 0.439280 -0.664401
O93   O     O_R   0.103860 0.780340 0.439280 -0.619042
O94   O     O_2   0.435460 0.758570 0.244663 -0.547017
O95   O     O_R   0.466614 0.674555 0.287955 -0.659117
O96   O     O_2   0.571867 0.379493 0.551971 -0.575988
O97   O     O_R   0.672036 0.328433 0.647526 -0.784498
O98   O     O_2   0.935459 0.258446 0.244644 -0.547050
O99   O     O_R   0.966660 0.174451 0.288091 -0.659088
O100  O     O_2   0.071846 0.879496 0.551929 -0.575988
O101  O     O_R   0.689310 0.365790 0.439280 -0.635453
O102  O     O_R   0.172023 0.828444 0.647503 -0.784440
O103  O     O_2   0.263475 0.661333 0.951150 -0.582823
O104  O     O_R   0.212734 0.684991 0.793535 -0.707359
O105  O     O_2   0.351684 0.439404 0.893118 -0.500344
O106  O     O_R   0.274135 0.402095 0.896835 -0.826152
O107  O     O_2   0.763527 0.161220 0.951172 -0.582805
O108  O     O_R   0.712768 0.184878 0.793549 -0.707366
O109  O     O_2   0.851642 0.939388 0.893112 -0.500318
O110  O     O_R   0.774084 0.902049 0.896785 -0.826098
O111  O     O_3   0.304568 0.756759 0.832398 -0.672004
O112  O     O_R   0.189310 0.134210 0.439280 -0.608882
O113  O     O_3   0.391838 0.366230 0.836919 -0.690326
O114  O     O_3   0.804555 0.256694 0.832406 -0.671984
O115  O     O_3   0.891823 0.866228 0.836921 -0.690328
O116  O     O_2   0.553648 0.828088 0.891932 -0.610741
O117  O     O_R   0.542381 0.744562 0.841076 -0.765436
O118  O     O_2   0.556640 0.162448 0.907628 -0.556011
O119  O     O_R   0.536898 0.237888 0.828308 -0.772528
O120  O     O_2   0.053267 0.328327 0.891706 -0.610619
O121  O     O_R   0.042732 0.244785 0.841487 -0.765313
O122  O     O_2   0.056662 0.662467 0.907637 -0.555985
O123  O     O_R   0.189310 0.865790 0.439280 -0.635446
O124  O     O_R   0.036893 0.737907 0.828299 -0.772541
O125  O     O_3   0.877448 0.951987 0.655252 -0.660007
O126  O     O_3   0.874617 0.053815 0.651937 -0.664327
O127  O     O_3   0.377448 0.451987 0.655253 -0.659992
O128  O     O_3   0.374617 0.553815 0.651937 -0.664302
O129  O     O_2   0.605624 0.886312 0.448484 -0.592784
O130  O     O_R   0.576094 0.850075 0.309567 -0.764237
O131  O     O_2   0.644167 0.093267 0.238399 -0.467212
O132  O     O_R   0.590984 0.142072 0.272640 -0.798971
O133  O     O_2   0.105626 0.386314 0.448490 -0.592799
O134  O     O_R   0.750010 0.865830 0.560720 -0.600217
O135  O     O_R   0.076090 0.350075 0.309569 -0.764246
O136  O     O_2   0.144166 0.593266 0.238397 -0.467218
O137  O     O_R   0.090988 0.642072 0.272644 -0.798969
O138  O     O_3   0.478286 0.940381 0.204852 -0.696908
O139  O     O_3   0.482711 0.040066 0.153069 -0.717835
O140  O     O_3   0.978286 0.440382 0.204854 -0.696926
O141  O     O_3   0.982712 0.540065 0.153069 -0.717835
O142  O     O_3   0.911073 0.555670 0.881322 -0.657598
O143  O     O_3   0.912520 0.450222 0.881872 -0.662251
O144  O     O_3   0.411080 0.055670 0.881323 -0.657592
Zn1   Zn    Zn3+2 0.663270 0.706640 0.413250 1.060881
Zn2   Zn    Zn3+2 0.750020 0.206610 0.413240 1.107953
Zn3   Zn    Zn3+2 0.250020 0.293390 0.413240 1.112880
Zn4   Zn    Zn3+2 0.250020 0.706610 0.413240 1.107992
Zn5   Zn    Zn3+2 0.750010 0.793400 0.586760 1.057656
Zn6   Zn    Zn3+2 0.750010 0.206600 0.586760 1.095323
Zn7   Zn    Zn3+2 0.250010 0.293400 0.586760 1.057650
Zn8   Zn    Zn3+2 0.250010 0.706600 0.586760 1.095360
Zn9   Zn    Zn3+2 0.663270 0.293360 0.413250 1.054202
Zn10  Zn    Zn3+2 0.163270 0.206640 0.413250 1.060899
Zn11  Zn    Zn3+2 0.163270 0.793360 0.413250 1.054207
Zn12  Zn    Zn3+2 0.836780 0.706640 0.586750 1.042076
Zn13  Zn    Zn3+2 0.836780 0.293360 0.586750 1.004231
Zn14  Zn    Zn3+2 0.336780 0.206640 0.586750 1.042057
Zn15  Zn    Zn3+2 0.336780 0.793360 0.586750 1.004233
Zn16  Zn    Zn3+2 0.750020 0.793390 0.413240 1.112858

loop_
_geom_bond_atom_site_label_1
_geom_bond_atom_site_label_2
_ccdc_geom_bond_type
O54   Zn16  S    
C157  C158  A    
C27   O73   A    
C107  C112  A    
C28   O74   A    
C140  O31   S    
C136  C140  A    
C105  C131  A    
C135  C139  A    
C48   O10   S    
C36   O82   A    
O90   Zn1   S    
C95   C99   A    
C86   O51   S    
H24   O126  S    
H33   O140  S    
C26   O72   A    
H52   O20   S    
C146  C150  A    
O74   Zn3   S    
O35   Zn12  S    
C62   C145  S    
C62   O118  D    
C68   C90   A    
H25   O127  S    
C63   C146  S    
C157  O138  S    
C33   O80   A    
C7    C15   A    
O82   Zn6   S    
O57   Zn2   S    
H39   O3    S    
C15   C20   A    
O2    Zn6   S    
C31   O77   A    
C141  O32   S    
C5    C12   A    
C85   C110  S    
C87   C92   A    
C83   O43   D    
C66   O131  D    
C84   O45   D    
C38   O84   A    
C132  C137  A    
C111  O53   A    
C85   O48   D    
C17   C21   A    
C153  C161  A    
C120  O66   A    
C108  C113  A    
C19   C23   A    
C64   O124  S    
C59   O107  D    
H29   O135  S    
O1    Zn16  S    
C61   O117  S    
C73   C155  S    
C72   O18   S    
C81   O40   S    
C128  C150  A    
C89   C150  S    
C10   O144  S    
H54   O25   S    
C167  O69   A    
C120  C138  S    
C40   C46   A    
C117  C135  S    
C118  C136  S    
C170  C174  A    
C71   O16   S    
C72   C144  S    
C61   O116  D    
C49   C133  A    
C152  C157  A    
H64   O40   S    
O56   Zn3   S    
C29   O75   A    
C30   O85   A    
C140  C145  A    
C66   C153  S    
C65   O129  D    
C38   C90   S    
C80   O38   S    
O57   Zn13  S    
O77   Zn13  S    
H59   O31   S    
H5    O95   S    
C111  C148  S    
C165  O67   A    
C58   O105  D    
C45   C50   A    
C55   O102  S    
C41   O6    S    
C66   O132  S    
C4    C14   A    
C127  C131  A    
O60   Zn6   S    
C169  O71   A    
C6    C16   A    
C158  O139  S    
C125  C129  A    
C3    C176  A    
C26   C170  S    
C41   C45   A    
C52   C91   S    
C33   C99   S    
C123  O113  S    
O87   Zn3   S    
H16   O114  S    
H58   O30   S    
C67   O135  S    
H26   O128  S    
C86   C112  S    
C74   O22   S    
C84   O47   S    
C51   C155  A    
H43   O7    S    
O72   Zn16  S    
C67   C154  S    
C154  C164  A    
C73   O20   S    
C107  C134  A    
C89   O46   A    
O13   Zn7   S    
C13   C57   A    
C60   O109  D    
C7    H71   S    
C92   C96   A    
C31   O86   A    
C13   C144  A    
C153  C158  A    
C56   O104  S    
C174  C175  A    
O91   Zn9   S    
H31   O138  S    
H66   O44   S    
C28   C172  S    
C52   O95   S    
C85   O49   S    
C39   O4    S    
C117  O54   A    
O101  Zn9   S    
C121  O111  S    
C119  O56   A    
C79   C91   A    
H10   O106  S    
O67   Zn12  S    
C54   O99   S    
C75   O25   S    
C32   O87   A    
C22   H12   S    
C111  O62   A    
C14   C17   A    
H37   O143  S    
O86   Zn2   S    
H38   O144  S    
C50   C144  A    
O89   Zn1   S    
C53   O96   D    
C143  C148  A    
C69   C156  S    
C3    O128  S    
C78   C104  S    
C156  C160  A    
C131  C136  A    
C89   O60   A    
C44   H2    S    
C1    O35   A    
H7    O99   S    
C30   O76   A    
C76   O27   S    
O61   Zn7   S    
C147  C151  A    
C5    C9    A    
C47   H4    S    
O75   Zn4   S    
C82   O41   D    
C34   C79   S    
C70   C122  S    
C123  C127  A    
O80   Zn15  S    
O57   Zn6   S    
H42   O6    S    
H11   O108  S    
C109  C114  A    
C169  O123  A    
H48   O11   S    
C114  C123  A    
C116  C125  A    
C67   O133  D    
C60   C116  S    
H28   O132  S    
C93   C97   A    
C112  C116  A    
C46   C87   A    
C26   O134  A    
C63   O120  D    
C70   O14   S    
C164  C172  A    
C105  C109  A    
O70   Zn14  S    
C18   C22   A    
C142  C147  A    
C18   C167  S    
C37   O92   A    
C34   O89   A    
C84   C109  S    
O63   Zn1   S    
C24   C103  A    
C154  C159  A    
C127  C149  A    
C49   O11   S    
C63   O121  S    
H70   O51   S    
H44   O8    S    
C70   O12   D    
H30   O137  S    
C118  O55   A    
C25   H34   S    
C152  C162  A    
C165  O90   A    
H46   O9    S    
C50   O8    S    
C10   C11   A    
C38   O93   A    
C91   C95   A    
C161  C171  A    
C40   C44   A    
C113  C121  A    
O1    Zn1   S    
C58   C114  S    
C32   C101  S    
C104  C130  A    
C13   C102  A    
C21   C22   A    
C172  C176  A    
C163  C173  A    
O79   Zn11  S    
C117  O63   A    
C118  O64   A    
C37   C88   S    
C130  C135  A    
O78   Zn14  S    
C124  O114  S    
C161  C162  A    
C1    O59   A    
O24   Zn8   S    
C129  C151  A    
H62   O36   S    
C53   O97   S    
O58   Zn4   S    
C20   C25   A    
C126  C130  A    
C98   C103  A    
C35   C166  A    
C83   C108  S    
O64   Zn9   S    
C54   C93   S    
C81   C106  S    
H17   O115  S    
C156  C163  A    
C30   C103  S    
C56   C113  S    
C33   O88   A    
C159  O140  S    
C81   O39   D    
H27   O130  S    
C97   C102  A    
C124  C128  A    
C52   O94   D    
C20   C169  S    
H60   O32   S    
C96   C101  A    
H8    O102  S    
C21   H1    S    
O68   Zn10  S    
C55   C94   S    
C75   C96   S    
C90   C94   A    
C71   O15   D    
C2    C133  A    
C34   O81   A    
H55   O27   S    
C31   C102  S    
O112  Zn10  S    
C69   O137  S    
C138  C142  A    
C126  C148  A    
C167  O101  A    
C47   C51   A    
C76   C97   S    
C86   O50   D    
C175  O126  S    
O52   Zn14  S    
O53   Zn15  S    
H9    O104  S    
C35   C39   A    
C134  C138  A    
H53   O22   S    
C159  C160  A    
C58   O106  S    
H20   O121  S    
C5    H56   S    
C76   O26   D    
H41   O5    S    
C78   O36   S    
O83   Zn7   S    
C141  C146  A    
C40   O5    S    
O84   Zn8   S    
C176  O127  S    
H35   O141  S    
C19   C168  S    
H50   O16   S    
C104  C108  A    
H6    O97   S    
C137  C141  A    
C115  C124  A    
C69   O136  D    
C6    C10   A    
C83   O44   S    
H68   O47   S    
O79   Zn4   S    
C125  O115  S    
C100  C149  S    
O134  Zn5   S    
C37   O83   A    
C41   C57   A    
O68   Zn7   S    
C17   C165  S    
C59   O108  S    
C75   O23   D    
C16   C19   A    
C60   O110  S    
O55   Zn2   S    
H19   O119  S    
C72   O17   D    
C1    C151  S    
C160  O141  S    
C24   C68   A    
C8    O142  S    
C129  C134  A    
H69   O49   S    
H14   O111  S    
C120  O58   A    
O69   Zn13  S    
C110  C115  A    
C145  C149  A    
C4    H45   S    
C44   C49   A    
O62   Zn8   S    
C55   O100  D    
C122  C166  A    
C23   H23   S    
C139  O30   S    
C163  C164  A    
C4    C8    A    
H13   O110  S    
H32   O139  S    
O81   Zn5   S    
C65   O130  S    
C2    C46   A    
C7    C11   A    
C80   O37   D    
C42   O7    S    
C27   O2    A    
H18   O117  S    
C48   C122  A    
C77   O29   S    
C15   C16   A    
O123  Zn11  S    
C35   C79   A    
C78   O34   D    
C82   O42   S    
H65   O42   S    
C3    C173  A    
O79   Zn15  S    
C8    C9    A    
C162  C170  A    
C119  O65   A    
H21   O124  S    
C100  O52   A    
C73   O19   D    
C43   C48   A    
O46   Zn13  S    
O76   Zn12  S    
C24   C155  A    
C42   C47   A    
C99   C166  A    
C51   O9    S    
O1    Zn12  S    
O65   Zn10  S    
O1    Zn5   S    
C42   C68   A    
C77   O28   D    
C139  C143  A    
H49   O14   S    
C128  C132  A    
O85   Zn16  S    
C74   O21   D    
O59   Zn5   S    
C36   C87   S    
H22   O125  S    
C119  C137  S    
C168  O70   A    
O66   Zn11  S    
C39   C43   A    
O68   Zn3   S    
C2    C101  A    
O88   Zn4   S    
C171  C175  A    
C80   C105  S    
C11   O3    S    
C56   O103  D    
C100  O61   A    
H15   O113  S    
C43   H72   S    
H40   O4    S    
C53   C92   S    
O57   Zn9   S    
C77   C98   S    
O68   Zn14  S    
C82   C107  S    
O71   Zn15  S    
O73   Zn2   S    
H63   O38   S    
C12   C14   A    
C54   O98   D    
C64   C147  S    
C6    H67   S    
C36   O91   A    
C27   C171  S    
H61   O33   S    
C106  C132  A    
C106  C110  A    
C88   C93   A    
C29   O24   A    
C74   C95   S    
C62   O119  S    
O93   Zn11  S    
C174  O125  S    
C29   C173  S    
C71   C133  S    
H47   O10   S    
H51   O18   S    
O92   Zn10  S    
C168  O112  A    
H57   O29   S    
C57   C88   A    
C65   C152  S    
C61   C143  S    
C121  C126  A    
C9    O143  S    
H36   O142  S    
C94   C98   A    
C23   C25   A    
C64   O122  D    
C45   H3    S    
C59   C115  S    
C12   C18   A    
C32   O78   A    
C142  O33   S    
C28   O13   A    
O79   Zn8   S    
