data_mof_unit_52415.cif
_audit_creation_date              2012-12-10T18:05:47-0500
_audit_creation_method            fapswitch 2.2
_symmetry_space_group_name_H-M    P1
_symmetry_Int_Tables_number       1
_space_group_crystal_system       triclinic
_cell_length_a                    10.82114
_cell_length_b                    10.919725
_cell_length_c                    9.496344
_cell_angle_alpha                 91.606821
_cell_angle_beta                  90.944181
_cell_angle_gamma                 89.646213
_cell_volume                      1121.51293045

loop_
_atom_site_label
_atom_site_type_symbol
_atom_type_description
_atom_site_fract_x
_atom_site_fract_y
_atom_site_fract_z
_atom_type_partial_charge
C1    C     C_R   0.497231 0.261959 0.497580 0.911811
C2    C     C_R   0.502943 0.738032 0.502399 0.898002
C3    C     C_R   0.871575 0.496126 0.502319 -0.032692
C4    C     C_R   0.128422 0.502692 0.497493 -0.036178
C5    C     C_R   0.941093 0.432114 0.603527 0.060545
C6    C     C_R   0.058864 0.566526 0.396213 0.061881
C7    C     C_R   0.473571 0.055983 0.369868 0.469790
C8    C     C_R   0.527123 0.944013 0.630002 0.483978
C9    C     C_R   0.478401 0.929453 0.378365 -0.282534
C10   C     C_R   0.522863 0.070543 0.621361 -0.274155
C11   C     C_R   0.503828 0.872047 0.505908 -0.170956
C12   C     C_R   0.497057 0.127941 0.493927 -0.176620
C13   C     C_R   0.402796 0.452962 0.070976 0.066505
C14   C     C_R   0.597122 0.547294 0.929005 0.036693
C15   C     C_R   0.403087 0.452207 0.922265 -0.002182
C16   C     C_R   0.596885 0.547876 0.077742 -0.038534
C17   C     C_R   0.262215 0.501998 0.498922 0.850820
C18   C     C_R   0.737777 0.497585 0.501069 0.857075
C19   C     C_R   0.187245 0.842356 0.215304 -0.185819
C20   C     C_R   0.809699 0.159180 0.787780 -0.190399
C21   C     C_R   0.147801 0.767830 0.323592 0.425399
C22   C     C_R   0.851562 0.231722 0.678850 0.416524
C23   C     C_R   0.114819 0.644991 0.290687 0.004974
C24   C     C_R   0.884802 0.354805 0.710002 0.004838
C25   C     C_R   0.122815 0.599635 0.151239 -0.231886
C26   C     C_R   0.875619 0.402016 0.848571 -0.228476
C27   C     C_R   0.164091 0.674539 0.045264 -0.148171
C28   C     C_R   0.832151 0.329011 0.955174 -0.154533
C29   C     C_R   0.195571 0.795905 0.077141 -0.118105
C30   C     C_R   0.799403 0.207732 0.924840 -0.087247
C31   C     C_R   0.930874 0.561259 0.398784 -0.163198
C32   C     C_R   0.069143 0.437161 0.600778 -0.173651
Cu1   Cu    Cu3+1 0.500000 0.500020 0.640660 1.037994
Cu2   Cu    Cu3+1 0.500000 0.499980 0.359340 1.028621
H1    H     H_    0.224982 0.854549 0.994229 0.225741
H2    H     H_    0.767534 0.150775 0.008141 0.210068
H3    H     H_    0.325470 0.413233 0.864060 0.118928
H4    H     H_    0.674385 0.587051 0.135974 0.131966
H5    H     H_    0.209637 0.937333 0.237316 0.222526
H6    H     H_    0.786780 0.064133 0.767160 0.219606
H7    H     H_    0.095531 0.506440 0.124431 0.149422
H8    H     H_    0.903281 0.495325 0.874153 0.153948
H9    H     H_    0.169876 0.638990 0.937966 0.172312
H10   H     H_    0.825263 0.366077 0.061726 0.161043
H11   H     H_    0.877175 0.611737 0.321983 0.150727
H12   H     H_    0.122872 0.386805 0.677653 0.147239
H13   H     H_    0.459606 0.874634 0.283883 0.207899
H14   H     H_    0.541333 0.125368 0.715907 0.217354
H15   H     H_    0.324381 0.416407 0.123927 0.149516
H16   H     H_    0.675174 0.584778 0.876045 0.170126
N1    N     N_R   0.500030 0.500030 0.852070 -0.161170
N2    N     N_R   0.499970 0.499970 0.147930 -0.160880
O1    O     O_R   0.499990 0.319660 0.618740 -0.608636
O2    O     O_R   0.500010 0.680340 0.381260 -0.617392
O3    O     O_R   0.499990 0.319630 0.381170 -0.485917
O4    O     O_R   0.500010 0.680370 0.618830 -0.484148
O5    O     O_R   0.319650 0.500020 0.618780 -0.588928
O6    O     O_R   0.680350 0.499980 0.381220 -0.589891
O7    O     O_R   0.319640 0.500000 0.381210 -0.593089
O8    O     O_R   0.680360 0.500000 0.618790 -0.595374
S1    S     S_3+6 0.134647 0.831873 0.496407 0.007347
O9    O     O_2   0.221609 0.767063 0.594550 -0.331245
O10   O     O_2   0.165674 0.965889 0.498935 -0.238615
O11   O     O_3   0.989218 0.814128 0.551686 -0.492812
H17   H     H_    0.990889 0.842531 0.651692 0.389355
S2    S     S_3+6 0.867631 0.164737 0.507779 -0.003000
O12   O     O_2   0.999420 0.176293 0.462763 -0.241501
O13   O     O_2   0.832891 0.031654 0.506889 -0.263624
O14   O     O_3   0.775569 0.237572 0.392764 -0.575788
H18   H     H_    0.789311 0.195001 0.300821 0.380938
S3    S     S_3+6 0.429169 0.116595 0.204499 0.010089
O15   O     O_2   0.532494 0.190814 0.147182 -0.261701
O16   O     O_2   0.398545 0.015591 0.099215 -0.312991
O17   O     O_3   0.303316 0.205565 0.228014 -0.549171
H19   H     H_    0.255148 0.197767 0.138635 0.358553
S4    S     S_3+6 0.566856 0.883330 0.796759 0.018615
O18   O     O_2   0.678225 0.801557 0.781029 -0.332858
O19   O     O_2   0.596680 0.984045 0.902685 -0.282016
O20   O     O_3   0.447348 0.802930 0.856447 -0.489301
H20   H     H_    0.469612 0.785347 0.955462 0.366614

loop_
_geom_bond_atom_site_label_1
_geom_bond_atom_site_label_2
_ccdc_geom_bond_type
S2    O13   D    
C27   C29   A    
S4    O20   S    
C20   C30   A    
C19   H5    S    
C19   C21   A    
C24   C26   A    
C7    S3    S    
C20   H6    S    
S2    O14   S    
C8    S4    S    
C3    C18   S    
S1    O10   D    
C1    O1    A    
C22   S2    S    
C18   O6    A    
C15   H3    S    
C15   N1    A    
C21   S1    S    
C5    C32   A    
Cu1   O4    S    
C6    C31   A    
Cu2   O3    S    
O14   H18   S    
C1    C12   S    
C2    C11   S    
C26   C28   A    
Cu1   O1    S    
C7    C12   A    
O17   H19   S    
S4    O18   D    
C4    C6    A    
C2    O2    A    
C25   H7    S    
S3    O16   D    
C28   H10   S    
S1    O11   S    
C13   N2    A    
C14   N1    A    
Cu1   Cu2   S    
C3    C31   A    
C9    C11   A    
C4    C32   A    
C10   C12   A    
C17   O7    A    
C13   H15   S    
C4    C17   S    
C18   O8    A    
C20   C22   A    
Cu2   O2    S    
Cu1   O8    S    
C13   C15   A    
C10   H14   S    
Cu2   O7    S    
C22   C24   A    
C25   C27   A    
C19   C29   A    
C26   H8    S    
C7    C9    A    
Cu1   O5    S    
C32   H12   S    
C16   N2    A    
S4    O19   D    
C3    C5    A    
S3    O17   S    
C9    H13   S    
Cu1   N1    S    
C29   H1    S    
Cu2   N2    S    
C30   H2    S    
O11   H17   S    
C21   C23   A    
C1    O3    A    
S3    O15   D    
C2    O4    A    
C14   H16   S    
C5    C24   S    
C8    C11   A    
C6    C23   S    
C28   C30   A    
S2    O12   D    
C14   C16   A    
C23   C25   A    
S1    O9    D    
O20   H20   S    
C27   H9    S    
C8    C10   A    
C31   H11   S    
C16   H4    S    
Cu2   O6    S    
C17   O5    A    
