data_mof_unit_25808.cif
_audit_creation_date              2012-12-10T16:33:54-0500
_audit_creation_method            fapswitch 2.2
_symmetry_space_group_name_H-M    P1
_symmetry_Int_Tables_number       1
_space_group_crystal_system       triclinic
_cell_length_a                    28.299866
_cell_length_b                    18.434114
_cell_length_c                    17.089799
_cell_angle_alpha                 90.000301
_cell_angle_beta                  59.971396
_cell_angle_gamma                 89.999714
_cell_volume                      7718.78571534

loop_
_atom_site_label
_atom_site_type_symbol
_atom_type_description
_atom_site_fract_x
_atom_site_fract_y
_atom_site_fract_z
_atom_type_partial_charge
C1    C     C_R   0.703264 0.272991 0.674968 0.920012
C2    C     C_R   0.300585 0.736236 0.323385 0.926625
C3    C     C_R   0.296355 0.273808 0.325447 0.894831
C4    C     C_R   0.699670 0.735687 0.676649 0.904046
C5    C     C_R   0.203589 0.773682 0.674608 0.894852
C6    C     C_R   0.800332 0.235691 0.323350 0.904027
C7    C     C_R   0.796737 0.772989 0.325031 0.919978
C8    C     C_R   0.199403 0.236264 0.676607 0.926679
C9    C     C_R   0.082239 0.379802 0.416977 -0.225048
C10   C     C_R   0.968159 0.632093 0.445039 -0.252173
C11   C     C_R   0.978055 0.371812 0.416295 -0.223560
C12   C     C_R   0.036969 0.626112 0.528714 -0.248343
C13   C     C_R   0.521985 0.871824 0.583571 -0.223534
C14   C     C_R   0.463091 0.126117 0.471096 -0.248257
C15   C     C_R   0.417818 0.879820 0.582869 -0.225050
C16   C     C_R   0.531877 0.132102 0.554828 -0.252183
C17   C     C_R   0.713175 0.257188 0.961813 0.056165
C18   C     C_R   0.274408 0.733667 0.054425 0.057896
C19   C     C_R   0.282047 0.265335 0.043104 0.053332
C20   C     C_R   0.729272 0.726322 0.942067 0.059435
C21   C     C_R   0.217391 0.764367 0.957426 0.053755
C22   C     C_R   0.770744 0.226354 0.057917 0.059429
C23   C     C_R   0.786842 0.757165 0.038168 0.056165
C24   C     C_R   0.225084 0.234572 0.946045 0.057931
C25   C     C_R   0.758262 0.208553 0.926192 -0.020083
C26   C     C_R   0.224968 0.774296 0.094688 -0.015801
C27   C     C_R   0.235668 0.218782 0.079801 -0.019313
C28   C     C_R   0.778977 0.766290 0.901006 -0.017197
C29   C     C_R   0.263362 0.717154 0.921173 -0.019901
C30   C     C_R   0.721041 0.266329 0.098971 -0.017179
C31   C     C_R   0.741756 0.708528 0.073789 -0.020082
C32   C     C_R   0.274770 0.274623 0.905500 -0.016017
C33   C     C_R   0.789988 0.202812 0.968233 -0.183979
C34   C     C_R   0.202050 0.796222 0.041988 -0.196220
C35   C     C_R   0.204615 0.212882 0.036649 -0.182909
C36   C     C_R   0.802072 0.788629 0.953342 -0.195830
C37   C     C_R   0.294527 0.711253 0.964135 -0.183587
C38   C     C_R   0.697946 0.288661 0.046634 -0.195833
C39   C     C_R   0.710029 0.702785 0.031750 -0.183996
C40   C     C_R   0.297701 0.296669 0.958135 -0.196905
C41   C     C_R   0.629220 0.305882 0.955928 0.509389
C42   C     C_R   0.341635 0.653033 0.075201 0.491251
C43   C     C_R   0.368216 0.308947 0.045846 0.510503
C44   C     C_R   0.659982 0.649025 0.922659 0.491215
C45   C     C_R   0.131522 0.808639 0.954351 0.509933
C46   C     C_R   0.840025 0.149045 0.077332 0.491222
C47   C     C_R   0.870790 0.805873 0.044065 0.509411
C48   C     C_R   0.158041 0.153653 0.925298 0.491199
C49   C     C_R   0.608391 0.337273 0.903806 -0.167116
C50   C     C_R   0.377548 0.644295 0.109820 -0.172224
C51   C     C_R   0.390755 0.338078 0.096662 -0.168543
C52   C     C_R   0.623161 0.642787 0.889525 -0.169237
C53   C     C_R   0.109167 0.838008 0.903384 -0.168740
C54   C     C_R   0.876844 0.142797 0.110471 -0.169236
C55   C     C_R   0.891613 0.837269 0.096191 -0.167168
C56   C     C_R   0.122329 0.144522 0.890339 -0.172555
C57   C     C_R   0.630255 0.320325 0.814367 -0.348049
C58   C     C_R   0.368763 0.680343 0.185999 -0.332615
C59   C     C_R   0.369543 0.320291 0.185685 -0.346609
C60   C     C_R   0.631634 0.679959 0.814242 -0.336713
C61   C     C_R   0.130447 0.820306 0.814313 -0.346585
C62   C     C_R   0.868370 0.179967 0.185755 -0.336684
C63   C     C_R   0.869746 0.820324 0.185632 -0.348154
C64   C     C_R   0.131220 0.180364 0.813972 -0.332596
C65   C     C_R   0.680005 0.287182 0.770370 -0.063941
C66   C     C_R   0.325600 0.726695 0.226531 -0.075692
C67   C     C_R   0.318899 0.289634 0.230812 -0.056123
C68   C     C_R   0.675419 0.725186 0.773235 -0.070996
C69   C     C_R   0.180971 0.789292 0.769327 -0.056076
C70   C     C_R   0.824588 0.225199 0.226761 -0.071011
C71   C     C_R   0.819999 0.787175 0.229625 -0.063913
C72   C     C_R   0.174331 0.226814 0.773475 -0.075577
C73   C     C_R   0.708835 0.272220 0.816343 -0.264854
C74   C     C_R   0.300196 0.752126 0.178480 -0.258527
C75   C     C_R   0.288531 0.278561 0.186755 -0.272742
C76   C     C_R   0.702139 0.748329 0.820210 -0.255554
C77   C     C_R   0.211155 0.777660 0.813611 -0.272302
C78   C     C_R   0.797874 0.248353 0.179780 -0.255574
C79   C     C_R   0.791173 0.772204 0.183645 -0.264836
C80   C     C_R   0.199608 0.252495 0.821616 -0.258382
C81   C     C_R   0.683090 0.277211 0.911566 -0.037406
C82   C     C_R   0.305748 0.713533 0.102694 -0.028173
C83   C     C_R   0.313467 0.283185 0.091738 -0.034578
C84   C     C_R   0.696850 0.708368 0.894968 -0.028541
C85   C     C_R   0.186135 0.782440 0.908624 -0.034619
C86   C     C_R   0.803163 0.208396 0.105019 -0.028556
C87   C     C_R   0.816921 0.777195 0.088422 -0.037398
C88   C     C_R   0.193885 0.214183 0.897672 -0.028225
C89   C     C_R   0.691340 0.129396 0.534655 0.909453
C90   C     C_R   0.303081 0.872063 0.483165 0.889448
C91   C     C_R   0.308564 0.129115 0.466750 0.906417
C92   C     C_R   0.691006 0.870630 0.535518 0.879780
C93   C     C_R   0.191442 0.629109 0.533224 0.906440
C94   C     C_R   0.808997 0.370628 0.464473 0.879759
C95   C     C_R   0.808661 0.629394 0.465340 0.909416
C96   C     C_R   0.196928 0.372061 0.516807 0.889235
C97   C     C_R   0.077754 0.094192 0.929692 0.945132
C98   C     C_R   0.930900 0.895295 0.061694 0.907649
C99   C     C_R   0.922111 0.093802 0.070463 0.947348
C100  C     C_R   0.069330 0.895424 0.938143 0.905770
C101  C     C_R   0.577890 0.593799 0.929537 0.947410
C102  C     C_R   0.430656 0.395425 0.061864 0.905678
C103  C     C_R   0.422206 0.594113 0.070356 0.945630
C104  C     C_R   0.569102 0.395296 0.938305 0.907699
C105  C     C_R   0.530680 0.001232 0.557069 0.019786
C106  C     C_R   0.442354 0.001885 0.524029 0.017565
C107  C     C_R   0.057706 0.501878 0.475791 0.017626
C108  C     C_R   0.969363 0.501221 0.442792 0.019777
C109  C     C_R   0.511926 0.067152 0.539974 0.053311
C110  C     C_R   0.454404 0.938320 0.557677 0.048344
C111  C     C_R   0.472199 0.066063 0.512815 0.047828
C112  C     C_R   0.501947 0.936254 0.566248 0.046111
C113  C     C_R   0.027862 0.566056 0.486999 0.048092
C114  C     C_R   0.998104 0.436242 0.433595 0.046095
C115  C     C_R   0.988124 0.567142 0.459865 0.053230
C116  C     C_R   0.045655 0.438309 0.442149 0.048300
C117  C     C_R   0.602240 0.934587 0.569158 0.070464
C118  C     C_R   0.387579 0.064328 0.468632 0.078123
C119  C     C_R   0.367711 0.939062 0.518582 0.060792
C120  C     C_R   0.603787 0.066820 0.564504 0.069522
C121  C     C_R   0.132329 0.439050 0.481303 0.060673
C122  C     C_R   0.896227 0.566812 0.435436 0.069519
C123  C     C_R   0.897774 0.434577 0.430788 0.070442
C124  C     C_R   0.112464 0.564321 0.531224 0.078622
C125  C     C_R   0.655894 0.935101 0.558467 -0.126041
C126  C     C_R   0.340490 0.064144 0.457763 -0.135614
C127  C     C_R   0.329532 0.937590 0.487090 -0.109792
C128  C     C_R   0.656448 0.065388 0.557048 -0.131982
C129  C     C_R   0.170489 0.437583 0.512838 -0.109730
C130  C     C_R   0.843557 0.565383 0.442928 -0.132013
C131  C     C_R   0.844113 0.435094 0.441507 -0.126039
C132  C     C_R   0.159531 0.564136 0.542153 -0.135648
C133  C     C_R   0.680349 0.000168 0.557059 -0.309029
C134  C     C_R   0.316431 0.999771 0.457806 -0.310363
C135  C     C_R   0.183581 0.499764 0.542135 -0.310462
C136  C     C_R   0.819657 0.500161 0.442916 -0.309011
C137  C     C_R   0.578793 0.000796 0.564091 0.074191
C138  C     C_R   0.399613 0.001585 0.502975 0.071011
C139  C     C_R   0.100438 0.501578 0.496870 0.071082
C140  C     C_R   0.921232 0.500786 0.435822 0.074216
C141  C     C_R   0.125664 0.381290 0.433341 -0.187443
C142  C     C_R   0.925441 0.631374 0.427034 -0.211789
C143  C     C_R   0.929282 0.371121 0.414451 -0.188915
C144  C     C_R   0.077486 0.624522 0.552448 -0.210929
C145  C     C_R   0.570735 0.871134 0.585479 -0.188919
C146  C     C_R   0.422562 0.124528 0.447382 -0.210942
C147  C     C_R   0.374381 0.881313 0.566547 -0.187398
C148  C     C_R   0.574575 0.131383 0.572887 -0.211750
H1    H     H_    0.720813 0.000023 0.549202 0.197691
H2    H     H_    0.284396 0.999064 0.440495 0.191980
H3    H     H_    0.215596 0.499058 0.559494 0.191991
H4    H     H_    0.779193 0.500018 0.450775 0.197687
H5    H     H_    0.154319 0.336966 0.405601 0.175026
H6    H     H_    0.916448 0.682436 0.406628 0.180817
H7    H     H_    0.918086 0.320190 0.397161 0.174058
H8    H     H_    0.080291 0.670746 0.588813 0.173028
H9    H     H_    0.581914 0.820207 0.602809 0.174036
H10   H     H_    0.419736 0.170757 0.411045 0.173068
H11   H     H_    0.345715 0.837007 0.594332 0.174945
H12   H     H_    0.583554 0.182444 0.593315 0.180845
H13   H     H_    0.079340 0.333150 0.381438 0.135480
H14   H     H_    0.986743 0.683776 0.443446 0.147354
H15   H     H_    0.998254 0.320292 0.407203 0.138038
H16   H     H_    0.011701 0.674124 0.546335 0.150017
H17   H     H_    0.501795 0.820302 0.592635 0.138084
H18   H     H_    0.488355 0.174133 0.453482 0.150047
H19   H     H_    0.420719 0.833171 0.618411 0.135644
H20   H     H_    0.513296 0.183783 0.556404 0.147388
H21   H     H_    0.666030 0.328686 0.075973 0.206163
H22   H     H_    0.333693 0.684976 0.926972 0.198181
H23   H     H_    0.329971 0.336247 0.928879 0.205802
H24   H     H_    0.671157 0.675942 0.069157 0.199109
H25   H     H_    0.170026 0.836176 0.070867 0.205298
H26   H     H_    0.828861 0.175971 0.930826 0.199105
H27   H     H_    0.833989 0.828651 0.923995 0.206178
H28   H     H_    0.165263 0.187052 0.073877 0.197734
H29   H     H_    0.610598 0.338336 0.777194 0.202107
H30   H     H_    0.392255 0.667195 0.218455 0.197460
H31   H     H_    0.390468 0.335910 0.221699 0.201536
H32   H     H_    0.607286 0.668590 0.782810 0.194239
H33   H     H_    0.109674 0.836231 0.778157 0.201656
H34   H     H_    0.892716 0.168592 0.217191 0.194269
H35   H     H_    0.889400 0.838340 0.222808 0.202103
H36   H     H_    0.107854 0.166980 0.781367 0.197578
H37   H     H_    0.751316 0.257709 0.776777 0.188679
H38   H     H_    0.274345 0.799090 0.204460 0.183973
H39   H     H_    0.245590 0.267264 0.227789 0.182975
H40   H     H_    0.728770 0.794571 0.794169 0.183794
H41   H     H_    0.254031 0.765784 0.772812 0.182916
H42   H     H_    0.771247 0.294599 0.205820 0.183797
H43   H     H_    0.748694 0.757688 0.223208 0.188674
H44   H     H_    0.225536 0.299397 0.795529 0.183731
O1    O     O_R   0.746490 0.236330 0.638080 -0.624031
O2    O     O_R   0.253510 0.763670 0.361920 -0.617912
O3    O     O_R   0.253510 0.236330 0.361920 -0.636217
O4    O     O_R   0.746490 0.763670 0.638080 -0.618433
O5    O     O_R   0.246490 0.736330 0.638080 -0.636640
O6    O     O_R   0.753510 0.263670 0.361920 -0.618439
O7    O     O_R   0.753510 0.736330 0.361920 -0.624031
O8    O     O_R   0.246490 0.263670 0.638080 -0.617847
O9    O     O_R   0.674170 0.186160 0.516270 -0.646556
O10   O     O_R   0.325830 0.813840 0.483730 -0.643908
O11   O     O_R   0.325830 0.186160 0.483730 -0.643758
O12   O     O_R   0.674170 0.813840 0.516270 -0.641882
O13   O     O_R   0.174170 0.686160 0.516270 -0.643946
O14   O     O_R   0.825830 0.313840 0.483730 -0.641883
O15   O     O_R   0.825830 0.686160 0.483730 -0.646520
O16   O     O_R   0.174170 0.313840 0.516270 -0.643903
O17   O     O_R   0.739960 0.127620 0.525000 -0.621495
O18   O     O_R   0.260040 0.872380 0.475000 -0.636105
O19   O     O_R   0.260040 0.127620 0.475000 -0.617368
O20   O     O_R   0.739960 0.872380 0.525000 -0.631234
O21   O     O_R   0.239960 0.627620 0.525000 -0.617198
O22   O     O_R   0.760040 0.372380 0.475000 -0.631238
O23   O     O_R   0.760040 0.627620 0.475000 -0.621494
O24   O     O_R   0.239960 0.372380 0.525000 -0.636266
O25   O     O_R   0.680700 0.294870 0.629350 -0.638251
O26   O     O_R   0.319300 0.705130 0.370650 -0.621942
O27   O     O_R   0.319300 0.294870 0.370650 -0.640022
O28   O     O_R   0.680700 0.705130 0.629350 -0.631886
O29   O     O_R   0.180700 0.794870 0.629350 -0.639983
O30   O     O_R   0.819300 0.205130 0.370650 -0.631869
O31   O     O_R   0.819300 0.794870 0.370650 -0.638256
O32   O     O_R   0.180700 0.205130 0.629350 -0.622063
O33   O     O_R   0.062020 0.072840 0.007170 -0.570607
O34   O     O_R   0.937980 0.927160 0.992830 -0.570994
O35   O     O_R   0.937980 0.072840 0.992830 -0.571505
O36   O     O_R   0.062020 0.927160 0.007170 -0.571700
O37   O     O_R   0.562020 0.572840 0.007170 -0.571490
O38   O     O_R   0.437980 0.427160 0.992830 -0.571542
O39   O     O_R   0.437980 0.572840 0.992830 -0.571003
O40   O     O_R   0.562020 0.427160 0.007170 -0.571004
O41   O     O_R   0.947860 0.073950 0.109290 -0.639267
O42   O     O_R   0.052140 0.926050 0.890710 -0.638172
O43   O     O_R   0.052140 0.073950 0.890710 -0.638176
O44   O     O_R   0.947860 0.926050 0.109290 -0.639562
O45   O     O_R   0.447860 0.573950 0.109290 -0.638215
O46   O     O_R   0.552140 0.426050 0.890710 -0.639595
O47   O     O_R   0.552140 0.573950 0.890710 -0.639327
O48   O     O_R   0.447860 0.426050 0.109290 -0.638111
Zn1   Zn    Zn3+2 0.792340 0.208750 0.507670 0.942443
Zn2   Zn    Zn3+2 0.207660 0.791250 0.492330 0.929781
Zn3   Zn    Zn3+2 0.207660 0.208750 0.492330 0.941771
Zn4   Zn    Zn3+2 0.792340 0.791250 0.507670 0.929222
Zn5   Zn    Zn3+2 0.292340 0.708750 0.507670 0.942036
Zn6   Zn    Zn3+2 0.707660 0.291250 0.492330 0.929198
Zn7   Zn    Zn3+2 0.707660 0.708750 0.492330 0.942402
Zn8   Zn    Zn3+2 0.292340 0.291250 0.507670 0.929735
Zn9   Zn    Zn3+2 0.505960 0.500000 0.080520 0.989244
Zn10  Zn    Zn3+2 0.494040 0.500000 0.919480 0.987459
Zn11  Zn    Zn3+2 0.005960 0.000000 0.080520 0.987708
Zn12  Zn    Zn3+2 0.994040 0.000000 0.919480 0.989188
C149  C     C_R   0.770283 0.156530 0.852083 0.110971
C150  C     C_R   0.728966 0.110466 0.858063 -0.128406
C151  C     C_R   0.740021 0.061118 0.788819 -0.133287
C152  C     C_R   0.792396 0.056903 0.713442 -0.102279
C153  C     C_R   0.833868 0.101904 0.707271 -0.128785
C154  C     C_R   0.823026 0.151399 0.776318 -0.165110
H45   H     H_    0.688229 0.112874 0.916304 0.120491
H46   H     H_    0.707985 0.026060 0.793649 0.127065
H47   H     H_    0.800851 0.018700 0.659888 0.116065
H48   H     H_    0.874432 0.098528 0.648853 0.116138
H49   H     H_    0.855481 0.186350 0.770130 0.124535
C155  C     C_R   0.191853 0.787921 0.193006 0.102095
C156  C     C_R   0.174205 0.729301 0.253623 -0.139452
C157  C     C_R   0.143271 0.741618 0.346505 -0.090629
C158  C     C_R   0.128944 0.812242 0.379761 -0.093250
C159  C     C_R   0.145531 0.870834 0.319852 -0.145965
C160  C     C_R   0.176783 0.858875 0.226687 -0.172365
H50   H     H_    0.184895 0.674202 0.228917 0.123534
H51   H     H_    0.130797 0.696282 0.392429 0.156740
H52   H     H_    0.105018 0.821516 0.451881 0.103420
H53   H     H_    0.134278 0.925510 0.345611 0.124779
H54   H     H_    0.189819 0.904784 0.181013 0.136542
C161  C     C_R   0.220846 0.169453 0.157303 0.117889
C162  C     C_R   0.259286 0.119598 0.154449 -0.127928
C163  C     C_R   0.245716 0.073664 0.227832 -0.131001
C164  C     C_R   0.193691 0.076808 0.304254 -0.091797
C165  C     C_R   0.154983 0.125515 0.307194 -0.132888
C166  C     C_R   0.168306 0.171485 0.233923 -0.181345
H55   H     H_    0.299785 0.116707 0.095659 0.120115
H56   H     H_    0.275570 0.035719 0.225540 0.125012
H57   H     H_    0.183371 0.041466 0.361166 0.109477
H58   H     H_    0.114692 0.127842 0.366419 0.115097
H59   H     H_    0.138105 0.209531 0.237551 0.118871
C167  C     C_R   0.812192 0.778063 0.802207 0.103117
C168  C     C_R   0.828478 0.718322 0.743285 -0.139402
C169  C     C_R   0.859635 0.728687 0.650000 -0.093984
C170  C     C_R   0.875245 0.798562 0.614652 -0.087556
C171  C     C_R   0.859839 0.858269 0.672801 -0.148050
C172  C     C_R   0.828605 0.848200 0.766349 -0.173203
H60   H     H_    0.816751 0.663810 0.769660 0.122480
H61   H     H_    0.871439 0.682409 0.605364 0.153710
H62   H     H_    0.899281 0.806390 0.542267 0.102443
H63   H     H_    0.872013 0.912374 0.645386 0.121181
H64   H     H_    0.816550 0.894963 0.810606 0.138477
C173  C     C_R   0.277509 0.667154 0.844489 0.117650
C174  C     C_R   0.238379 0.618108 0.848198 -0.127570
C175  C     C_R   0.251337 0.571409 0.775720 -0.131736
C176  C     C_R   0.303438 0.572952 0.699357 -0.093247
C177  C     C_R   0.342814 0.620860 0.695554 -0.132657
C178  C     C_R   0.330094 0.667621 0.767904 -0.179817
H65   H     H_    0.197826 0.616396 0.906981 0.120003
H66   H     H_    0.220956 0.534087 0.778687 0.125206
H67   H     H_    0.313296 0.536984 0.643168 0.110813
H68   H     H_    0.383166 0.621939 0.636378 0.114993
H69   H     H_    0.360830 0.705014 0.763596 0.118643
C179  C     C_R   0.687829 0.278127 0.197767 0.103082
C180  C     C_R   0.671548 0.218404 0.256714 -0.139395
C181  C     C_R   0.640394 0.228794 0.349996 -0.093931
C182  C     C_R   0.624780 0.298676 0.385315 -0.087707
C183  C     C_R   0.640179 0.358366 0.327142 -0.148096
C184  C     C_R   0.671413 0.348272 0.233598 -0.173140
H70   H     H_    0.683277 0.163887 0.230363 0.122491
H71   H     H_    0.628598 0.182531 0.394650 0.153737
H72   H     H_    0.600745 0.306525 0.457698 0.102405
H73   H     H_    0.627999 0.412475 0.354535 0.121177
H74   H     H_    0.683462 0.395022 0.189323 0.138484
C185  C     C_R   0.729740 0.656502 0.147892 0.110974
C186  C     C_R   0.771061 0.610442 0.141905 -0.128424
C187  C     C_R   0.760006 0.561086 0.211142 -0.133284
C188  C     C_R   0.707629 0.556861 0.286514 -0.102300
C189  C     C_R   0.666153 0.601860 0.292691 -0.128814
C190  C     C_R   0.676995 0.651363 0.223653 -0.165077
H75   H     H_    0.811800 0.612858 0.083668 0.120478
H76   H     H_    0.792044 0.526029 0.206308 0.127061
H77   H     H_    0.699175 0.518651 0.340060 0.116070
H78   H     H_    0.625586 0.598473 0.351103 0.116115
H79   H     H_    0.644539 0.686310 0.229842 0.124541
C191  C     C_R   0.308106 0.287316 0.807007 0.102610
C192  C     C_R   0.325346 0.228130 0.747260 -0.140124
C193  C     C_R   0.356454 0.239523 0.654219 -0.090378
C194  C     C_R   0.371382 0.309784 0.619928 -0.091582
C195  C     C_R   0.355209 0.368936 0.678972 -0.146916
C196  C     C_R   0.323772 0.357900 0.772301 -0.172165
H80   H     H_    0.314201 0.173298 0.772763 0.123134
H81   H     H_    0.368589 0.193741 0.609000 0.156735
H82   H     H_    0.395448 0.318343 0.547682 0.103656
H83   H     H_    0.366921 0.423333 0.652412 0.124019
H84   H     H_    0.311054 0.404234 0.817295 0.137253
O49   O     O_3   0.596861 0.305696 0.048933 -0.620491
C197  C     C_3   0.569099 0.238829 0.075310 -0.340994
H85   H     H_    0.598137 0.192579 0.056120 0.163009
H86   H     H_    0.541898 0.231547 0.046232 0.150321
H87   H     H_    0.543032 0.238392 0.149980 0.198465
O50   O     O_3   0.340767 0.600648 0.017945 -0.618940
C198  C     C_3   0.301167 0.548278 0.070585 -0.290454
H88   H     H_    0.259646 0.572653 0.108080 0.151624
H89   H     H_    0.311411 0.520793 0.118234 0.153921
H90   H     H_    0.300469 0.506169 0.024789 0.194580
O51   O     O_3   0.399774 0.308325 0.952713 -0.619892
C199  C     C_3   0.425096 0.239909 0.925869 -0.337974
H91   H     H_    0.394414 0.195622 0.945932 0.163600
H92   H     H_    0.452596 0.229740 0.953797 0.150606
H93   H     H_    0.450500 0.239107 0.851094 0.199587
O52   O     O_3   0.660696 0.595306 0.978602 -0.620150
C200  C     C_3   0.698990 0.542120 0.924480 -0.289693
H94   H     H_    0.740910 0.565181 0.886121 0.151212
H95   H     H_    0.687457 0.516322 0.877482 0.154333
H96   H     H_    0.699507 0.498911 0.969235 0.195726
O53   O     O_3   0.099957 0.808231 0.047489 -0.619709
C201  C     C_3   0.074198 0.740093 0.074519 -0.337352
H97   H     H_    0.104599 0.695453 0.054581 0.163276
H98   H     H_    0.046637 0.730343 0.046613 0.150262
H99   H     H_    0.048786 0.739462 0.149295 0.199491
O54   O     O_3   0.839309 0.095328 0.021388 -0.620147
C202  C     C_3   0.801008 0.042151 0.075509 -0.289687
H100  H     H_    0.759092 0.065224 0.113883 0.151203
H101  H     H_    0.812544 0.016334 0.122491 0.154355
H102  H     H_    0.800477 0.998954 0.030750 0.195729
O55   O     O_3   0.903152 0.805686 0.951061 -0.620486
C203  C     C_3   0.930917 0.738820 0.924686 -0.340998
H103  H     H_    0.901882 0.692567 0.943877 0.162991
H104  H     H_    0.958118 0.731543 0.953768 0.150261
H105  H     H_    0.956985 0.738380 0.850017 0.198496
O56   O     O_3   0.158736 0.101671 0.983125 -0.618477
C204  C     C_3   0.198405 0.049177 0.931104 -0.290152
H106  H     H_    0.239936 0.073533 0.893731 0.151160
H107  H     H_    0.188366 0.021337 0.883412 0.153860
H108  H     H_    0.198938 0.007365 0.977350 0.194310

loop_
_geom_bond_atom_site_label_1
_geom_bond_atom_site_label_2
_ccdc_geom_bond_type
O23   Zn7   S    
C200  H94   S    
C100  O42   A    
O8    Zn8   S    
C79   C87   A    
C184  H74   S    
C61   C69   A    
C194  C195  A    
C104  O46   A    
C155  C160  A    
C167  C172  A    
O43   Zn12  S    
C27   C161  S    
C13   C112  A    
C99   O41   A    
C96   O16   A    
C97   O43   A    
C203  H103  S    
C30   C38   A    
C148  H12   S    
C30   C179  S    
C166  H59   S    
C107  C113  A    
C204  H108  S    
C29   C173  S    
C181  C182  A    
C149  C154  A    
O11   Zn8   S    
C173  C178  A    
C76   H40   S    
C50   C103  S    
C10   H14   S    
C79   H43   S    
C80   H44   S    
C41   C49   A    
C136  H4    S    
C16   C109  A    
C52   C101  S    
C94   O22   A    
C63   H35   S    
C191  C192  A    
C189  C190  A    
O18   Zn2   S    
C57   C65   A    
C197  H85   S    
C20   C28   A    
C27   C35   A    
C177  C178  A    
C21   C29   A    
C3    O3    A    
C23   C31   A    
C1    O1    A    
C156  H50   S    
C24   C32   A    
C145  H9    S    
C158  H52   S    
C199  H91   S    
C47   O55   S    
C105  C112  A    
C63   C71   A    
C120  C148  A    
C200  H96   S    
C174  C175  A    
C176  C177  A    
C38   H21   S    
C108  C140  A    
C4    O4    A    
O10   Zn5   S    
C9    C116  A    
C61   H33   S    
C170  H62   S    
C197  H87   S    
C5    O5    A    
O24   Zn8   S    
C96   O24   A    
C203  H105  S    
C17   C25   A    
C161  C166  A    
C80   C88   A    
C150  H45   S    
C55   C98   S    
O5    Zn5   S    
C18   C82   S    
C101  O37   A    
C202  H102  S    
C179  C184  A    
C98   O44   A    
C126  C134  A    
C36   H27   S    
C187  C188  A    
C2    O26   A    
O27   Zn8   S    
C118  C138  A    
C11   C143  A    
C40   H23   S    
O37   Zn9   S    
O55   C203  S    
C96   C129  S    
C90   O10   A    
C176  H67   S    
C163  H56   S    
C43   C83   A    
C124  C139  A    
C69   C77   A    
O51   C199  S    
C94   O14   A    
C127  C134  A    
C13   C145  A    
C43   C51   A    
C92   C125  S    
C49   C104  S    
C71   C79   A    
C51   C102  S    
C42   C82   A    
C62   C70   A    
C160  H54   S    
C177  H68   S    
C108  C115  A    
C157  H51   S    
C109  C111  A    
C149  C150  A    
C201  H97   S    
C66   C74   A    
C199  H93   S    
C49   C57   A    
C183  C184  A    
C124  C132  A    
C153  C154  A    
C52   C60   A    
C59   C67   A    
C129  C135  A    
C53   C61   A    
C155  C156  A    
C55   C63   A    
C95   C130  S    
C1    C65   S    
C56   C64   A    
C14   H18   S    
C93   C132  S    
C175  H66   S    
O36   Zn11  S    
C44   C52   A    
C28   C167  S    
C77   C85   A    
C163  C164  A    
O46   Zn10  S    
C15   H19   S    
C56   C97   S    
C19   C83   S    
C195  H83   S    
C105  C109  A    
C106  C111  A    
C103  O39   A    
O26   Zn5   S    
C193  C194  A    
C91   O19   A    
C131  C136  A    
O17   Zn1   S    
C4    C68   S    
C25   C149  S    
C195  C196  A    
C89   O17   A    
C190  H79   S    
C47   C87   A    
C144  H8    S    
O21   Zn5   S    
C143  H7    S    
C165  C166  A    
C11   H15   S    
C170  C171  A    
C58   H30   S    
C142  H6    S    
C9    H13   S    
C33   H26   S    
C60   C68   A    
C42   C50   A    
C23   C36   A    
C191  C196  A    
C20   C84   S    
C54   C99   S    
C8    O8    A    
O14   Zn1   S    
C67   C75   A    
C102  O38   A    
O3    Zn3   S    
C151  H46   S    
C22   C30   A    
C119  C138  A    
O1    Zn1   S    
C192  H80   S    
C2    C66   S    
C92   O12   A    
C193  H81   S    
C114  C116  A    
C158  C159  A    
O32   Zn3   S    
C146  H10   S    
C68   C76   A    
C164  H57   S    
C77   H41   S    
C121  C139  A    
C122  C140  A    
C72   C80   A    
O15   Zn4   S    
C198  H90   S    
C57   H29   S    
C141  H5    S    
C203  H104  S    
C17   C38   A    
C107  C139  A    
C110  C112  A    
C107  C116  A    
C204  H107  S    
O12   Zn7   S    
C92   O20   A    
C19   C40   A    
C105  C137  A    
C64   H36   S    
O48   Zn9   S    
C162  C163  A    
O33   Zn11  S    
C168  H60   S    
O40   Zn9   S    
C113  C115  A    
C117  C125  A    
C201  H99   S    
C99   O35   A    
C151  C152  A    
C25   C33   A    
C119  C127  A    
C97   O33   A    
C101  O47   A    
C89   O9    A    
C161  C162  A    
C18   C26   A    
C76   C84   A    
C179  C180  A    
O34   Zn12  S    
C196  H84   S    
C197  H86   S    
C119  C147  A    
C187  H76   S    
C117  C145  A    
C171  C172  A    
C10   C142  A    
C108  C114  A    
C100  O36   A    
O54   C202  S    
C5    C69   S    
C202  H100  S    
C4    O28   A    
C199  H92   S    
C90   C127  S    
C48   C88   A    
C41   O49   S    
C8    O32   A    
C188  C189  A    
C147  H11   S    
C200  H95   S    
C152  H47   S    
O47   Zn10  S    
C15   C110  A    
C74   C82   A    
O30   Zn1   S    
C181  H71   S    
C53   C100  S    
C95   O15   A    
C21   C85   S    
C8    C72   S    
C93   O21   A    
C153  H48   S    
C50   C58   A    
O19   Zn3   S    
O25   Zn6   S    
C198  H88   S    
C20   C39   A    
C21   C34   A    
C54   C62   A    
O49   C197  S    
C178  H69   S    
C2    O2    A    
C192  C193  A    
C42   O50   S    
C150  C151  A    
C121  C141  A    
C12   H16   S    
C73   H37   S    
C168  C169  A    
O31   Zn4   S    
C41   C81   A    
C46   C54   A    
C48   O56   S    
C186  H75   S    
C24   C88   S    
C73   C81   A    
O28   Zn7   S    
O41   Zn11  S    
C6    C70   S    
C185  C190  A    
O9    Zn6   S    
C123  C131  A    
C75   H39   S    
C121  C129  A    
C44   C84   A    
C180  H70   S    
C120  C128  A    
C60   H32   S    
C102  O48   A    
C94   C131  S    
C59   H31   S    
C172  H64   S    
C34   H25   S    
C186  C187  A    
C15   C147  A    
C75   C83   A    
C201  H98   S    
C194  H82   S    
O6    Zn6   S    
C135  H3    S    
C45   O53   S    
C17   C81   S    
C22   C86   S    
C106  C138  A    
C185  C186  A    
C26   C155  S    
C159  C160  A    
C28   C36   A    
C3    O27   A    
C29   C37   A    
C1    O25   A    
C120  C137  A    
C91   O11   A    
O35   Zn12  S    
C74   H38   S    
C89   C128  S    
C5    O29   A    
C182  C183  A    
C91   C126  S    
C70   C78   A    
C95   O23   A    
C173  C174  A    
C90   O18   A    
C154  H49   S    
C78   H42   S    
C175  C176  A    
C93   O13   A    
C65   C73   A    
C180  C181  A    
C39   H24   S    
O4    Zn4   S    
C35   H28   S    
C6    O30   A    
C18   C37   A    
C46   O54   S    
C7    C71   S    
C167  C168  A    
C104  O40   A    
C62   H34   S    
C162  H55   S    
C134  H2    S    
C7    O31   A    
C189  H78   S    
C11   C114  A    
C13   H17   S    
C58   C66   A    
C159  H53   S    
C19   C27   A    
C156  C157  A    
O7    Zn7   S    
C174  H65   S    
C78   C86   A    
C32   C40   A    
C23   C87   S    
C182  H72   S    
C44   O52   S    
O45   Zn9   S    
C130  C136  A    
C26   C34   A    
O29   Zn2   S    
C14   C111  A    
C24   C35   A    
C171  H63   S    
C118  C146  A    
C133  H1    S    
C202  H101  S    
O42   Zn12  S    
C37   H22   S    
C6    O6    A    
C9    C141  A    
C169  H61   S    
C117  C137  A    
C123  C140  A    
C12   C144  A    
C45   C85   A    
C198  H89   S    
C188  H77   S    
C103  O45   A    
C152  C153  A    
C165  H58   S    
O22   Zn6   S    
C204  H106  S    
C32   C191  S    
C51   C59   A    
C122  C142  A    
O44   Zn11  S    
O13   Zn2   S    
O56   C204  S    
C47   C55   A    
C12   C113  A    
C106  C110  A    
C125  C133  A    
C48   C56   A    
C22   C33   A    
O2    Zn2   S    
C164  C165  A    
C3    C67   S    
C43   O51   S    
O53   C201  S    
C14   C146  A    
C16   C148  A    
C169  C170  A    
O20   Zn4   S    
C128  C133  A    
O50   C198  S    
C16   H20   S    
C132  C135  A    
O52   C200  S    
C31   C39   A    
C64   C72   A    
C7    O7    A    
C157  C158  A    
C45   C53   A    
C31   C185  S    
C123  C143  A    
C183  H73   S    
C124  C144  A    
O16   Zn3   S    
C118  C126  A    
C98   O34   A    
O38   Zn10  S    
O39   Zn10  S    
C122  C130  A    
C10   C115  A    
C46   C86   A    
