data_mof_unit_65967.cif
_audit_creation_date              2012-12-10T17:36:42-0500
_audit_creation_method            fapswitch 2.2
_symmetry_space_group_name_H-M    P1
_symmetry_Int_Tables_number       1
_space_group_crystal_system       triclinic
_cell_length_a                    43.840587
_cell_length_b                    30.10642
_cell_length_c                    30.100024
_cell_angle_alpha                 90.001356
_cell_angle_beta                  133.373016
_cell_angle_gamma                 89.996207
_cell_volume                      28878.5842957

loop_
_atom_site_label
_atom_site_type_symbol
_atom_type_description
_atom_site_fract_x
_atom_site_fract_y
_atom_site_fract_z
_atom_type_partial_charge
C1    C     C_R   0.499988 0.500001 0.913308 0.877282
C2    C     C_R   0.500012 0.500002 0.086692 0.877257
C3    C     C_R   0.999989 0.000001 0.913308 0.877449
C4    C     C_R   0.000014 0.000002 0.086693 0.877070
C5    C     C_3   0.225766 0.535311 0.758803 -0.341203
C6    C     C_3   0.774229 0.535556 0.241473 -0.341232
C7    C     C_3   0.725765 0.033535 0.760625 -0.340821
C8    C     C_3   0.274231 0.036998 0.243133 -0.341520
C9    C     C_3   0.274272 0.536475 0.805943 -0.350815
C10   C     C_3   0.725724 0.536708 0.194341 -0.350766
C11   C     C_3   0.774270 0.034773 0.807827 -0.351071
C12   C     C_3   0.225726 0.038083 0.196049 -0.350501
C13   C     C_1   0.163047 0.500740 0.662501 -0.001559
C14   C     C_1   0.836952 0.500724 0.337506 -0.001565
C15   C     C_1   0.663046 0.000790 0.662534 -0.001380
C16   C     C_1   0.336951 0.000678 0.337532 -0.001717
C17   C     C_1   0.336947 0.500060 0.836922 -0.028752
C18   C     C_1   0.663053 0.500046 0.163077 -0.028737
C19   C     C_1   0.836946 0.000073 0.836931 -0.028791
C20   C     C_1   0.163053 0.000033 0.163076 -0.028676
C21   C     C_1   0.374480 0.500026 0.874485 -0.126513
C22   C     C_1   0.625520 0.500017 0.125515 -0.126522
C23   C     C_1   0.874479 0.000030 0.874491 -0.126472
C24   C     C_1   0.125521 0.000013 0.125514 -0.126541
C25   C     C_R   0.530608 0.475857 0.688262 -0.207827
C26   C     C_R   0.469382 0.475876 0.311726 -0.207924
C27   C     C_R   0.030543 0.975766 0.688190 -0.207788
C28   C     C_R   0.969357 0.975908 0.311699 -0.207965
C29   C     C_R   0.499895 0.499802 0.634731 -0.069359
C30   C     C_R   0.500104 0.499802 0.365268 -0.069356
C31   C     C_R   0.999895 0.999804 0.634727 -0.069247
C32   C     C_R   0.000104 0.999800 0.365266 -0.069399
C33   C     C_R   0.469099 0.523622 0.626739 -0.217934
C34   C     C_R   0.530909 0.523606 0.373269 -0.217897
C35   C     C_R   0.969165 0.023719 0.626799 -0.218047
C36   C     C_R   0.030932 0.023570 0.373290 -0.217826
C37   C     C_R   0.469215 0.524273 0.673023 0.085811
C38   C     C_R   0.530793 0.524258 0.326985 0.085790
C39   C     C_R   0.969284 0.024372 0.673087 0.085905
C40   C     C_R   0.030817 0.024222 0.327008 0.085731
C41   C     C_R   0.499832 0.499719 0.726946 0.061164
C42   C     C_R   0.500166 0.499722 0.273051 0.061171
C43   C     C_R   0.999833 0.999722 0.726941 0.061154
C44   C     C_R   0.000166 0.999721 0.273048 0.061168
C45   C     C_R   0.418962 0.500001 0.918972 0.893985
C46   C     C_R   0.581038 0.499998 0.081028 0.894021
C47   C     C_R   0.918961 0.000001 0.918974 0.893761
C48   C     C_R   0.081039 0.999998 0.081028 0.894203
C49   C     C_R   0.530439 0.475141 0.734266 0.084890
C50   C     C_R   0.469550 0.475161 0.265720 0.084936
C51   C     C_R   0.030370 0.975048 0.734192 0.084856
C52   C     C_R   0.969524 0.975195 0.265691 0.084971
C53   C     C_R   0.439305 0.549185 0.666142 -0.223360
C54   C     C_R   0.560712 0.549153 0.333878 -0.223331
C55   C     C_R   0.939447 0.049381 0.666279 -0.223473
C56   C     C_R   0.060762 0.049083 0.333926 -0.223227
C57   C     C_R   0.439458 0.550316 0.712534 0.155439
C58   C     C_R   0.560560 0.550284 0.287485 0.155462
C59   C     C_R   0.939605 0.050514 0.712677 0.155281
C60   C     C_R   0.060612 0.050215 0.287536 0.155616
C61   C     C_R   0.469758 0.525643 0.766528 0.069860
C62   C     C_R   0.530250 0.525629 0.233480 0.069864
C63   C     C_R   0.969834 0.025742 0.766599 0.069944
C64   C     C_R   0.030277 0.025595 0.233505 0.069782
C65   C     C_R   0.499866 0.499780 0.773445 0.003463
C66   C     C_R   0.500132 0.499784 0.226551 0.003459
C67   C     C_R   0.999867 0.999783 0.773441 0.003436
C68   C     C_R   0.000132 0.999784 0.226549 0.003492
C69   C     C_R   0.530026 0.474006 0.826827 0.066214
C70   C     C_R   0.469962 0.474028 0.173158 0.066270
C71   C     C_R   0.029953 0.973911 0.826748 0.066033
C72   C     C_R   0.969935 0.974063 0.173128 0.066477
C73   C     C_R   0.560259 0.449226 0.833393 0.157627
C74   C     C_R   0.439718 0.449266 0.166580 0.157562
C75   C     C_R   0.060113 0.949032 0.833239 0.158007
C76   C     C_R   0.939663 0.949338 0.166521 0.157151
C77   C     C_R   0.560343 0.450233 0.787228 -0.219918
C78   C     C_R   0.439636 0.450272 0.212746 -0.220009
C79   C     C_R   0.060201 0.950043 0.787080 -0.219925
C80   C     C_R   0.939583 0.950342 0.212689 -0.219932
C81   C     C_R   0.470829 0.525967 0.813843 -0.203180
C82   C     C_R   0.529180 0.525953 0.186166 -0.203172
C83   C     C_R   0.970905 0.026060 0.813914 -0.203244
C84   C     C_R   0.029208 0.025920 0.186192 -0.203074
C85   C     C_R   0.499984 0.499980 0.865586 -0.075574
C86   C     C_R   0.500014 0.499983 0.134412 -0.075550
C87   C     C_R   0.999986 0.999980 0.865585 -0.075746
C88   C     C_R   0.000016 0.999984 0.134412 -0.075442
C89   C     C_3   0.275182 0.510623 0.727523 -0.475380
C90   C     C_3   0.724815 0.510235 0.272557 -0.475389
C91   C     C_3   0.775184 0.013147 0.728155 -0.475220
C92   C     C_3   0.224813 0.008024 0.272968 -0.475533
C93   C     C_R   0.529078 0.473888 0.872127 -0.197577
C94   C     C_R   0.470910 0.473909 0.127859 -0.197643
C95   C     C_R   0.029006 0.973796 0.872049 -0.197188
C96   C     C_R   0.970885 0.973943 0.127831 -0.198014
C97   C     C_R   0.000000 0.586642 0.500001 0.883450
C98   C     C_R   0.500004 0.086642 0.500005 0.883548
C99   C     C_R   0.081028 0.499841 0.581008 0.893078
C100  C     C_R   0.918972 0.499841 0.418992 0.892995
C101  C     C_R   0.581028 0.999840 0.581008 0.893715
C102  C     C_R   0.418971 0.999842 0.418992 0.892465
C103  C     C_R   1.000000 0.413184 0.499999 0.870383
C104  C     C_R   0.500000 0.913184 0.500000 0.870399
C105  C     C_R   0.500002 0.413088 0.500000 0.890730
C106  C     C_R   0.000001 0.913088 0.500001 0.890719
C107  C     C_R   0.499954 0.499922 0.586920 0.889273
C108  C     C_R   0.500046 0.499922 0.413080 0.889252
C109  C     C_R   0.999954 0.999923 0.586918 0.889218
C110  C     C_R   0.000046 0.999921 0.413079 0.889284
C111  C     C_R   0.499999 0.586945 0.499999 0.883708
C112  C     C_R   0.999999 0.086945 0.499999 0.883697
C113  C     C_R   0.475858 0.342876 0.506993 -0.137190
C114  C     C_R   0.524169 0.342873 0.493046 -0.137096
C115  C     C_R   0.975849 0.842877 0.506981 -0.137186
C116  C     C_R   0.024164 0.842872 0.493041 -0.137116
C117  C     C_R   0.500007 0.365384 0.500009 -0.125069
C118  C     C_R   0.000005 0.865384 0.500008 -0.125077
C119  C     C_R   0.523927 0.296556 0.491472 0.000881
C120  C     C_R   0.476119 0.296561 0.508599 0.000862
C121  C     C_R   0.023916 0.796556 0.491456 0.000876
C122  C     C_R   0.976102 0.796561 0.508574 0.000874
C123  C     C_3   0.273707 0.453926 0.787447 0.044869
C124  C     C_3   0.726300 0.454021 0.212198 0.044869
C125  C     C_3   0.773702 0.953287 0.784996 0.044872
C126  C     C_3   0.226297 0.954693 0.210109 0.044880
C127  C     C_R   0.500025 0.273355 0.500038 -0.045017
C128  C     C_R   0.000009 0.773355 0.500015 -0.045033
C129  C     C_R   0.546746 0.272785 0.481562 0.441794
C130  C     C_R   0.453312 0.272795 0.518531 0.442377
C131  C     C_R   0.046732 0.772784 0.481542 0.442022
C132  C     C_R   0.953289 0.772795 0.518494 0.442188
C133  C     C_R   0.045581 0.726443 0.480617 -0.269547
C134  C     C_R   0.954438 0.726454 0.519416 -0.269691
C135  C     C_R   0.545596 0.226444 0.480640 -0.268936
C136  C     C_R   0.454463 0.226454 0.519455 -0.270151
C137  C     C_R   0.022632 0.703565 0.489839 0.052444
C138  C     C_R   0.977383 0.703571 0.510187 0.052485
C139  C     C_R   0.522648 0.203566 0.489862 0.052129
C140  C     C_R   0.477403 0.203571 0.510218 0.052781
C141  C     C_R   0.000008 0.726901 0.500014 0.069756
C142  C     C_R   0.500026 0.226902 0.500041 0.069739
C143  C     C_R   0.022019 0.657384 0.489104 -0.185802
C144  C     C_R   0.977991 0.657389 0.510914 -0.185985
C145  C     C_R   0.522032 0.157384 0.489121 -0.184652
C146  C     C_R   0.478007 0.157390 0.510938 -0.186946
C147  C     C_R   0.000003 0.634546 0.500005 -0.074225
C148  C     C_R   0.500013 0.134546 0.500019 -0.074233
C149  C     C_R   0.530473 0.657577 0.554766 -0.222206
C150  C     C_R   0.469522 0.657580 0.445231 -0.222301
C151  C     C_R   0.030467 0.157577 0.554768 -0.222235
C152  C     C_R   0.969525 0.157580 0.445230 -0.222293
C153  C     C_R   0.499997 0.634784 0.499999 -0.067982
C154  C     C_R   0.999996 0.134784 0.499999 -0.067974
C155  C     C_R   0.469686 0.703736 0.444694 0.086395
C156  C     C_R   0.530310 0.703733 0.555303 0.086323
C157  C     C_R   0.969689 0.203736 0.444693 0.086379
C158  C     C_R   0.030303 0.203733 0.555305 0.086345
C159  C     C_3   0.225053 0.454692 0.737862 -0.504896
C160  C     C_3   0.774953 0.454780 0.261788 -0.504822
C161  C     C_3   0.725049 0.954100 0.735437 -0.505386
C162  C     C_3   0.274951 0.955410 0.259724 -0.504416
C163  C     C_R   0.499999 0.727025 0.499999 0.062267
C164  C     C_R   0.999997 0.227025 0.499999 0.062266
C165  C     C_R   0.440108 0.726771 0.389761 -0.226268
C166  C     C_R   0.559891 0.726765 0.610236 -0.226191
C167  C     C_R   0.940116 0.226771 0.389758 -0.226272
C168  C     C_R   0.059878 0.226765 0.610239 -0.226205
C169  C     C_R   0.940273 0.273002 0.388816 0.155361
C170  C     C_R   0.059723 0.272995 0.611181 0.155374
C171  C     C_R   0.440265 0.773002 0.388819 0.155322
C172  C     C_R   0.559737 0.772995 0.611178 0.155424
C173  C     C_R   0.970210 0.296675 0.443936 0.070732
C174  C     C_R   0.029787 0.296672 0.556061 0.070713
C175  C     C_R   0.470207 0.796676 0.443937 0.070775
C176  C     C_R   0.529795 0.796673 0.556060 0.070678
C177  C     C_R   0.999998 0.273475 0.499999 0.001929
C178  C     C_R   0.500000 0.773476 0.499998 0.001929
C179  C     C_R   0.971223 0.342907 0.444741 -0.203382
C180  C     C_R   0.028776 0.342904 0.555256 -0.203374
C181  C     C_R   0.471220 0.842908 0.444743 -0.203361
C182  C     C_R   0.528783 0.842904 0.555255 -0.203400
C183  C     C_R   1.000000 0.365474 0.499999 -0.072946
C184  C     C_R   0.500001 0.865474 0.499999 -0.072940
C185  C     C_1   0.125512 0.500215 0.625402 -0.102007
C186  C     C_1   0.874488 0.500208 0.374599 -0.101986
C187  C     C_1   0.625511 0.000235 0.625409 -0.102003
C188  C     C_1   0.374487 0.000189 0.374605 -0.102002
C189  C     C_3   0.291192 0.500130 0.791020 0.172194
C190  C     C_3   0.708808 0.500114 0.208981 0.172170
C191  C     C_3   0.791191 0.000159 0.791030 0.172193
C192  C     C_3   0.208807 0.000088 0.208982 0.172150
C193  C     C_3   0.226382 0.511717 0.677740 0.344141
C194  C     C_3   0.773615 0.511320 0.322348 0.344151
C195  C     C_3   0.726383 0.014297 0.678430 0.344265
C196  C     C_3   0.273612 0.009054 0.322808 0.344084
C197  C     C_3   0.208813 0.501274 0.707646 0.130243
C198  C     C_3   0.791187 0.501252 0.292364 0.130211
C199  C     C_3   0.708812 0.001357 0.707711 0.130315
C200  C     C_3   0.291185 0.001175 0.292414 0.130163
H1    H     H_    0.215464 0.485023 0.643971 0.090130
H2    H     H_    0.784536 0.484447 0.355909 0.090150
H3    H     H_    0.715463 0.988853 0.643274 0.090205
H4    H     H_    0.284529 0.981170 0.355111 0.090075
H5    H     H_    0.288751 0.542755 0.729772 0.248031
H6    H     H_    0.711242 0.542277 0.270555 0.248028
H7    H     H_    0.788757 0.045830 0.732123 0.247998
H8    H     H_    0.211242 0.039506 0.272421 0.248034
H9    H     H_    0.215361 0.525815 0.782405 0.185298
H10   H     H_    0.784638 0.526326 0.217800 0.185279
H11   H     H_    0.715361 0.022246 0.783677 0.185497
H12   H     H_    0.284644 0.029340 0.219078 0.185088
H13   H     H_    0.554080 0.457196 0.693472 0.162129
H14   H     H_    0.445903 0.457228 0.306507 0.162085
H15   H     H_    0.053962 0.957033 0.693346 0.162054
H16   H     H_    0.945860 0.957286 0.306460 0.162112
H17   H     H_    0.445647 0.542314 0.585019 0.159617
H18   H     H_    0.554369 0.542285 0.414997 0.159648
H19   H     H_    0.945764 0.042482 0.585129 0.159501
H20   H     H_    0.054410 0.042223 0.415036 0.159694
H21   H     H_    0.415843 0.568048 0.624683 0.179530
H22   H     H_    0.584182 0.568002 0.375344 0.179539
H23   H     H_    0.916039 0.068320 0.624875 0.179486
H24   H     H_    0.084251 0.067906 0.375412 0.179564
H25   H     H_    0.448710 0.545471 0.810762 0.177853
H26   H     H_    0.551306 0.545445 0.189255 0.177836
H27   H     H_    0.948840 0.045634 0.810886 0.177986
H28   H     H_    0.051353 0.045387 0.189301 0.177783
H29   H     H_    0.551232 0.454445 0.913347 0.182030
H30   H     H_    0.448749 0.454478 0.086630 0.182017
H31   H     H_    0.051107 0.954284 0.913214 0.182176
H32   H     H_    0.948705 0.954537 0.086583 0.181895
H33   H     H_    0.286611 0.484874 0.715317 0.158683
H34   H     H_    0.713388 0.484301 0.284561 0.158691
H35   H     H_    0.786611 0.988679 0.714621 0.158807
H36   H     H_    0.213383 0.981048 0.283760 0.158597
H37   H     H_    0.583784 0.431331 0.792694 0.180160
H38   H     H_    0.416187 0.431383 0.207272 0.180099
H39   H     H_    0.083587 0.931064 0.792489 0.180163
H40   H     H_    0.916114 0.931482 0.207194 0.180107
H41   H     H_    0.457790 0.362221 0.512354 0.212118
H42   H     H_    0.542230 0.362215 0.487674 0.212086
H43   H     H_    0.957782 0.862223 0.512343 0.212104
H44   H     H_    0.042229 0.862214 0.487676 0.212107
H45   H     H_    0.062777 0.707924 0.472899 0.207792
H46   H     H_    0.937242 0.707938 0.527134 0.207737
H47   H     H_    0.562793 0.207924 0.472923 0.208127
H48   H     H_    0.437271 0.207938 0.527180 0.207430
H49   H     H_    0.039270 0.639127 0.481206 0.172713
H50   H     H_    0.960739 0.639136 0.518809 0.172638
H51   H     H_    0.539280 0.139127 0.481220 0.173101
H52   H     H_    0.460756 0.139137 0.518835 0.172238
H53   H     H_    0.553713 0.639307 0.596992 0.158259
H54   H     H_    0.446281 0.639312 0.403005 0.158215
H55   H     H_    0.053704 0.139306 0.596996 0.158253
H56   H     H_    0.946288 0.139312 0.403002 0.158205
H57   H     H_    0.416898 0.708790 0.347329 0.178685
H58   H     H_    0.583101 0.708781 0.652667 0.178742
H59   H     H_    0.916909 0.208789 0.347325 0.178688
H60   H     H_    0.083084 0.208780 0.652672 0.178733
H61   H     H_    0.949341 0.361949 0.403053 0.178233
H62   H     H_    0.050659 0.361944 0.596944 0.178221
H63   H     H_    0.449333 0.861950 0.403056 0.178258
H64   H     H_    0.550670 0.861944 0.596942 0.178175
H65   H     H_    0.284889 0.428515 0.774507 0.145473
H66   H     H_    0.715122 0.428423 0.224943 0.145518
H67   H     H_    0.784892 0.929180 0.770762 0.145251
H68   H     H_    0.215125 0.928032 0.221673 0.145736
H69   H     H_    0.213538 0.429090 0.702596 0.174457
H70   H     H_    0.786474 0.428994 0.296857 0.174508
H71   H     H_    0.713541 0.929794 0.698848 0.174245
H72   H     H_    0.286478 0.928571 0.293589 0.174725
H73   H     H_    0.212191 0.445755 0.758167 0.233054
H74   H     H_    0.787818 0.446105 0.241416 0.233054
H75   H     H_    0.712176 0.943415 0.755206 0.233083
H76   H     H_    0.287812 0.948271 0.238981 0.233004
H77   H     H_    0.284866 0.569793 0.805103 0.214633
H78   H     H_    0.715126 0.569936 0.195439 0.214650
H79   H     H_    0.784863 0.068649 0.808758 0.214508
H80   H     H_    0.215128 0.070745 0.198648 0.214773
H81   H     H_    0.286954 0.531758 0.852718 0.202169
H82   H     H_    0.713045 0.532257 0.147533 0.202155
H83   H     H_    0.786954 0.028267 0.854306 0.202345
H84   H     H_    0.213051 0.035191 0.149075 0.202033
H85   H     H_    0.212823 0.568946 0.739487 0.237375
H86   H     H_    0.787169 0.569140 0.261051 0.237375
H87   H     H_    0.712819 0.067459 0.743100 0.237389
H88   H     H_    0.287171 0.070244 0.264244 0.237375
O1    O     O_R   0.499980 0.537310 0.933900 -0.613355
O2    O     O_R   0.500020 0.537310 0.066100 -0.613389
O3    O     O_R   0.999980 0.037310 0.933900 -0.613279
O4    O     O_R   0.000020 0.037310 0.066100 -0.613474
O5    O     O_R   0.465290 0.499990 0.531320 -0.615654
O6    O     O_R   0.534710 0.499990 0.468680 -0.615618
O7    O     O_R   0.965290 0.999990 0.531320 -0.615646
O8    O     O_R   0.034710 0.999990 0.468680 -0.615607
O9    O     O_R   0.534650 0.499980 0.600740 -0.623016
O10   O     O_R   0.465350 0.499980 0.399260 -0.623083
O11   O     O_R   0.034650 0.999980 0.600740 -0.622975
O12   O     O_R   0.965350 0.999980 0.399260 -0.623108
O13   O     O_R   0.465330 0.566050 0.465280 -0.622130
O14   O     O_R   0.534670 0.566050 0.534720 -0.622087
O15   O     O_R   0.965330 0.066050 0.465280 -0.622144
O16   O     O_R   0.034670 0.066050 0.534720 -0.622077
O17   O     O_R   0.499970 0.462690 0.933870 -0.611304
O18   O     O_R   0.500030 0.462690 0.066130 -0.611273
O19   O     O_R   0.999970 0.962690 0.933870 -0.611426
O20   O     O_R   0.000030 0.962690 0.066130 -0.611155
O21   O     O_R   0.438570 0.537300 0.938570 -0.611999
O22   O     O_R   0.561430 0.537300 0.061430 -0.611988
O23   O     O_R   0.938570 0.037300 0.938570 -0.612070
O24   O     O_R   0.061430 0.037300 0.061430 -0.611904
O25   O     O_R   0.438560 0.462690 0.938540 -0.604934
O26   O     O_R   0.561440 0.462690 0.061460 -0.605006
O27   O     O_R   0.938560 0.962690 0.938540 -0.604469
O28   O     O_R   0.061440 0.962690 0.061460 -0.605399
O29   O     O_R   0.999990 0.565940 0.462670 -0.614421
O30   O     O_R   0.000010 0.565940 0.537330 -0.614404
O31   O     O_R   0.499990 0.065940 0.462670 -0.614635
O32   O     O_R   0.500010 0.065940 0.537330 -0.614219
O33   O     O_R   0.061410 0.499850 0.524090 -0.593489
O34   O     O_R   0.938590 0.499850 0.475910 -0.593291
O35   O     O_R   0.561410 0.999850 0.524090 -0.594757
O36   O     O_R   0.438590 0.999850 0.475910 -0.592239
O37   O     O_R   0.061430 0.499870 0.598720 -0.618310
O38   O     O_R   0.938570 0.499870 0.401280 -0.618354
O39   O     O_R   0.561430 0.999870 0.598720 -0.617959
O40   O     O_R   0.438570 0.999870 0.401280 -0.618631
O41   O     O_R   0.999980 0.433770 0.462660 -0.614341
O42   O     O_R   0.000020 0.433770 0.537340 -0.614297
O43   O     O_R   0.499980 0.933770 0.462660 -0.614484
O44   O     O_R   0.500020 0.933770 0.537340 -0.614158
O45   O     O_R   0.465300 0.433880 0.465270 -0.609450
O46   O     O_R   0.534700 0.433880 0.534730 -0.609357
O47   O     O_R   0.965300 0.933880 0.465270 -0.609433
O48   O     O_R   0.034700 0.933880 0.534730 -0.609386
Zn1   Zn    Zn3+2 0.500000 0.549820 0.000000 1.021071
Zn2   Zn    Zn3+2 0.000000 0.049820 0.000000 1.021116
Zn3   Zn    Zn3+2 0.500000 0.450170 0.000000 1.033217
Zn4   Zn    Zn3+2 0.000000 0.950170 0.000000 1.033308
Zn5   Zn    Zn3+2 0.999980 0.499850 0.450150 1.031881
Zn6   Zn    Zn3+2 0.000020 0.499850 0.549850 1.032081
Zn7   Zn    Zn3+2 0.499980 0.999850 0.450150 1.030611
Zn8   Zn    Zn3+2 0.500020 0.999850 0.549850 1.033185
Zn9   Zn    Zn3+2 0.453680 0.499970 0.453630 1.010917
Zn10  Zn    Zn3+2 0.546320 0.499970 0.546370 1.011176
Zn11  Zn    Zn3+2 0.953680 0.999970 0.453630 1.010868
Zn12  Zn    Zn3+2 0.046320 0.999970 0.546370 1.011199
S1    S     S_3+6 0.208190 0.563358 0.635627 0.026044
O49   O     O_2   0.221945 0.564968 0.601648 -0.249284
O50   O     O_2   0.161145 0.566271 0.590302 -0.289329
O51   O     O_3   0.229085 0.606963 0.683548 -0.572174
H89   H     H_    0.218243 0.633455 0.656928 0.402806
S2    S     S_3+6 0.791797 0.562771 0.364858 0.026040
O52   O     O_2   0.778042 0.564006 0.398849 -0.249369
O53   O     O_2   0.838842 0.565699 0.410205 -0.289147
O54   O     O_3   0.770894 0.606584 0.317274 -0.572189
H90   H     H_    0.781719 0.632953 0.344095 0.402795
S3    S     S_3+6 0.708197 0.067135 0.639092 0.025928
O55   O     O_2   0.721957 0.071275 0.605274 -0.248822
O56   O     O_2   0.661151 0.069954 0.593913 -0.290442
O57   O     O_3   0.729090 0.109244 0.689290 -0.572459
H91   H     H_    0.718225 0.136536 0.664095 0.402608
S4    S     S_3+6 0.291795 0.059334 0.367650 0.026096
O58   O     O_2   0.278040 0.058380 0.401648 -0.249882
O59   O     O_2   0.338839 0.062337 0.413130 -0.288159
O60   O     O_3   0.270891 0.104323 0.322101 -0.571934
H92   H     H_    0.281673 0.129928 0.350107 0.402948
I1    I     I_    0.392342 0.589761 0.696259 -0.292650
I2    I     I_    0.607692 0.589702 0.303779 -0.292790
I3    I     I_    0.892608 0.090118 0.696521 -0.293470
I4    I     I_    0.107784 0.089579 0.303872 -0.292273
I5    I     I_    0.607416 0.409862 0.911453 -0.267698
I6    I     I_    0.392543 0.409933 0.088500 -0.268127
I7    I     I_    0.107147 0.909503 0.911171 -0.266705
I8    I     I_    0.892440 0.910073 0.088387 -0.269565
S5    S     S_3+6 0.576501 0.299593 0.469290 0.033366
O61   O     O_2   0.610900 0.326265 0.525060 -0.289006
O62   O     O_2   0.595610 0.266239 0.457213 -0.252972
O63   O     O_3   0.544937 0.333773 0.408771 -0.562137
H93   H     H_    0.564000 0.350860 0.408255 0.392892
S6    S     S_3+6 0.423570 0.299610 0.530827 0.032766
O64   O     O_2   0.389148 0.326263 0.475046 -0.289566
O65   O     O_2   0.404492 0.266262 0.542959 -0.254261
O66   O     O_3   0.455137 0.333811 0.591317 -0.561840
H94   H     H_    0.436077 0.350905 0.591837 0.392855
S7    S     S_3+6 0.076488 0.799592 0.469271 0.033152
O67   O     O_2   0.110892 0.826257 0.525047 -0.289189
O68   O     O_2   0.095592 0.766239 0.457183 -0.253531
O69   O     O_3   0.044926 0.833779 0.408760 -0.561927
H95   H     H_    0.063990 0.850866 0.408247 0.392941
S8    S     S_3+6 0.923539 0.799610 0.530776 0.032903
O70   O     O_2   0.889129 0.826274 0.474999 -0.289466
O71   O     O_2   0.904445 0.766262 0.542880 -0.253786
O72   O     O_3   0.955104 0.833800 0.591279 -0.562028
H96   H     H_    0.936042 0.850890 0.591798 0.392815
I9    I     I_    0.893715 0.303855 0.302070 -0.320474
I10   I     I_    0.106282 0.303843 0.697927 -0.320266
I11   I     I_    0.393703 0.803855 0.302074 -0.321145
I12   I     I_    0.606307 0.803844 0.697920 -0.319600
I13   I     I_    0.296359 0.431742 0.874090 -0.299583
I14   I     I_    0.703652 0.432335 0.125387 -0.299703
I15   I     I_    0.796334 0.927772 0.870374 -0.298501
I16   I     I_    0.203642 0.935944 0.122375 -0.300847

loop_
_geom_bond_atom_site_label_1
_geom_bond_atom_site_label_2
_ccdc_geom_bond_type
C28   H16   S    
C101  O39   A    
C133  C137  A    
O54   H90   S    
C55   C59   A    
C136  C140  A    
S7    O69   S    
O46   Zn10  S    
C135  C139  A    
C15   C187  T    
C103  C183  S    
C69   C93   A    
C26   C50   A    
C139  C142  A    
C150  H54   S    
C195  H3    S    
C173  C179  A    
C53   H21   S    
C162  C200  S    
C193  H1    S    
O21   Zn1   S    
C149  C153  A    
C80   H40   S    
C64   C84   A    
S5    O63   S    
C137  C141  A    
C196  S4    S    
C89   H5    S    
C109  O11   A    
C110  O12   A    
C70   C74   A    
C196  H4    S    
O13   Zn9   S    
C12   H80   S    
C21   C45   S    
O9    Zn10  S    
C105  O46   A    
C78   H38   S    
C106  C118  S    
C106  O48   A    
C194  S2    S    
C167  H59   S    
O5    Zn9   S    
C9    C189  S    
C41   C49   A    
C25   C29   A    
C12   C192  S    
C13   C185  T    
C116  C121  A    
C27   C31   A    
C159  H73   S    
C151  C158  A    
C28   C32   A    
C121  C128  A    
S8    O71   D    
C16   C188  T    
C152  H56   S    
C62   C66   A    
C111  O13   A    
C91   C191  S    
C92   H36   S    
C17   C21   T    
C102  O36   A    
C176  C182  A    
C20   C192  S    
C113  C120  A    
C91   C195  S    
C156  C166  A    
C68   C72   A    
C115  C118  A    
C89   C193  S    
O51   H89   S    
C163  C178  A    
C97   O29   A    
C1    O1    A    
C125  C191  S    
O8    Zn12  S    
O23   Zn2   S    
C126  C192  S    
C174  C177  A    
O12   Zn11  S    
C12   H84   S    
C143  C147  A    
S7    O67   D    
C99   C185  S    
C145  C148  A    
O42   Zn6   S    
C58   I2    S    
C170  C174  A    
C152  C157  A    
C18   C190  S    
C143  H49   S    
O31   Zn7   S    
C170  I10   S    
C84   C88   A    
C95   H31   S    
C92   C196  S    
C138  C141  A    
C35   H19   S    
C39   C43   A    
C57   C61   A    
C107  O5    A    
C33   H17   S    
C59   C63   A    
C126  I16   S    
C60   C64   A    
C10   H82   S    
C25   H13   S    
C179  H61   S    
C66   C70   A    
C1    O17   A    
C155  C165  A    
C124  C160  S    
C112  O16   A    
C165  H57   S    
C8    H88   S    
C61   C65   A    
C71   C95   A    
C132  C134  A    
S3    O55   D    
C73   C77   A    
C75   C79   A    
O19   Zn4   S    
C134  H46   S    
C105  O45   A    
C19   C191  S    
O63   H93   S    
C159  H69   S    
C116  H44   S    
C166  C172  A    
S1    O49   D    
C29   C33   A    
C46   O22   A    
C120  C127  A    
C167  C169  A    
C82   H26   S    
C13   C197  S    
C3    C87   S    
C64   C68   A    
O57   H91   S    
C149  H53   S    
C91   H35   S    
C15   C199  S    
S4    O58   D    
C98   O32   A    
C89   H33   S    
C161  H75   S    
C129  C135  A    
C85   C93   A    
C101  O35   A    
O4    Zn2   S    
C87   C95   A    
C103  O41   A    
O44   Zn8   S    
C6    C198  S    
C114  C119  A    
C16   C200  S    
C175  C181  A    
C37   C53   A    
C44   C52   A    
C176  C178  A    
C195  S3    S    
C112  C154  S    
C125  H67   S    
C97   C147  S    
C126  H68   S    
C144  C147  A    
O7    Zn11  S    
C27   C51   A    
C195  C199  S    
C23   C47   S    
C30   C34   A    
C24   C48   S    
C135  H47   S    
C59   I3    S    
C5    C197  S    
C109  O7    A    
C155  C163  A    
C110  O8    A    
C72   C96   A    
O48   Zn12  S    
C5    C9    S    
C8    C12   S    
C193  S1    S    
C75   I7    S    
C169  I9    S    
C111  C153  S    
C157  C164  A    
C45   O25   A    
C4    O20   A    
C113  C117  A    
C114  H42   S    
C42   C50   A    
C26   C30   A    
S1    O51   S    
C150  C155  A    
O16   Zn12  S    
O36   Zn8   S    
C8    C200  S    
C160  H74   S    
C104  O43   A    
C174  C180  A    
C94   H30   S    
C90   C190  S    
C106  O47   A    
C18   C22   T    
C145  H51   S    
C76   C80   A    
S7    O68   D    
C7    H11   S    
C4    C88   S    
C5    H9    S    
O6    Zn10  S    
O35   Zn7   S    
S4    O60   S    
O10   Zn9   S    
C2    O2    A    
C138  C144  A    
O28   Zn4   S    
C194  C198  S    
C131  S7    S    
C119  C129  A    
C49   C77   A    
C48   O28   A    
S3    O57   S    
C5    H85   S    
C37   C41   A    
C51   C79   A    
S5    O62   D    
C114  C117  A    
C73   I5    S    
C6    C10   S    
O39   Zn8   S    
C40   C44   A    
C43   C67   A    
S2    O52   D    
C169  C173  A    
C29   C107  S    
C101  C187  S    
O1    Zn1   S    
O22   Zn1   S    
C81   C85   A    
O37   Zn6   S    
C172  C176  A    
C133  H45   S    
C119  C127  A    
C58   C62   A    
C83   C87   A    
C88   C96   A    
C165  C171  A    
S6    O64   D    
C100  O34   A    
C11   H83   S    
C105  C117  S    
C157  C167  A    
C124  C190  S    
C158  C168  A    
O30   Zn6   S    
O45   Zn9   S    
C32   C110  S    
C166  H58   S    
C70   C94   A    
C140  C142  A    
C129  S5    S    
C194  H2    S    
C136  H48   S    
C47   O23   A    
O20   Zn4   S    
C90   H6    S    
C39   C55   A    
C156  C163  A    
C40   C56   A    
C150  C153  A    
C69   C73   A    
O2    Zn1   S    
C79   H39   S    
C128  C141  A    
O47   Zn11  S    
C72   C76   A    
C168  C170  A    
C62   C82   A    
C77   H37   S    
C9    H77   S    
C50   C78   A    
C11   H79   S    
O18   Zn3   S    
C175  C178  A    
C146  C148  A    
O27   Zn4   S    
C107  O9    A    
C140  C146  A    
C53   C57   A    
C160  C198  S    
S6    O66   S    
C82   C86   A    
C33   C37   A    
C56   C60   A    
C146  H52   S    
C48   O24   A    
C35   C39   A    
C4    O4    A    
C99   O33   A    
C91   H7    S    
C38   C54   A    
C31   C109  S    
O41   Zn5   S    
C76   I8    S    
O29   Zn5   S    
C6    H10   S    
C22   C46   S    
C31   C35   A    
O33   Zn5   S    
C32   C36   A    
O40   Zn7   S    
C55   H23   S    
O66   H94   S    
C181  C184  A    
C144  H50   S    
C108  O6    A    
C2    O18   A    
C30   C108  S    
C160  H70   S    
C125  C161  S    
C123  I13   S    
S8    O70   D    
O34   Zn6   S    
O72   H96   S    
C34   H18   S    
O24   Zn2   S    
O69   H95   S    
C108  O10   A    
C111  O14   A    
C26   H14   S    
S2    O53   D    
C168  H60   S    
C45   O21   A    
C43   C51   A    
C98   C148  S    
C65   C69   A    
C130  S6    S    
C97   O30   A    
S4    O59   D    
C67   C71   A    
C122  C128  A    
C25   C49   A    
C54   H22   S    
C159  C197  S    
C74   C78   A    
C63   C83   A    
C89   C189  S    
C61   C81   A    
C52   C80   A    
C92   C192  S    
C19   C23   T    
O60   H92   S    
C3    O3    A    
C196  C200  S    
C36   H20   S    
C83   H27   S    
C161  H71   S    
C7    C11   S    
C14   C198  S    
C162  H72   S    
C10   C190  S    
C81   H25   S    
C27   H15   S    
C120  C130  A    
C6    H86   S    
C149  C156  A    
C38   C42   A    
C14   C186  T    
C60   I4    S    
C112  O15   A    
C90   H34   S    
C151  C154  A    
C86   C94   A    
C20   C24   T    
C90   C194  S    
C102  O40   A    
C123  C189  S    
C11   C191  S    
C180  C183  A    
C158  C164  A    
C137  C143  A    
S1    O50   D    
C115  C122  A    
C162  H76   S    
C121  C131  A    
S8    O72   S    
C104  O44   A    
C122  C132  A    
O3    Zn2   S    
C179  C183  A    
C1    C85   S    
C63   C67   A    
C161  C199  S    
C47   O27   A    
C36   C40   A    
C7    H87   S    
C56   H24   S    
C41   C65   A    
C17   C189  S    
C171  C175  A    
C102  C188  S    
C100  O38   A    
C98   O31   A    
C127  C142  A    
C100  C186  S    
C92   H8    S    
C180  H62   S    
C123  H65   S    
C181  H63   S    
C173  C177  A    
C182  H64   S    
O25   Zn3   S    
C103  O42   A    
C9    H81   S    
S3    O56   D    
C10   H78   S    
S5    O61   D    
C116  C118  A    
C115  H43   S    
O43   Zn7   S    
C152  C154  A    
C113  H41   S    
C44   C68   A    
C84   H28   S    
C151  H55   S    
C54   C58   A    
C93   H29   S    
C132  S8    S    
C139  C145  A    
S6    O65   D    
C182  C184  A    
C104  C184  S    
C34   C38   A    
O15   Zn11  S    
C130  C136  A    
C131  C133  A    
C134  C138  A    
O14   Zn10  S    
S2    O54   S    
C171  I11   S    
O11   Zn12  S    
C172  I12   S    
O17   Zn3   S    
C8    H12   S    
O26   Zn3   S    
C46   O26   A    
C71   C75   A    
C28   C52   A    
C99   O37   A    
C193  C197  S    
C124  H66   S    
C2    C86   S    
C96   H32   S    
C7    C199  S    
C74   I6    S    
C123  C159  S    
C125  I15   S    
C42   C66   A    
C3    O19   A    
C57   I1    S    
C126  C162  S    
O38   Zn5   S    
C124  I14   S    
O32   Zn8   S    
C164  C177  A    
