data_mof_unit_38167.cif
_audit_creation_date              2012-12-10T17:20:35-0500
_audit_creation_method            fapswitch 2.2
_symmetry_space_group_name_H-M    P1
_symmetry_Int_Tables_number       1
_space_group_crystal_system       triclinic
_cell_length_a                    10.203547
_cell_length_b                    10.855419
_cell_length_c                    13.642894
_cell_angle_alpha                 91.798115
_cell_angle_beta                  74.54877
_cell_angle_gamma                 96.309052
_cell_volume                      1447.6975221

loop_
_atom_site_label
_atom_site_type_symbol
_atom_type_description
_atom_site_fract_x
_atom_site_fract_y
_atom_site_fract_z
_atom_type_partial_charge
C1    C     C_R   0.558437 0.732482 0.492914 0.873136
C2    C     C_2   0.075966 0.497571 0.486496 -0.146073
C3    C     C_1   0.455656 0.526680 0.880960 0.011479
C4    C     C_1   0.544340 0.473317 0.119040 0.011478
C5    C     C_2   0.596768 0.864618 0.480234 -0.178337
C6    C     C_2   0.403232 0.135382 0.519768 -0.178335
C7    C     C_2   0.496049 0.936724 0.516334 -0.206299
C8    C     C_2   0.503949 0.063276 0.483668 -0.206300
C9    C     C_R   0.094496 0.577472 0.644558 0.264035
C10   C     C_R   0.026994 0.481334 0.712463 -0.173830
C11   C     C_R   0.986287 0.504408 0.817032 -0.165625
C12   C     C_R   0.441563 0.267518 0.507086 0.873136
C13   C     C_R   0.013128 0.622981 0.854736 -0.107152
C14   C     C_R   0.083156 0.717988 0.788007 -0.167980
C15   C     C_R   0.125675 0.694542 0.683574 -0.136119
C16   C     C_R   0.905503 0.422521 0.355443 0.264035
C17   C     C_R   0.874320 0.305450 0.316432 -0.136114
C18   C     C_R   0.916841 0.281997 0.212000 -0.167982
C19   C     C_R   0.986873 0.376999 0.145268 -0.107152
C20   C     C_R   0.013718 0.495574 0.182966 -0.165618
C21   C     C_R   0.973010 0.518655 0.287535 -0.173840
C22   C     C_3   0.374763 0.626014 0.052353 -0.952372
C23   C     C_R   0.476910 0.504704 0.688078 0.896105
C24   C     C_3   0.625232 0.373982 0.947647 -0.952378
C25   C     C_R   0.262682 0.089122 0.579897 0.137113
C26   C     C_R   0.205163 0.142296 0.674894 -0.122805
C27   C     C_R   0.071560 0.102232 0.729804 -0.166855
C28   C     C_R   0.994213 0.008989 0.690483 -0.120502
C29   C     C_R   0.050198 0.956015 0.596053 -0.159481
C30   C     C_R   0.183523 0.996289 0.540493 -0.182897
C31   C     C_R   0.737319 0.910880 0.420108 0.137113
C32   C     C_R   0.816475 0.003711 0.459516 -0.182897
C33   C     C_R   0.949802 0.043987 0.403960 -0.159480
C34   C     C_R   0.523090 0.495297 0.311922 0.896107
C35   C     C_R   0.005791 0.991014 0.309530 -0.120499
C36   C     C_R   0.928447 0.897773 0.270205 -0.166856
C37   C     C_R   0.794843 0.857708 0.325111 -0.122806
C38   C     C_1   0.537558 0.483499 0.207070 -0.208185
C39   C     C_1   0.462441 0.516500 0.792930 -0.208183
C40   C     C_2   0.541728 0.465595 0.015635 0.202627
C41   C     C_2   0.458263 0.534398 0.984366 0.202624
C42   C     C_2   0.924034 0.502431 0.513503 -0.146068
H1    H     H_    0.599301 0.102305 0.432661 0.180806
H2    H     H_    0.814523 0.233418 0.366970 0.141837
H3    H     H_    0.893192 0.190826 0.182694 0.142107
H4    H     H_    0.018152 0.359349 0.064271 0.126397
H5    H     H_    0.064008 0.570069 0.131035 0.135315
H6    H     H_    0.991026 0.611725 0.315546 0.139780
H7    H     H_    0.443979 0.703140 0.072388 0.243338
H8    H     H_    0.305669 0.665445 0.013775 0.240084
H9    H     H_    0.310964 0.579712 0.123117 0.249163
H10   H     H_    0.694308 0.334535 0.986231 0.240088
H11   H     H_    0.556020 0.296867 0.927594 0.243338
H12   H     H_    0.400697 0.897694 0.567339 0.180808
H13   H     H_    0.689050 0.420293 0.876893 0.249164
H14   H     H_    0.263799 0.214639 0.706501 0.120876
H15   H     H_    0.028006 0.143562 0.802850 0.126373
H16   H     H_    0.890964 0.977698 0.733173 0.131225
H17   H     H_    0.990382 0.883312 0.565926 0.154378
H18   H     H_    0.224887 0.955348 0.466814 0.148858
H19   H     H_    0.775107 0.044652 0.533195 0.148858
H20   H     H_    0.009615 0.116689 0.434090 0.154378
H21   H     H_    0.109041 0.022306 0.266843 0.131225
H22   H     H_    0.972004 0.856444 0.197160 0.126374
H23   H     H_    0.125612 0.449961 0.417834 0.169172
H24   H     H_    0.736209 0.785365 0.293502 0.120876
H25   H     H_    0.874389 0.550042 0.582164 0.169170
H26   H     H_    0.008981 0.388264 0.684448 0.139781
H27   H     H_    0.936002 0.429908 0.868961 0.135313
H28   H     H_    0.981850 0.640625 0.935733 0.126398
H29   H     H_    0.106801 0.809158 0.817317 0.142105
H30   H     H_    0.185469 0.766578 0.633038 0.141836
N1    N     N_2   0.847200 0.448220 0.460120 -0.139739
N2    N     N_2   0.152800 0.551780 0.539880 -0.139739
O1    O     O_R   0.430150 0.692610 0.508030 -0.618899
O2    O     O_R   0.569850 0.307390 0.491970 -0.618900
O3    O     O_R   0.653100 0.659360 0.482430 -0.609329
O4    O     O_R   0.346900 0.340640 0.517570 -0.609330
O5    O     O_R   0.372470 0.518990 0.654990 -0.600508
O6    O     O_R   0.627530 0.481010 0.345010 -0.600508
O7    O     O_R   0.595430 0.485740 0.629390 -0.611004
O8    O     O_R   0.404570 0.514260 0.370610 -0.611005
Zn1   Zn    Zn3+2 0.351130 0.522200 0.517090 0.939788
Zn2   Zn    Zn3+2 0.648870 0.477800 0.482910 0.939789

loop_
_geom_bond_atom_site_label_1
_geom_bond_atom_site_label_2
_ccdc_geom_bond_type
C24   H10   S    
C16   C21   A    
C1    O3    A    
C14   H29   S    
C35   C36   A    
C8    H1    S    
N2    Zn1   S    
O6    Zn2   S    
C2    H23   S    
O2    Zn2   S    
C19   H4    S    
C7    C8    S    
C24   H13   S    
C15   H30   S    
C26   C27   A    
C1    C5    S    
C28   C29   A    
C32   H19   S    
C6    C12   S    
C22   C41   S    
C13   H28   S    
C18   C19   A    
C33   C35   A    
O4    Zn1   S    
C3    C41   S    
C19   C20   A    
C16   C17   A    
C30   H18   S    
C9    C10   A    
N1    Zn2   S    
C2    N2    D    
C22   H8    S    
C21   H6    S    
C34   O6    A    
C3    C39   T    
C13   C14   A    
C16   N1    S    
C1    O1    A    
C29   H17   S    
C27   H15   S    
C5    C7    D    
C33   H20   S    
C6    C8    D    
O3    Zn2   S    
C25   C26   A    
C31   C37   A    
C12   O4    A    
C4    C40   S    
C29   C30   A    
C31   C32   A    
C37   H24   S    
C17   C18   A    
C22   H7    S    
C40   C41   D    
C4    C38   T    
C10   H26   S    
C12   O2    A    
C42   H25   S    
C9    N2    S    
C18   H3    S    
O7    Zn2   S    
C25   C30   A    
C36   C37   A    
C42   N1    D    
C23   O7    A    
C34   C38   S    
C26   H14   S    
C11   H27   S    
C28   H16   S    
C32   C33   A    
C24   H11   S    
C17   H2    S    
O5    Zn1   S    
C11   C13   A    
O1    Zn1   S    
C2    C42   S    
C23   C39   S    
C24   C40   S    
C9    C15   A    
C20   H5    S    
C10   C11   A    
C6    C25   S    
C20   C21   A    
O8    Zn1   S    
C27   C28   A    
C14   C15   A    
C35   H21   S    
C34   O8    A    
C7    H12   S    
C23   O5    A    
C36   H22   S    
C22   H9    S    
C5    C31   S    
