data_mof_unit_53941.cif
_audit_creation_date              2012-12-11T14:46:14-0500
_audit_creation_method            fapswitch 2.2
_symmetry_space_group_name_H-M    P1
_symmetry_Int_Tables_number       1
_space_group_crystal_system       triclinic
_cell_length_a                    10.923959
_cell_length_b                    10.930956
_cell_length_c                    18.82535
_cell_angle_alpha                 89.892271
_cell_angle_beta                  90.175156
_cell_angle_gamma                 119.838773
_cell_volume                      1949.90345985

loop_
_atom_site_label
_atom_site_type_symbol
_atom_type_description
_atom_site_fract_x
_atom_site_fract_y
_atom_site_fract_z
_atom_type_partial_charge
C1    C     C_R   0.864925 0.637252 0.603622 0.547499
C2    C     C_R   0.961598 0.170655 0.711370 0.010732
C3    C     C_R   0.961692 0.182821 0.786498 -0.003988
C4    C     C_R   0.270432 0.632656 0.603738 0.547262
C5    C     C_R   0.716082 0.115819 0.707555 0.012308
C6    C     C_R   0.724264 0.151197 0.779588 0.028131
C7    C     C_R   0.585714 0.063152 0.671437 -0.067689
C8    C     C_R   0.474771 0.072279 0.701999 -0.118330
C9    C     C_R   0.491449 0.130990 0.769085 -0.140441
C10   C     C_R   0.615479 0.172400 0.807184 -0.073345
C11   C     C_R   0.841378 0.149775 0.671394 -0.042888
C12   C     C_R   0.423365 0.625689 0.777499 -0.116943
C13   C     C_R   0.727643 0.534567 0.713666 -0.138575
C14   C     C_R   0.718376 0.545994 0.786780 -0.156688
C15   C     C_R   0.802799 0.676130 0.819550 0.029087
C16   C     C_R   0.860830 0.221371 0.601584 0.534586
C17   C     C_R   0.886818 0.796647 0.778329 -0.128632
C18   C     C_R   0.894291 0.785903 0.705964 -0.145402
C19   C     C_R   0.820529 0.654073 0.673630 0.022408
C20   C     C_R   0.232353 0.537521 0.274927 -0.092628
C21   C     C_R   0.249263 0.553512 0.202223 0.216429
C22   C     C_R   0.334046 0.688838 0.173732 0.032229
C23   C     C_R   0.401826 0.616760 0.705193 -0.130031
C24   C     C_R   0.388422 0.807924 0.218366 -0.183029
C25   C     C_R   0.368577 0.791077 0.291425 -0.169236
C26   C     C_R   0.296230 0.655280 0.319861 -0.011335
C27   C     C_R   0.792687 0.256761 0.275323 -0.129498
C28   C     C_R   0.870002 0.636569 0.395484 0.542550
C29   C     C_R   0.789717 0.237202 0.203005 -0.116835
C30   C     C_R   0.845037 0.157045 0.174788 0.081473
C31   C     C_R   0.911475 0.103722 0.219269 -0.083467
C32   C     C_R   0.917143 0.126215 0.292121 -0.142696
C33   C     C_R   0.853229 0.198606 0.320264 0.022520
C34   C     C_R   0.322972 0.671947 0.675299 0.027047
C35   C     C_R   0.965594 0.713053 0.276675 -0.128987
C36   C     C_R   0.949858 0.714310 0.204152 -0.131023
C37   C     C_R   0.814609 0.650462 0.174653 0.022885
C38   C     C_R   0.695295 0.573501 0.217830 -0.141743
C39   C     C_R   0.711439 0.570330 0.290923 -0.154005
C40   C     C_R   0.266417 0.631293 0.394978 0.542911
C41   C     C_R   0.846445 0.645100 0.320567 0.026685
C42   C     C_R   0.807540 0.105894 0.895141 0.534698
C43   C     C_R   0.399964 0.702473 0.895290 0.547802
C44   C     C_R   0.794051 0.696512 0.894945 0.544013
C45   C     C_R   0.838994 0.162522 0.821339 -0.032700
C46   C     C_R   0.807325 0.105058 0.102922 0.571817
C47   C     C_R   0.393754 0.704457 0.103167 0.581399
C48   C     C_R   0.797710 0.692812 0.104058 0.544417
C49   C     C_R   0.863417 0.232960 0.394764 0.538319
C50   C     C_R   0.270949 0.741773 0.717970 -0.125608
C51   C     C_R   0.295600 0.753619 0.790613 -0.129368
C52   C     C_R   0.368010 0.691472 0.820536 0.040822
C53   C     C_R   0.087382 0.223168 0.824762 -0.087851
C54   C     C_R   0.208489 0.243466 0.790191 -0.123465
C55   C     C_R   0.205020 0.218274 0.717636 -0.130432
C56   C     C_R   0.082486 0.180215 0.678635 -0.081460
Cl1   Cl    Cl    0.167239 0.400905 0.149026 -0.633048
Cr1   Cr    Cr6+3 0.791660 0.390250 0.499930 1.012525
Cr2   Cr    Cr6+3 0.098520 0.708290 0.500540 1.005429
Cr3   Cr    Cr6+3 0.109770 0.401430 0.499480 1.012169
Cr4   Cr    Cr6+3 0.874790 0.925890 0.000070 1.036311
Cr5   Cr    Cr6+3 0.574120 0.948670 0.999300 1.019078
Cr6   Cr    Cr6+3 0.551420 0.625320 0.000920 1.043083
H1    H     H_    0.206131 0.781830 0.695790 0.138978
H2    H     H_    0.454150 0.913304 0.197487 0.149063
H3    H     H_    0.255074 0.806859 0.823350 0.122114
H4    H     H_    0.413062 0.882856 0.325672 0.133422
H5    H     H_    0.748367 0.318663 0.296103 0.146834
H6    H     H_    0.738706 0.279422 0.169460 0.134979
H7    H     H_    0.953373 0.039873 0.198217 0.150624
H8    H     H_    0.967864 0.084848 0.326386 0.122048
H9    H     H_    0.071634 0.765013 0.298353 0.147845
H10   H     H_    0.043106 0.772404 0.171604 0.140546
H11   H     H_    0.589566 0.523626 0.195854 0.157414
H12   H     H_    0.377600 0.037831 0.672756 0.103956
H13   H     H_    0.619329 0.512880 0.324238 0.128426
H14   H     H_    0.483244 0.580453 0.799935 0.139478
H15   H     H_    0.441307 0.561541 0.673206 0.128017
H16   H     H_    0.304986 0.278354 0.820058 0.106320
H17   H     H_    0.297989 0.229575 0.691270 0.103546
H18   H     H_    0.094656 0.245242 0.881105 0.141304
H19   H     H_    0.082802 0.155463 0.623104 0.127835
H20   H     H_    0.625990 0.223626 0.857720 0.134406
H21   H     H_    0.572053 0.020984 0.618134 0.123731
H22   H     H_    0.407488 0.142360 0.792248 0.101729
H23   H     H_    0.668921 0.431327 0.689393 0.146956
H24   H     H_    0.648269 0.453968 0.817690 0.109911
H25   H     H_    0.947813 0.900252 0.801946 0.153453
H26   H     H_    0.964831 0.879340 0.675995 0.129385
H27   H     H_    0.167986 0.432328 0.296356 0.169237
O1    O     O_R   0.766500 0.250040 0.579790 -0.516203
O2    O     O_R   0.413330 0.603360 0.920440 -0.523110
O3    O     O_R   0.676110 0.626250 0.926750 -0.513221
O4    O     O_R   0.798570 0.516780 0.574780 -0.502345
O5    O     O_R   0.895350 0.809870 0.080950 -0.520884
O6    O     O_R   0.872490 0.049760 0.073800 -0.483986
O7    O     O_R   0.691680 0.088070 0.079070 -0.534669
O8    O     O_R   0.451720 0.825250 0.074050 -0.520669
O9    O     O_R   0.413580 0.606370 0.080960 -0.452469
O10   O     O_R   0.676340 0.629040 0.075550 -0.504855
O11   O     O_3   0.666780 0.833290 0.000090 -0.260535
O12   O     O_R   0.218690 0.701900 0.425960 -0.504468
O13   O     O_R   0.984000 0.732950 0.581090 -0.529791
O14   O     O_R   0.218600 0.700890 0.574760 -0.512270
O15   O     O_R   0.249390 0.515350 0.579940 -0.514010
O16   O     O_R   0.982790 0.280900 0.573700 -0.503577
O17   O     O_R   0.766600 0.251130 0.419260 -0.526523
O18   O     O_R   0.798660 0.517790 0.425980 -0.506877
O19   O     O_R   0.984100 0.734040 0.420570 -0.525058
O20   O     O_R   0.249490 0.516440 0.419420 -0.523372
O21   O     O_R   0.982880 0.281910 0.424890 -0.508743
O22   O     O_3   0.999980 0.499990 0.499980 -0.243704
O23   O     O_R   0.895110 0.806860 0.920430 -0.523876
O24   O     O_R   0.872260 0.046970 0.925000 -0.503054
O25   O     O_R   0.691430 0.085060 0.918550 -0.522758
O26   O     O_R   0.451490 0.822460 0.925250 -0.497793

loop_
_geom_bond_atom_site_label_1
_geom_bond_atom_site_label_2
_ccdc_geom_bond_type
C55   C56   A    
C48   O5    A    
C27   C29   A    
C17   H25   S    
C50   H1    S    
C10   H20   S    
C35   C36   A    
C25   H4    S    
Cr6   O11   S    
Cr4   O6    S    
C7    C8    A    
C39   C41   A    
C53   C54   A    
C27   C33   A    
C21   Cl1   S    
C12   C23   A    
C29   C30   A    
C47   O8    A    
Cr1   O22   S    
Cr2   O14   S    
C36   C37   A    
C6    C45   A    
C15   C44   S    
C5    C11   A    
C30   C31   A    
C43   C52   S    
C33   C49   S    
C28   C41   S    
C47   O9    A    
C53   H18   S    
Cr1   O17   S    
Cr6   O9    S    
C44   O3    A    
C9    H22   S    
Cr5   O8    S    
C42   O24   A    
C31   H7    S    
C1    O4    A    
C13   H23   S    
C27   H5    S    
C9    C10   A    
C1    O13   A    
C16   O16   A    
C49   O21   A    
Cr5   O11   S    
C7    H21   S    
C13   C14   A    
Cr1   O1    S    
Cr2   O12   S    
C2    C11   A    
C12   C52   A    
C50   C51   A    
C32   H8    S    
C29   H6    S    
C38   C39   A    
C48   O10   A    
C4    C34   S    
C34   C50   A    
C1    C19   S    
C13   C19   A    
C51   C52   A    
C24   C25   A    
C49   O17   A    
C36   H10   S    
C5    C7    A    
C8    C9    A    
C40   O20   A    
Cr6   O10   S    
C25   C26   A    
C20   H27   S    
C3    C45   A    
C8    H12   S    
C42   C45   S    
Cr6   O2    S    
Cr4   O11   S    
Cr5   O26   S    
C37   C38   A    
Cr3   O22   S    
C43   O26   A    
Cr5   O7    S    
C11   C16   S    
C31   C32   A    
C23   C34   A    
C12   H14   S    
Cr2   O22   S    
C39   H13   S    
C37   C48   S    
C24   H2    S    
C46   O7    A    
C35   H9    S    
Cr4   O23   S    
C22   C24   A    
Cr3   O16   S    
C54   H16   S    
C38   H11   S    
C15   C17   A    
C54   C55   A    
C18   H26   S    
C30   C46   S    
C14   H24   S    
C44   O23   A    
Cr4   O5    S    
C56   H19   S    
C28   O19   A    
C4    O15   A    
Cr6   O3    S    
C43   O2    A    
C17   C18   A    
Cr2   O13   S    
C32   C33   A    
C2    C3    A    
Cr1   O4    S    
Cr5   O25   S    
Cr3   O21   S    
C2    C56   A    
C55   H17   S    
C3    C53   A    
C26   C40   S    
C5    C6    A    
C20   C26   A    
C28   O18   A    
C4    O14   A    
Cr2   O19   S    
C22   C47   S    
Cr1   O18   S    
C23   H15   S    
C35   C41   A    
Cr3   O20   S    
C6    C10   A    
C40   O12   A    
C42   O25   A    
C46   O6    A    
C20   C21   A    
C16   O1    A    
Cr4   O24   S    
C18   C19   A    
C14   C15   A    
C21   C22   A    
C51   H3    S    
Cr3   O15   S    
