data_mof_unit_57483.cif
_audit_creation_date              2012-12-10T16:53:06-0500
_audit_creation_method            fapswitch 2.2
_symmetry_space_group_name_H-M    P1
_symmetry_Int_Tables_number       1
_space_group_crystal_system       triclinic
_cell_length_a                    10.864398
_cell_length_b                    10.921449
_cell_length_c                    9.659134
_cell_angle_alpha                 89.881321
_cell_angle_beta                  90.958201
_cell_angle_gamma                 89.990149
_cell_volume                      1145.94148951

loop_
_atom_site_label
_atom_site_type_symbol
_atom_type_description
_atom_site_fract_x
_atom_site_fract_y
_atom_site_fract_z
_atom_type_partial_charge
C1    C     C_R   0.501866 0.265243 0.500208 0.840440
C2    C     C_R   0.062629 0.466725 0.621527 -0.056608
C3    C     C_R   0.126507 0.490389 0.497013 -0.161350
C4    C     C_R   0.058819 0.526283 0.376935 0.377904
C5    C     C_R   0.932114 0.534268 0.382042 -0.251333
C6    C     C_R   0.871429 0.522961 0.507620 -0.176519
C7    C     C_2   0.505300 0.933201 0.386477 -0.154025
C8    C     C_2   0.492886 0.866701 0.502031 -0.320419
C9    C     C_2   0.499714 0.067170 0.386364 -0.156742
C10   C     C_2   0.508783 0.133285 0.502768 -0.321160
C11   C     C_2   0.437705 0.421683 0.921225 -0.044767
C12   C     C_R   0.261744 0.494225 0.498785 0.826646
C13   C     C_2   0.431375 0.426999 0.076832 0.013381
C14   C     C_R   0.498782 0.734755 0.499995 0.850890
C15   C     C_R   0.737431 0.510133 0.502028 0.827570
C16   C     C_R   0.116079 0.404348 0.736054 -0.250434
C17   C     C_R   0.059209 0.404493 0.865134 0.468297
C18   C     C_R   0.953841 0.475183 0.882281 -0.226458
C19   C     C_R   0.895698 0.531070 0.768458 0.400018
C20   C     C_R   0.940849 0.508493 0.632569 -0.041155
Cu1   Cu    Cu3+1 0.500020 0.500020 0.638630 0.967559
Cu2   Cu    Cu3+1 0.499980 0.499980 0.361370 0.976211
H1    H     H_    0.524225 0.092161 0.603536 0.146788
H2    H     H_    0.386483 0.349590 0.869246 0.143295
H3    H     H_    0.541887 0.570970 0.894759 0.210588
H4    H     H_    0.368049 0.365204 0.127323 0.173415
H5    H     H_    0.563925 0.552045 0.106853 0.190169
H6    H     H_    0.200794 0.353605 0.726264 0.153744
H7    H     H_    0.917520 0.487993 0.985013 0.188022
H8    H     H_    0.880910 0.551881 0.286777 0.189606
H9    H     H_    0.517840 0.888594 0.287271 0.169061
H10   H     H_    0.475654 0.907560 0.601768 0.149624
H11   H     H_    0.489410 0.112102 0.286372 0.162430
N1    N     N_2   0.498640 0.498660 0.846910 -0.272907
N2    N     N_2   0.498610 0.498630 0.153040 -0.284431
O1    O     O_R   0.500020 0.321960 0.617040 -0.594662
O2    O     O_R   0.499980 0.321920 0.382900 -0.583414
O3    O     O_R   0.319670 0.500020 0.617100 -0.582316
O4    O     O_R   0.319630 0.499980 0.382950 -0.514310
O5    O     O_R   0.500020 0.678080 0.617100 -0.586332
O6    O     O_R   0.499980 0.678040 0.382960 -0.569550
O7    O     O_R   0.680370 0.500020 0.617050 -0.527315
O8    O     O_R   0.680330 0.499980 0.382900 -0.595277
Cl1   Cl    Cl    0.124030 0.562503 0.215610 -0.598871
O9    O     O_3   0.116560 0.353311 0.980350 -0.572176
C21   C     C_3   0.113432 0.224005 0.972596 0.034965
H12   H     H_    0.189237 0.188720 0.040250 0.164583
H13   H     H_    0.131037 0.188171 0.866762 0.111493
C22   C     C_3   0.990870 0.174683 0.026090 -0.353663
H14   H     H_    0.971254 0.216554 0.128201 0.240643
H15   H     H_    0.915319 0.199897 0.952423 0.205908
C23   C     C_3   0.994203 0.035630 0.042097 -0.884859
H16   H     H_    0.017758 0.991594 0.942466 0.252846
H17   H     H_    0.902519 0.002178 0.074405 0.257582
H18   H     H_    0.063630 0.008819 0.122277 0.264422
O10   O     O_3   0.801362 0.612623 0.796360 -0.597662
C24   C     C_3   0.830811 0.730832 0.746656 0.090139
H19   H     H_    0.928125 0.756075 0.772273 0.136350
H20   H     H_    0.815946 0.735194 0.632643 0.140931
C25   C     C_3   0.746312 0.824549 0.814123 -0.337697
H21   H     H_    0.648886 0.795356 0.800957 0.235124
H22   H     H_    0.768043 0.829248 0.926852 0.214922
C26   C     C_3   0.761359 0.951504 0.750081 -0.941001
H23   H     H_    0.858288 0.982716 0.760241 0.262309
H24   H     H_    0.701386 0.017855 0.803930 0.255434
H25   H     H_    0.734403 0.949759 0.638668 0.264104

loop_
_geom_bond_atom_site_label_1
_geom_bond_atom_site_label_2
_ccdc_geom_bond_type
C19   O10   S    
C16   H6    S    
C26   H24   S    
Cu1   N1    S    
C10   H1    S    
C6    C20   A    
C9    C10   D    
Cu2   O8    S    
C23   H18   S    
C1    O2    A    
H3    N1    S    
C22   C23   S    
C12   O4    A    
C2    C3    A    
C3    C4    A    
C26   H25   S    
C15   O8    A    
C7    C8    D    
Cu1   O1    S    
Cu1   Cu2   S    
O10   C24   S    
C9    H11   S    
Cu2   N2    S    
C11   C13   S    
C21   C22   S    
C24   H19   S    
Cu1   O7    S    
Cu1   O5    S    
C14   O6    A    
Cu2   O4    S    
C25   H22   S    
C17   O9    S    
C13   N2    D    
C25   C26   S    
C12   O3    A    
C5    C6    A    
C21   H13   S    
C13   H4    S    
C24   H20   S    
Cu2   O6    S    
C7    H9    S    
C1    C10   S    
C14   O5    A    
C26   H23   S    
C8    H10   S    
C16   C17   A    
C7    C9    S    
C11   H2    S    
C4    C5    A    
C2    C16   A    
C23   H16   S    
C15   O7    A    
C17   C18   A    
C22   H14   S    
C5    H8    S    
C18   H7    S    
C21   H12   S    
C18   C19   A    
C24   C25   S    
C8    C14   S    
C3    C12   S    
C4    Cl1   S    
H5    N2    S    
C6    C15   S    
O9    C21   S    
Cu2   O2    S    
C2    C20   A    
C11   N1    D    
Cu1   O3    S    
C19   C20   A    
C1    O1    A    
C23   H17   S    
C25   H21   S    
C22   H15   S    
