data_mof_unit_62916.cif
_audit_creation_date              2012-12-10T20:31:39-0500
_audit_creation_method            fapswitch 2.2
_symmetry_space_group_name_H-M    P1
_symmetry_Int_Tables_number       1
_space_group_crystal_system       triclinic
_cell_length_a                    28.079879
_cell_length_b                    28.111076
_cell_length_c                    25.921835
_cell_angle_alpha                 90.024591
_cell_angle_beta                  89.932371
_cell_angle_gamma                 90.253506
_cell_volume                      20461.3295739

loop_
_atom_site_label
_atom_site_type_symbol
_atom_type_description
_atom_site_fract_x
_atom_site_fract_y
_atom_site_fract_z
_atom_type_partial_charge
Br1   Br    Br    0.860622 0.776823 0.762778 -0.262464
Br2   Br    Br    0.141464 0.766675 0.688316 -0.240551
Br3   Br    Br    0.775479 0.861094 0.265725 -0.245262
Br4   Br    Br    0.231164 0.145864 0.811160 -0.275481
Br5   Br    Br    0.141218 0.769538 0.302016 -0.248012
Br6   Br    Br    0.803826 0.282297 0.643353 -0.263264
Br7   Br    Br    0.220984 0.127848 0.265720 -0.260740
Br8   Br    Br    0.763000 0.847323 0.686945 -0.248727
Br9   Br    Br    0.361994 0.275716 0.236713 -0.246804
Br10  Br    Br    0.640712 0.735851 0.819739 -0.258504
Br11  Br    Br    0.269727 0.641402 0.198020 -0.247485
Br12  Br    Br    0.129788 0.221081 0.231734 -0.266250
Br13  Br    Br    0.777411 0.314112 0.861481 -0.261915
Br14  Br    Br    0.627449 0.721336 0.231269 -0.259278
Br15  Br    Br    0.348751 0.264554 0.682861 -0.272804
Br16  Br    Br    0.804879 0.282836 0.358898 -0.258581
Br17  Br    Br    0.265196 0.647682 0.810230 -0.238444
Br18  Br    Br    0.363804 0.722291 0.749944 -0.253742
Br19  Br    Br    0.643242 0.266755 0.188585 -0.244545
Br20  Br    Br    0.277019 0.363076 0.751674 -0.251510
Br21  Br    Br    0.720734 0.629633 0.268208 -0.267052
Br22  Br    Br    0.628186 0.278524 0.771265 -0.255777
Br23  Br    Br    0.776277 0.140405 0.736990 -0.260773
Br24  Br    Br    0.279857 0.808633 0.359165 -0.274766
Br25  Br    Br    0.719639 0.627961 0.746372 -0.268105
Br26  Br    Br    0.275106 0.360274 0.277993 -0.259831
Br27  Br    Br    0.947025 0.697493 0.758267 -0.256503
Br28  Br    Br    0.047037 0.304031 0.237929 -0.310076
Br29  Br    Br    0.695574 0.053780 0.734688 -0.252047
Br30  Br    Br    0.394317 0.862573 0.140721 -0.325758
Br31  Br    Br    0.046105 0.305688 0.740285 -0.316572
Br32  Br    Br    0.946464 0.696956 0.230354 -0.258859
Br33  Br    Br    0.305586 0.951847 0.737644 -0.301998
Br34  Br    Br    0.308721 0.779959 0.140854 -0.268653
Br35  Br    Br    0.683794 0.061676 0.309587 -0.239179
Br36  Br    Br    0.864714 0.393008 0.139788 -0.322393
Br37  Br    Br    0.058181 0.681826 0.689989 -0.244722
Br38  Br    Br    0.695780 0.946906 0.262315 -0.252989
Br39  Br    Br    0.311967 0.063152 0.814590 -0.267364
Br40  Br    Br    0.057281 0.685099 0.303145 -0.246049
Br41  Br    Br    0.892297 0.361821 0.641619 -0.315721
Br42  Br    Br    0.306378 0.046205 0.266461 -0.322862
Br43  Br    Br    0.684338 0.935372 0.688632 -0.239438
Br44  Br    Br    0.447575 0.195886 0.240673 -0.253870
Br45  Br    Br    0.128387 0.220995 0.741736 -0.262550
Br46  Br    Br    0.561533 0.824366 0.821415 -0.317004
Br47  Br    Br    0.185271 0.557480 0.196825 -0.246072
Br48  Br    Br    0.863132 0.396583 0.860052 -0.322727
Br49  Br    Br    0.546002 0.807042 0.230917 -0.323244
Br50  Br    Br    0.436219 0.188670 0.687628 -0.266027
Br51  Br    Br    0.891409 0.364349 0.359711 -0.321425
Br52  Br    Br    0.182921 0.562164 0.810399 -0.240684
Br53  Br    Br    0.449043 0.803959 0.754390 -0.274513
Br54  Br    Br    0.560516 0.181559 0.187566 -0.242161
Br55  Br    Br    0.196459 0.448506 0.753043 -0.254437
Br56  Br    Br    0.859925 0.774792 0.221335 -0.261453
Br57  Br    Br    0.803890 0.547026 0.262463 -0.310331
Br58  Br    Br    0.546807 0.191805 0.773612 -0.258301
Br59  Br    Br    0.362489 0.894202 0.359286 -0.336867
Br60  Br    Br    0.804339 0.546064 0.749344 -0.314252
Br61  Br    Br    0.197051 0.446597 0.269305 -0.259008
Br62  Br    Br    0.585705 0.912593 0.609771 -0.381130
Br63  Br    Br    0.586248 0.087612 0.389936 -0.383400
Br64  Br    Br    0.928960 0.596338 0.614363 -0.400323
Br65  Br    Br    0.089334 0.585610 0.391416 -0.380642
Br66  Br    Br    0.593536 0.077625 0.611719 -0.387410
Br67  Br    Br    0.220917 0.869111 0.743681 -0.250877
Br68  Br    Br    0.593500 0.923081 0.388150 -0.391193
Br69  Br    Br    0.091825 0.583337 0.608140 -0.380334
Br70  Br    Br    0.927772 0.595745 0.386019 -0.401527
Br71  Br    Br    0.095939 0.428012 0.114013 -0.402316
Br72  Br    Br    0.083272 0.591891 0.891827 -0.376942
Br73  Br    Br    0.428738 0.096212 0.114243 -0.400531
Br74  Br    Br    0.586036 0.088323 0.890583 -0.397286
Br75  Br    Br    0.085585 0.589387 0.108443 -0.379775
Br76  Br    Br    0.096487 0.429158 0.885590 -0.401808
Br77  Br    Br    0.592113 0.082911 0.108402 -0.379112
Br78  Br    Br    0.766804 0.146342 0.308562 -0.245339
Br79  Br    Br    0.427961 0.095981 0.886400 -0.400501
Br80  Br    Br    0.781569 0.308047 0.139393 -0.258009
C1    C     C_R   0.797439 0.695512 0.753660 -0.162244
C2    C     C_R   0.196707 0.700044 0.748928 -0.170765
C3    C     C_R   0.131883 0.536576 0.472263 -0.184019
C4    C     C_R   0.551260 0.127320 0.530236 -0.168108
C5    C     C_R   0.550794 0.873002 0.469513 -0.172440
C6    C     C_R   0.132285 0.535541 0.525632 -0.188832
C7    C     C_R   0.878098 0.566363 0.473851 -0.165730
C8    C     C_R   0.066654 0.378346 0.026219 -0.165262
C9    C     C_R   0.035253 0.632190 0.974262 -0.188273
C10   C     C_R   0.378105 0.066246 0.027301 -0.175967
C11   C     C_R   0.631139 0.040183 0.971018 -0.182558
C12   C     C_R   0.036348 0.631787 0.027628 -0.184245
C13   C     C_R   0.694990 0.798118 0.247839 -0.167411
C14   C     C_R   0.066855 0.378593 0.972760 -0.168351
C15   C     C_R   0.632140 0.037676 0.024332 -0.187963
C16   C     C_R   0.377848 0.066107 0.973830 -0.160800
C17   C     C_R   0.500150 0.006037 0.890105 0.871765
C18   C     C_R   0.500322 0.005944 0.109801 0.875511
C19   C     C_R   0.005931 0.500298 0.890146 0.874008
C20   C     C_R   0.006026 0.500216 0.109891 0.872999
C21   C     C_R   0.000203 0.506022 0.390122 0.873107
C22   C     C_R   0.000304 0.505940 0.609841 0.874142
C23   C     C_R   0.506004 0.000240 0.390093 0.872276
C24   C     C_R   0.297958 0.197431 0.747180 -0.160565
C25   C     C_R   0.505999 0.999806 0.609884 0.859733
C26   C     C_R   0.037070 0.459943 0.972275 -0.009848
C27   C     C_R   0.028220 0.545412 0.027685 -0.024068
C28   C     C_R   0.459372 0.036691 0.972518 -0.018337
C29   C     C_R   0.545637 0.028376 0.026932 -0.020227
C30   C     C_R   0.027793 0.545664 0.972727 -0.022491
C31   C     C_R   0.037008 0.459751 0.027486 -0.009715
C32   C     C_R   0.545059 0.029287 0.971952 -0.019863
C33   C     C_R   0.459679 0.036795 0.027720 -0.011629
C34   C     C_R   0.532774 0.957620 0.471608 -0.017661
C35   C     C_R   0.198511 0.698504 0.250024 -0.166967
C36   C     C_R   0.532912 0.042598 0.528279 -0.023880
C37   C     C_R   0.959652 0.536910 0.472533 -0.010101
C38   C     C_R   0.045684 0.527877 0.527231 -0.021977
C39   C     C_R   0.531607 0.043892 0.473271 -0.017719
C40   C     C_R   0.531399 0.956291 0.526611 -0.015241
C41   C     C_R   0.045427 0.528272 0.472273 -0.023871
C42   C     C_R   0.959855 0.536988 0.527741 -0.010573
C43   C     C_R   0.408977 0.909123 0.749851 0.919696
C44   C     C_R   0.590909 0.090881 0.249952 0.986877
C45   C     C_R   0.908719 0.590779 0.750386 0.952143
C46   C     C_R   0.797836 0.305124 0.752270 -0.160205
C47   C     C_R   0.090765 0.408720 0.250389 0.948565
C48   C     C_R   0.590743 0.091077 0.750279 0.981729
C49   C     C_R   0.409126 0.909134 0.249995 0.940140
C50   C     C_R   0.090682 0.408944 0.749643 0.955657
C51   C     C_R   0.908686 0.590755 0.249629 0.949013
C52   C     C_R   0.408832 0.090615 0.250398 0.957345
C53   C     C_R   0.590943 0.909219 0.749984 0.968376
C54   C     C_R   0.909092 0.409168 0.249985 0.931624
C55   C     C_R   0.090785 0.590849 0.749959 0.986130
C56   C     C_R   0.590621 0.908839 0.249581 0.957200
C57   C     C_R   0.298353 0.195280 0.251809 -0.167541
C58   C     C_R   0.408665 0.091159 0.749975 0.941501
C59   C     C_R   0.090832 0.590825 0.250006 0.984537
C60   C     C_R   0.909070 0.409216 0.750069 0.935520
C61   C     C_R   0.022919 0.501770 0.945535 -0.118793
C62   C     C_R   0.023075 0.501510 0.054519 -0.119387
C63   C     C_R   0.501220 0.023184 0.945412 -0.121398
C64   C     C_R   0.501750 0.022968 0.054354 -0.119458
C65   C     C_R   0.522997 0.000825 0.445440 -0.120430
C66   C     C_R   0.522976 0.999328 0.554482 -0.118296
C67   C     C_R   0.001477 0.523056 0.445479 -0.119716
C68   C     C_R   0.695017 0.798365 0.752722 -0.167768
C69   C     C_R   0.001757 0.522930 0.554454 -0.119212
C70   C     C_R   0.845264 0.709966 0.756976 0.240437
C71   C     C_R   0.147927 0.286417 0.244144 0.247398
C72   C     C_R   0.709624 0.154899 0.746299 0.245943
C73   C     C_R   0.324919 0.812928 0.203825 0.257342
C74   C     C_R   0.147177 0.287064 0.745249 0.253046
C75   C     C_R   0.844989 0.709305 0.237070 0.240299
C76   C     C_R   0.287115 0.850997 0.746123 0.251885
C77   C     C_R   0.706697 0.156307 0.274170 0.248806
C78   C     C_R   0.813222 0.325104 0.202887 0.257473
C79   C     C_R   0.881762 0.675893 0.755955 0.214918
C80   C     C_R   0.153108 0.707486 0.723701 0.250454
C81   C     C_R   0.709277 0.845664 0.254566 0.243305
C82   C     C_R   0.290783 0.155353 0.774870 0.236471
C83   C     C_R   0.153738 0.708035 0.271907 0.249710
C84   C     C_R   0.821576 0.315319 0.705800 0.257307
C85   C     C_R   0.286607 0.146874 0.257264 0.253455
C86   C     C_R   0.704170 0.840331 0.724869 0.245502
C87   C     C_R   0.346113 0.209477 0.246318 0.242088
C88   C     C_R   0.652390 0.793156 0.780716 0.259431
C89   C     C_R   0.208121 0.653809 0.228135 0.249582
C90   C     C_R   0.113274 0.322368 0.244339 0.199326
C91   C     C_R   0.810578 0.328602 0.798100 0.257894
C92   C     C_R   0.646581 0.786668 0.241294 0.254261
C93   C     C_R   0.340729 0.205847 0.720955 0.241282
C94   C     C_R   0.822965 0.314552 0.295746 0.257652
C95   C     C_R   0.205641 0.657004 0.774640 0.250235
C96   C     C_R   0.347476 0.788948 0.749199 0.247214
C97   C     C_R   0.654429 0.207242 0.223590 0.250103
C98   C     C_R   0.210062 0.347128 0.748909 0.241723
C99   C     C_R   0.786154 0.647757 0.255761 0.247598
C100  C     C_R   0.646983 0.213310 0.760514 0.248968
C101  C     C_R   0.675436 0.118341 0.745692 0.212240
C102  C     C_R   0.312870 0.824897 0.296184 0.257980
C103  C     C_R   0.785699 0.647022 0.750130 0.249539
C104  C     C_R   0.209532 0.345250 0.262558 0.240174
C105  C     C_R   0.195866 0.297922 0.253266 -0.163605
C106  C     C_R   0.360375 0.848333 0.203738 0.202027
C107  C     C_R   0.112597 0.322987 0.745938 0.189478
C108  C     C_R   0.881496 0.675354 0.238834 0.214965
C109  C     C_R   0.322998 0.885952 0.745920 0.198932
C110  C     C_R   0.671650 0.120544 0.274390 0.210910
C111  C     C_R   0.848931 0.360219 0.203060 0.201327
C112  C     C_R   0.118146 0.671647 0.724262 0.210852
C113  C     C_R   0.675235 0.882028 0.253943 0.210209
C114  C     C_R   0.326517 0.120542 0.776153 0.233966
C115  C     C_R   0.118290 0.672636 0.271888 0.211210
C116  C     C_R   0.695269 0.202222 0.753421 -0.160484
C117  C     C_R   0.858351 0.349322 0.705056 0.203516
C118  C     C_R   0.322790 0.112438 0.256795 0.186751
C119  C     C_R   0.670440 0.877111 0.724668 0.212619
C120  C     C_R   0.382389 0.175339 0.247076 0.211951
C121  C     C_R   0.618518 0.829881 0.780322 0.187301
C122  C     C_R   0.172722 0.618361 0.228145 0.211072
C123  C     C_R   0.847324 0.362652 0.797527 0.201277
C124  C     C_R   0.612237 0.822942 0.241864 0.186872
C125  C     C_R   0.377338 0.171949 0.722416 0.218171
C126  C     C_R   0.858789 0.349547 0.296088 0.201687
C127  C     C_R   0.301324 0.801343 0.250007 -0.160638
C128  C     C_R   0.170951 0.620935 0.774659 0.209215
C129  C     C_R   0.383468 0.823742 0.749992 0.200776
C130  C     C_R   0.619335 0.171498 0.223807 0.210876
C131  C     C_R   0.175728 0.383172 0.749360 0.212432
C132  C     C_R   0.822190 0.613180 0.255724 0.199577
C133  C     C_R   0.612644 0.176791 0.759970 0.211423
C134  C     C_R   0.348273 0.860354 0.296260 0.201921
C135  C     C_R   0.821975 0.612626 0.749638 0.194965
C136  C     C_R   0.175495 0.381673 0.260936 0.214746
C137  C     C_R   0.870403 0.626912 0.751865 -0.266617
C138  C     C_R   0.195666 0.299324 0.746873 -0.167017
C139  C     C_R   0.126977 0.370530 0.251724 -0.268905
C140  C     C_R   0.626776 0.129226 0.751876 -0.255722
C141  C     C_R   0.372071 0.872099 0.249995 -0.246649
C142  C     C_R   0.126824 0.371237 0.748394 -0.264223
C143  C     C_R   0.870402 0.626897 0.248259 -0.269041
C144  C     C_R   0.371332 0.872463 0.748839 -0.269279
C145  C     C_R   0.627780 0.128157 0.249447 -0.257970
C146  C     C_R   0.871801 0.372424 0.249700 -0.247114
C147  C     C_R   0.127236 0.628250 0.749441 -0.256587
C148  C     C_R   0.626545 0.870810 0.248307 -0.260604
C149  C     C_R   0.797622 0.695625 0.246429 -0.163133
C150  C     C_R   0.370582 0.128251 0.749637 -0.280795
C151  C     C_R   0.127811 0.627798 0.250021 -0.255557
C152  C     C_R   0.871266 0.373004 0.750958 -0.247099
C153  C     C_R   0.370874 0.126634 0.251527 -0.262126
C154  C     C_R   0.627103 0.871513 0.751474 -0.255977
C155  C     C_1   0.760370 0.730851 0.753693 0.178808
C156  C     C_1   0.231353 0.261066 0.252882 0.177181
C157  C     C_1   0.730534 0.239388 0.753417 0.184781
C158  C     C_1   0.265073 0.765082 0.250014 0.182212
C159  C     C_1   0.231088 0.262795 0.746527 0.178194
C160  C     C_R   0.299490 0.802692 0.747841 -0.166437
C161  C     C_1   0.760702 0.731050 0.246735 0.177782
C162  C     C_1   0.262833 0.766917 0.748055 0.177883
C163  C     C_1   0.733804 0.236046 0.248778 0.181317
C164  C     C_1   0.764038 0.266390 0.248891 0.181053
C165  C     C_1   0.232531 0.736634 0.748390 0.177869
C166  C     C_1   0.730393 0.761202 0.247215 0.174791
C167  C     C_1   0.261346 0.232821 0.746568 0.185106
C168  C     C_1   0.234760 0.734761 0.250020 0.181600
C169  C     C_1   0.760841 0.269682 0.753050 0.183852
C170  C     C_1   0.261505 0.230758 0.252385 0.174641
C171  C     C_R   0.697909 0.199528 0.248868 -0.168487
C172  C     C_1   0.730172 0.761151 0.753422 0.176837
C173  C     C_R   0.544775 0.913066 0.551006 0.314354
C174  C     C_R   0.545276 0.087119 0.448800 0.312468
C175  C     C_R   0.920567 0.557823 0.553747 0.304662
C176  C     C_R   0.088579 0.540111 0.446541 0.321648
C177  C     C_R   0.550048 0.083392 0.554839 0.316122
C178  C     C_R   0.549835 0.916960 0.444993 0.315358
C179  C     C_R   0.089389 0.538633 0.552410 0.319944
C180  C     C_R   0.920082 0.557497 0.446904 0.306049
C181  C     C_R   0.057697 0.420267 0.053134 0.305813
C182  C     C_R   0.800390 0.302453 0.249185 -0.163093
C183  C     C_R   0.038451 0.589351 0.947514 0.320433
C184  C     C_R   0.420351 0.057553 0.053739 0.304720
C185  C     C_R   0.587502 0.042841 0.945889 0.319575
C186  C     C_R   0.040009 0.588538 0.053370 0.321789
C187  C     C_R   0.057990 0.420731 0.946285 0.303930
C188  C     C_R   0.589483 0.039290 0.051794 0.317624
C189  C     C_R   0.419854 0.057320 0.946910 0.311393
C190  C     C_R   0.547319 0.870951 0.522734 -0.183340
C191  C     C_R   0.547988 0.129278 0.477003 -0.185241
C192  C     C_R   0.878356 0.566581 0.527309 -0.168052
H1    H     H_    0.562831 0.158737 0.551003 0.208491
H2    H     H_    0.081755 0.348366 0.952580 0.204511
H3    H     H_    0.665582 0.044509 0.043818 0.206725
H4    H     H_    0.347380 0.080819 0.953943 0.214895
H5    H     H_    0.081396 0.347922 0.046122 0.205645
H6    H     H_    0.041791 0.665518 0.954478 0.207570
H7    H     H_    0.347808 0.081038 0.047508 0.205222
H8    H     H_    0.663695 0.048895 0.950599 0.206163
H9    H     H_    0.562304 0.841672 0.448705 0.203574
H10   H     H_    0.165633 0.542164 0.545381 0.207164
H11   H     H_    0.847609 0.581025 0.453963 0.205572
H12   H     H_    0.556256 0.837910 0.541824 0.205784
H13   H     H_    0.557151 0.162324 0.457863 0.207876
H14   H     H_    0.848072 0.581413 0.547504 0.204532
H15   H     H_    0.164876 0.543976 0.452064 0.207555
H16   H     H_    0.043698 0.664758 0.047791 0.207729
O1    O     O_3   0.500000 0.000000 0.750000 -0.536178
O2    O     O_R   0.539320 0.000000 0.134330 -0.624255
O3    O     O_R   0.000000 0.539320 0.865670 -0.625777
O4    O     O_R   1.000000 0.460680 0.134330 -0.603205
O5    O     O_R   0.039320 0.500000 0.365670 -0.626621
O6    O     O_R   0.960680 0.500000 0.634330 -0.605038
O7    O     O_R   0.500000 0.960680 0.365670 -0.610966
O8    O     O_R   0.500000 0.039320 0.634330 -0.620529
O9    O     O_R   0.960680 0.500000 0.365670 -0.603674
O10   O     O_R   0.039320 0.500000 0.634330 -0.625784
O11   O     O_R   0.500000 0.039320 0.365670 -0.622205
O12   O     O_3   0.500000 0.000000 0.250000 -0.536625
O13   O     O_R   0.500000 0.960680 0.634330 -0.619563
O14   O     O_R   0.405620 0.944810 0.780240 -0.600537
O15   O     O_R   0.594380 0.055190 0.219760 -0.590098
O16   O     O_R   0.944810 0.594380 0.780240 -0.612351
O17   O     O_R   0.055190 0.405620 0.219760 -0.584541
O18   O     O_R   0.594380 0.055190 0.780240 -0.591893
O19   O     O_R   0.405620 0.944810 0.219760 -0.602025
O20   O     O_R   0.055190 0.405620 0.780240 -0.587172
O21   O     O_R   0.944810 0.594380 0.219760 -0.610752
O22   O     O_R   0.405620 0.055190 0.219760 -0.588482
O23   O     O_3   1.000000 0.500000 0.750000 -0.537583
O24   O     O_R   0.594380 0.944810 0.780240 -0.615316
O25   O     O_R   0.944810 0.405620 0.219760 -0.599938
O26   O     O_R   0.055190 0.594380 0.780240 -0.589157
O27   O     O_R   0.594380 0.944810 0.219760 -0.615169
O28   O     O_R   0.405620 0.055190 0.780240 -0.577979
O29   O     O_R   0.055190 0.594380 0.219760 -0.588604
O30   O     O_R   0.944810 0.405620 0.780240 -0.600679
O31   O     O_R   0.905620 0.444810 0.280240 -0.600599
O32   O     O_R   0.094380 0.555190 0.719760 -0.589800
O33   O     O_R   0.444810 0.094380 0.280240 -0.614046
O34   O     O_3   0.000000 0.500000 0.250000 -0.538195
O35   O     O_R   0.555190 0.905620 0.719760 -0.583465
O36   O     O_R   0.094380 0.555190 0.280240 -0.588707
O37   O     O_R   0.905620 0.444810 0.719760 -0.601838
O38   O     O_R   0.555190 0.905620 0.280240 -0.589125
O39   O     O_R   0.444810 0.094380 0.719760 -0.602131
O40   O     O_R   0.905620 0.555190 0.719760 -0.585975
O41   O     O_R   0.094380 0.444810 0.280240 -0.610965
O42   O     O_R   0.444810 0.905620 0.719760 -0.609715
O43   O     O_R   0.555190 0.094380 0.280240 -0.590287
O44   O     O_R   0.094380 0.444810 0.719760 -0.614928
O45   O     O_R   0.539320 0.000000 0.865670 -0.622439
O46   O     O_R   0.905620 0.555190 0.280240 -0.584725
O47   O     O_R   0.555190 0.094380 0.719760 -0.587641
O48   O     O_R   0.444810 0.905620 0.280240 -0.602838
O49   O     O_R   0.460680 0.000000 0.134330 -0.605874
O50   O     O_R   0.000000 0.460680 0.865670 -0.604658
O51   O     O_R   1.000000 0.539320 0.134330 -0.626708
O52   O     O_R   0.460680 0.000000 0.865670 -0.610651
Zn1   Zn    Zn3+2 0.500000 0.943960 0.706520 1.081111
Zn2   Zn    Zn3+2 0.000000 0.556040 0.793480 1.090319
Zn3   Zn    Zn3+2 0.443960 0.000000 0.206520 1.092498
Zn4   Zn    Zn3+2 0.556040 0.000000 0.793480 1.090287
Zn5   Zn    Zn3+2 1.000000 0.556040 0.206520 1.089399
Zn6   Zn    Zn3+2 0.000000 0.443960 0.793480 1.092664
Zn7   Zn    Zn3+2 0.556040 0.000000 0.206520 1.090743
Zn8   Zn    Zn3+2 0.443960 0.000000 0.793480 1.091219
Zn9   Zn    Zn3+2 0.500000 0.056040 0.293480 1.090861
Zn10  Zn    Zn3+2 0.943960 0.500000 0.706520 1.092692
Zn11  Zn    Zn3+2 0.056040 0.500000 0.293480 1.089254
Zn12  Zn    Zn3+2 0.500000 0.056040 0.706520 1.091815
Zn13  Zn    Zn3+2 0.500000 0.943960 0.293480 1.088798
Zn14  Zn    Zn3+2 0.056040 0.500000 0.706520 1.089475
Zn15  Zn    Zn3+2 0.943960 0.500000 0.293480 1.092587
Zn16  Zn    Zn3+2 1.000000 0.443960 0.206520 1.092756

loop_
_geom_bond_atom_site_label_1
_geom_bond_atom_site_label_2
_ccdc_geom_bond_type
C40   C66   A    
C48   O47   A    
Br36  C111  S    
C114  C150  A    
C20   O51   A    
O20   Zn6   S    
C136  C139  A    
Br66  C177  S    
Br51  C126  S    
Br48  C123  S    
C26   C187  A    
C71   C90   A    
C100  C133  A    
Br60  C135  S    
O10   Zn14  S    
C128  C147  A    
C24   C82   A    
O22   Zn3   S    
C46   C84   A    
C55   O32   A    
C117  C152  A    
C5    C190  A    
C110  C145  A    
Br33  C109  S    
C31   C181  A    
C31   C62   A    
C45   O16   A    
C126  C146  A    
C87   C120  A    
C41   C67   A    
Br61  C136  S    
O12   Zn3   S    
C8    H5    S    
C100  C116  A    
Br73  C184  S    
C26   C31   A    
C12   C186  A    
C56   C148  S    
Br49  C124  S    
C5    H9    S    
C47   O41   A    
C29   C188  A    
C103  C135  A    
C68   C172  S    
C162  C165  T    
C48   O18   A    
C70   C79   A    
Br15  C93   S    
C42   C69   A    
Br42  C118  S    
O37   Zn10  S    
C42   C175  A    
O25   Zn16  S    
C75   C149  A    
C45   O40   A    
Br67  C76   S    
O34   Zn15  S    
C38   C69   A    
C21   O9    A    
C94   C182  A    
C2    C80   A    
C13   C81   A    
C173  C190  A    
C24   C167  S    
O6    Zn10  S    
C101  C140  A    
Br1   C70   S    
O4    Zn16  S    
C25   O13   A    
O12   Zn7   S    
C49   C141  S    
C106  C141  A    
Br11  C89   S    
Br35  C110  S    
C27   C30   A    
C29   C32   A    
C116  C157  S    
C84   C117  A    
C35   C168  S    
C74   C107  A    
Br34  C73   S    
C28   C189  A    
Br72  C183  S    
C18   C64   S    
C19   C61   S    
C156  C170  T    
C54   O31   A    
C33   C64   A    
C107  C142  A    
Br38  C113  S    
C3    C176  A    
C20   O4    A    
C85   C118  A    
O17   Zn16  S    
C21   O5    A    
C49   O19   A    
C121  C154  A    
C25   C66   S    
O30   Zn6   S    
Br74  C185  S    
C29   C64   A    
C53   C154  S    
C35   C83   A    
O24   Zn4   S    
C22   C69   S    
Br21  C99   S    
C3    C6    A    
C59   O36   A    
Br10  C88   S    
Br31  C107  S    
C94   C126  A    
C129  C144  A    
C59   C151  S    
Br45  C74   S    
C190  H12   S    
C72   C101  A    
C11   C185  A    
C36   C177  A    
Br17  C95   S    
C122  C151  A    
C59   O29   A    
Br18  C96   S    
C13   C92   A    
C25   O8    A    
C57   C170  S    
C14   C187  A    
C51   O21   A    
Br79  C189  S    
C55   C147  S    
C46   C169  S    
Br5   C83   S    
C123  C152  A    
Br27  C79   S    
C174  C191  A    
C104  C105  A    
C40   C173  A    
O12   Zn9   S    
C55   O26   A    
C127  C158  S    
O11   Zn9   S    
C89   C122  A    
C77   C110  A    
Br46  C121  S    
C78   C182  A    
C1    C155  S    
C9    C183  A    
C99   C149  A    
C10   C184  A    
Br19  C97   S    
C53   O24   A    
O18   Zn4   S    
O40   Zn10  S    
C76   C109  A    
C155  C172  T    
C77   C171  A    
O29   Zn5   S    
O34   Zn5   S    
C175  C192  A    
C56   O27   A    
C8    C14   A    
C163  C171  S    
C72   C116  A    
C4    C177  A    
C58   C150  S    
C120  C153  A    
Br41  C117  S    
O19   Zn3   S    
C43   O42   A    
C16   C189  A    
C99   C132  A    
Br47  C122  S    
C9    C12   A    
C97   C130  A    
C30   C61   A    
O13   Zn1   S    
C37   C42   A    
C7    C192  A    
O12   Zn13  S    
Br80  C78   S    
C6    H10   S    
C81   C113  A    
C30   C183  A    
Br56  C75   S    
Br44  C120  S    
C16   H4    S    
C164  C182  S    
O41   Zn11  S    
C39   C174  A    
C3    H15   S    
C23   C65   S    
C90   C139  A    
Br16  C94   S    
C21   C67   S    
C4    C191  A    
C34   C65   A    
C118  C153  A    
C22   O10   A    
O38   Zn13  S    
C23   O7    A    
C28   C33   A    
Br77  C188  S    
O23   Zn2   S    
O47   Zn12  S    
C44   O15   A    
C36   C66   A    
O23   Zn14  S    
Br70  C180  S    
C11   C15   A    
C108  C143  A    
Br13  C91   S    
Br37  C112  S    
C50   O44   A    
C2    C95   A    
Br2   C80   S    
C158  C168  T    
C51   C143  S    
C32   C185  A    
C45   C137  S    
O34   Zn11  S    
Br40  C115  S    
Br62  C173  S    
Br23  C72   S    
O48   Zn13  S    
C68   C86   A    
C56   O38   A    
C57   C85   A    
C109  C144  A    
C47   C139  S    
C22   O6    A    
C23   O11   A    
C95   C128  A    
C32   C63   A    
C18   O2    A    
O1    Zn4   S    
O23   Zn6   S    
O3    Zn2   S    
C104  C136  A    
Br63  C174  S    
C73   C106  A    
O44   Zn14  S    
C163  C164  T    
C15   H3    S    
C96   C129  A    
C159  C167  T    
O34   Zn16  S    
C92   C124  A    
C86   C119  A    
O31   Zn15  S    
C17   O45   A    
C73   C127  A    
C51   O46   A    
C112  C147  A    
O45   Zn4   S    
C52   C153  S    
C35   C89   A    
Br69  C179  S    
Br64  C175  S    
O33   Zn9   S    
Br7   C85   S    
C4    H1    S    
C138  C159  S    
C133  C140  A    
C44   C145  S    
C52   O33   A    
O51   Zn5   S    
O35   Zn1   S    
O36   Zn11  S    
C161  C166  T    
C50   C142  S    
C43   O14   A    
C80   C112  A    
Br22  C100  S    
O1    Zn8   S    
C37   C180  A    
Br20  C98   S    
C38   C179  A    
C19   O50   A    
C33   C184  A    
C134  C141  A    
C149  C161  S    
C83   C115  A    
C27   C186  A    
O27   Zn7   S    
C10   C16   A    
C54   O25   A    
C96   C160  A    
Br6   C84   S    
C60   C152  S    
C111  C146  A    
O21   Zn5   S    
C68   C88   A    
O16   Zn2   S    
C54   C146  S    
C57   C87   A    
O43   Zn9   S    
C26   C61   A    
C71   C105  A    
C98   C138  A    
C7    C180  A    
C14   H2    S    
C24   C93   A    
C39   C65   A    
C43   C144  S    
C37   C67   A    
C78   C111  A    
C98   C131  A    
O42   Zn1   S    
C91   C123  A    
C7    H11   S    
C13   C166  S    
Br3   C81   S    
Br58  C133  S    
C105  C156  S    
Br53  C129  S    
O46   Zn15  S    
C10   H7    S    
C93   C125  A    
C52   O22   A    
C28   C63   A    
C34   C40   A    
Br75  C186  S    
C47   O17   A    
Br71  C181  S    
C12   H16   S    
Br59  C134  S    
C76   C160  A    
Br29  C101  S    
Br30  C106  S    
C75   C108  A    
C135  C137  A    
C18   O49   A    
O7    Zn13  S    
O14   Zn8   S    
C44   O43   A    
C192  H14   S    
C1    C70   A    
C97   C171  A    
Br65  C176  S    
C88   C121  A    
O5    Zn11  S    
C102  C127  A    
C49   O48   A    
O1    Zn1   S    
O2    Zn7   S    
C17   C63   S    
C46   C91   A    
C79   C137  A    
C60   O37   A    
O9    Zn15  S    
C17   O52   A    
C5    C178  A    
C124  C148  A    
C53   O35   A    
O32   Zn14  S    
Br57  C132  S    
Br12  C71   S    
C157  C169  T    
C125  C150  A    
O8    Zn12  S    
O23   Zn10  S    
C19   O3    A    
O26   Zn2   S    
C8    C181  A    
C191  H13   S    
O28   Zn8   S    
Br39  C114  S    
Br32  C108  S    
Br24  C102  S    
Br9   C87   S    
Br14  C92   S    
C119  C154  A    
O39   Zn12  S    
C131  C142  A    
C38   C41   A    
Br78  C77   S    
Br54  C130  S    
C58   O39   A    
C82   C114  A    
C160  C162  S    
C115  C151  A    
C27   C62   A    
C34   C178  A    
O49   Zn3   S    
Br8   C86   S    
C130  C145  A    
C74   C138  A    
C1    C103  A    
O1    Zn12  S    
C41   C176  A    
Br28  C90   S    
C48   C140  S    
C2    C165  S    
Br52  C128  S    
O15   Zn7   S    
C113  C148  A    
C58   O28   A    
C60   O30   A    
O50   Zn6   S    
C36   C39   A    
C20   C62   S    
Br68  C178  S    
C15   C188  A    
C50   O20   A    
C9    H6    S    
Br4   C82   S    
C11   H8    S    
C6    C179  A    
Br55  C131  S    
Br50  C125  S    
Br76  C187  S    
C102  C134  A    
Br43  C119  S    
O52   Zn8   S    
Br25  C103  S    
C132  C143  A    
Br26  C104  S    
