data_mof_unit_22772.cif
_audit_creation_date              2012-12-10T17:22:10-0500
_audit_creation_method            fapswitch 2.2
_symmetry_space_group_name_H-M    P1
_symmetry_Int_Tables_number       1
_space_group_crystal_system       triclinic
_cell_length_a                    15.886397
_cell_length_b                    10.782661
_cell_length_c                    9.677919
_cell_angle_alpha                 90.320553
_cell_angle_beta                  89.334912
_cell_angle_gamma                 94.343934
_cell_volume                      1652.91246946

loop_
_atom_site_label
_atom_site_type_symbol
_atom_type_description
_atom_site_fract_x
_atom_site_fract_y
_atom_site_fract_z
_atom_type_partial_charge
C1    C     C_R   0.494695 0.262245 0.499534 0.800377
C2    C     C_3   0.948211 0.472948 0.652814 -0.645661
C3    C     C_3   0.917363 0.507623 0.506135 -0.060583
C4    C     C_3   0.957363 0.643828 0.480499 0.227423
C5    C     C_3   0.057109 0.648811 0.465641 0.829766
C6    C     C_1   0.824852 0.503352 0.504886 0.073775
C7    C     C_1   0.176492 0.508398 0.504162 0.045816
C8    C     C_1   0.251566 0.503590 0.503387 -0.203344
C9    C     C_R   0.376104 0.115701 0.683252 -0.212289
C10   C     C_R   0.330160 0.047677 0.784807 -0.182547
C11   C     C_R   0.334850 0.919455 0.794426 0.541493
C12   C     C_R   0.340665 0.499692 0.500929 0.772829
C13   C     C_R   0.379814 0.858786 0.691877 -0.261460
C14   C     C_R   0.431548 0.926960 0.594817 0.030946
C15   C     C_R   0.431630 0.057985 0.592836 0.015703
C16   C     C_R   0.484741 0.126642 0.496634 -0.199713
C17   C     C_R   0.529397 0.064514 0.394540 0.443428
C18   C     C_R   0.523540 0.936076 0.391172 -0.312671
C19   C     C_R   0.480978 0.867701 0.496053 -0.141581
C20   C     C_R   0.626880 0.638148 0.146203 -0.207682
C21   C     C_R   0.705200 0.662597 0.085988 -0.381494
C22   C     C_R   0.714222 0.650638 0.943510 0.409604
C23   C     C_R   0.492491 0.735548 0.499735 0.828300
C24   C     C_R   0.639339 0.633740 0.863689 0.441505
C25   C     C_R   0.565987 0.566674 0.926127 -0.031612
C26   C     C_R   0.563049 0.568192 0.075073 0.137000
C27   C     C_R   0.438960 0.436213 0.074938 -0.140687
C28   C     C_R   0.436720 0.439163 0.926673 0.577029
C29   C     C_R   0.659488 0.499825 0.499662 0.828855
C30   C     C_3   0.046138 0.464443 0.645272 0.209632
C31   C     C_3   0.048470 0.417451 0.390537 0.218471
C32   C     C_3   0.950223 0.406410 0.404636 0.255849
C33   C     C_1   0.749229 0.500988 0.501022 -0.206175
C34   C     C_3   0.084700 0.513354 0.501680 -0.104904
Cu1   Cu    Cu3+1 0.499990 0.499990 0.640660 1.009494
Cu2   Cu    Cu3+1 0.500010 0.500010 0.359340 0.943059
H1    H     H_    0.917130 0.381625 0.685838 0.190520
H2    H     H_    0.927922 0.539195 0.732035 0.235541
H3    H     H_    0.366115 0.212913 0.674067 0.213847
H4    H     H_    0.290368 0.095004 0.856238 0.162359
H5    H     H_    0.371621 0.758792 0.686480 0.151768
H6    H     H_    0.558461 0.890077 0.311514 0.167268
H7    H     H_    0.390795 0.381262 0.132061 0.148573
H8    H     H_    0.052478 0.362292 0.642927 0.121751
H9    H     H_    0.620620 0.668125 0.250670 0.215534
H10   H     H_    0.757606 0.692041 0.151196 0.179506
H11   H     H_    0.070871 0.324935 0.419713 0.038467
H12   H     H_    0.937059 0.317819 0.462534 0.085657
H13   H     H_    0.944129 0.694096 0.578208 0.064331
N1    N     N_R   0.500800 0.501210 0.147910 -0.196493
N2    N     N_R   0.500820 0.501290 0.852040 -0.216865
O1    O     O_R   0.499990 0.319640 0.618810 -0.566545
O2    O     O_R   0.500000 0.319660 0.381240 -0.521478
O3    O     O_R   0.379430 0.499990 0.618840 -0.544456
O4    O     O_R   0.379440 0.500020 0.381260 -0.595627
O5    O     O_R   0.500000 0.680340 0.618760 -0.517926
O6    O     O_R   0.500010 0.680360 0.381190 -0.620142
O7    O     O_R   0.620560 0.499980 0.618740 -0.526063
O8    O     O_R   0.620570 0.500010 0.381160 -0.591111
O9    O     O_3   0.092756 0.499132 0.766219 -0.579566
C35   C     C_3   0.087043 0.622374 0.812899 0.135011
H14   H     H_    0.032020 0.667876 0.774181 0.154623
H15   H     H_    0.145991 0.678562 0.783767 0.225623
C36   C     C_3   0.080978 0.622345 0.968917 -0.786524
H16   H     H_    0.143708 0.609498 0.013586 0.245055
H17   H     H_    0.057327 0.710810 0.006289 0.217894
H18   H     H_    0.036255 0.544998 0.002291 0.280176
O10   O     O_3   0.921669 0.701286 0.364712 -0.582389
C37   C     C_3   0.866358 0.793660 0.403192 0.046969
H19   H     H_    0.880083 0.838979 0.504880 0.121396
H20   H     H_    0.800452 0.751401 0.405821 0.150754
C38   C     C_3   0.872863 0.898022 0.297545 -0.825376
H21   H     H_    0.851545 0.863091 0.195470 0.235372
H22   H     H_    0.832484 0.972601 0.330708 0.197552
H23   H     H_    0.939040 0.938242 0.287861 0.249411
O11   O     O_3   0.577961 0.129743 0.295515 -0.550384
C39   C     C_3   0.663961 0.126740 0.329498 0.044183
H24   H     H_    0.684028 0.030184 0.322958 0.136824
H25   H     H_    0.676372 0.164809 0.435320 0.132486
C40   C     C_3   0.717206 0.205969 0.227192 -0.737412
H26   H     H_    0.704507 0.172599 0.120123 0.239192
H27   H     H_    0.702341 0.304733 0.236164 0.266783
H28   H     H_    0.785055 0.198998 0.249130 0.233573
O12   O     O_3   0.288803 0.855560 0.898077 -0.613428
C41   C     C_3   0.338703 0.774017 0.970557 0.031144
H29   H     H_    0.364947 0.702845 0.902702 0.144120
H30   H     H_    0.296657 0.720904 0.045072 0.161062
C42   C     C_3   0.409302 0.843881 0.052928 -0.806819
H31   H     H_    0.383855 0.919459 0.115377 0.255232
H32   H     H_    0.438045 0.778363 0.123300 0.227679
H33   H     H_    0.459420 0.884545 0.982177 0.245227
O13   O     O_3   0.792835 0.653613 0.877560 -0.606584
C43   C     C_3   0.851677 0.745219 0.932539 -0.449342
H34   H     H_    0.882233 0.709872 0.025379 0.206618
H35   H     H_    0.822969 0.833990 0.956047 0.163184
H36   H     H_    0.902053 0.766319 0.854055 0.180856
O14   O     O_3   0.632094 0.698602 0.739940 -0.538409
C44   C     C_3   0.697745 0.793137 0.713735 0.102934
H37   H     H_    0.755108 0.750745 0.675141 0.188535
H38   H     H_    0.710772 0.852509 0.806539 0.143390
C45   C     C_3   0.673989 0.879987 0.601027 -0.900206
H39   H     H_    0.619870 0.931426 0.636450 0.267140
H40   H     H_    0.727928 0.948942 0.578942 0.192442
H41   H     H_    0.659476 0.826411 0.504994 0.233558
O15   O     O_3   0.373678 0.371679 0.854803 -0.574553
C46   C     C_3   0.292723 0.394070 0.906740 -0.364555
H42   H     H_    0.245848 0.369311 0.825133 0.223346
H43   H     H_    0.286960 0.493596 0.933844 0.151371
H44   H     H_    0.275894 0.333346 0.996682 0.146558
O16   O     O_3   0.076460 0.451594 0.255127 -0.537082
C47   C     C_3   0.102879 0.347780 0.181258 -0.328205
H45   H     H_    0.051829 0.271306 0.177293 0.184593
H46   H     H_    0.160778 0.314471 0.227552 0.150113
H47   H     H_    0.118750 0.375844 0.073556 0.194686
O17   O     O_3   0.905003 0.376203 0.281810 -0.594583
C48   C     C_3   0.895426 0.476041 0.192307 0.182826
H48   H     H_    0.950941 0.544242 0.190172 0.236947
H49   H     H_    0.838783 0.524013 0.223015 0.172368
C49   C     C_3   0.881620 0.422084 0.047795 -0.832735
H50   H     H_    0.818665 0.370384 0.041631 0.250320
H51   H     H_    0.885426 0.496671 0.970050 0.252769
H52   H     H_    0.930968 0.357765 0.022043 0.256107
O18   O     O_3   0.095750 0.736425 0.561157 -0.661213
C50   C     C_3   0.071439 0.859325 0.546321 -0.409350
H53   H     H_    0.027954 0.880729 0.632294 0.154814
H54   H     H_    0.040770 0.877078 0.446903 0.216874
H55   H     H_    0.128541 0.924728 0.554466 0.198530
O19   O     O_3   0.080539 0.683852 0.326545 -0.536329
C51   C     C_3   0.167841 0.721304 0.306641 0.151159
H56   H     H_    0.197313 0.649251 0.244201 0.156890
H57   H     H_    0.205071 0.733768 0.402743 0.165779
C52   C     C_3   0.178370 0.844393 0.229140 -0.828799
H58   H     H_    0.145137 0.917317 0.283504 0.234045
H59   H     H_    0.246302 0.876249 0.222671 0.217316
H60   H     H_    0.153736 0.834031 0.122999 0.264069

loop_
_geom_bond_atom_site_label_1
_geom_bond_atom_site_label_2
_ccdc_geom_bond_type
C43   H34   S    
C35   C36   S    
C11   C13   A    
Cu1   Cu2   S    
C3    C6    S    
O19   C51   S    
C26   N1    A    
C13   H5    S    
O14   C44   S    
O18   C50   S    
C39   H24   S    
C45   H39   S    
C46   H43   S    
Cu1   O7    S    
C51   H56   S    
C38   H23   S    
C28   N2    A    
C41   C42   S    
C46   H42   S    
O17   C48   S    
C29   C33   S    
C9    H3    S    
C48   H48   S    
C10   H4    S    
C18   C19   A    
C37   H20   S    
C1    O2    A    
O16   C47   S    
Cu2   O2    S    
O12   C41   S    
C29   O8    A    
C52   H58   S    
C30   O9    S    
C17   O11   S    
C9    C10   A    
C20   H9    S    
C27   N1    A    
C38   H21   S    
C51   C52   S    
C42   H31   S    
Cu2   O8    S    
C49   H51   S    
C43   H35   S    
C31   H11   S    
C21   C22   A    
Cu1   O3    S    
C32   H12   S    
C30   H8    S    
C35   H14   S    
C40   H28   S    
C39   H25   S    
C30   C34   S    
C41   H30   S    
C24   O14   S    
C36   H18   S    
C7    C8    T    
O11   C39   S    
C38   H22   S    
Cu2   O6    S    
C4    O10   S    
O10   C37   S    
C25   C26   A    
C41   H29   S    
O9    C35   S    
C36   H17   S    
C37   C38   S    
C19   C23   S    
C25   N2    A    
C2    H2    S    
C31   C32   S    
C42   H33   S    
C28   O15   S    
C8    C12   S    
C5    C34   S    
C35   H15   S    
C17   C18   A    
C31   C34   S    
C3    C32   S    
C47   H46   S    
C1    C16   S    
C24   C25   A    
C23   O5    A    
C50   H55   S    
C40   H27   S    
C42   H32   S    
C43   H36   S    
C44   H38   S    
Cu1   N2    S    
C7    C34   S    
C22   C24   A    
C3    C4    S    
Cu1   O1    S    
Cu2   N1    S    
C29   O7    A    
C50   H54   S    
C21   H10   S    
C49   H52   S    
C23   O6    A    
C47   H45   S    
Cu1   O5    S    
C14   C19   A    
C40   H26   S    
C49   H50   S    
C48   C49   S    
C11   O12   S    
C45   H41   S    
C44   C45   S    
O15   C46   S    
C5    O18   S    
C6    C33   T    
C4    H13   S    
C2    C30   S    
C36   H16   S    
C18   H6    S    
C2    C3    S    
C9    C15   A    
Cu2   O4    S    
C39   C40   S    
C2    H1    S    
C16   C17   A    
C20   C26   A    
C52   H60   S    
C52   H59   S    
C5    O19   S    
O13   C43   S    
C31   O16   S    
C48   H49   S    
C47   H47   S    
C32   O17   S    
C37   H19   S    
C1    O1    A    
C12   O4    A    
C10   C11   A    
C27   H7    S    
C4    C5    S    
C20   C21   A    
C45   H40   S    
C44   H37   S    
C27   C28   A    
C22   O13   S    
C14   C15   A    
C13   C14   A    
C12   O3    A    
C15   C16   A    
C50   H53   S    
C51   H57   S    
C46   H44   S    
