data_mof_unit_20889.cif
_audit_creation_date              2012-12-10T20:35:47-0500
_audit_creation_method            fapswitch 2.2
_symmetry_space_group_name_H-M    P1
_symmetry_Int_Tables_number       1
_space_group_crystal_system       triclinic
_cell_length_a                    15.729123
_cell_length_b                    10.633686
_cell_length_c                    9.88716
_cell_angle_alpha                 89.123673
_cell_angle_beta                  90.932379
_cell_angle_gamma                 90.536505
_cell_volume                      1653.23102689

loop_
_atom_site_label
_atom_site_type_symbol
_atom_type_description
_atom_site_fract_x
_atom_site_fract_y
_atom_site_fract_z
_atom_type_partial_charge
C1    C     C_R   0.506784 0.260672 0.501721 0.897257
C2    C     C_3   0.954177 0.482273 0.645884 0.000115
C3    C     C_3   0.917240 0.506548 0.499261 0.283719
C4    C     C_3   0.950127 0.637741 0.444598 -0.054974
C5    C     C_3   0.049597 0.641820 0.455641 0.081737
C6    C     C_1   0.825538 0.504753 0.502003 -0.074378
C7    C     C_1   0.174452 0.504989 0.495738 -0.064940
C8    C     C_1   0.249681 0.502191 0.496953 -0.212262
C9    C     C_R   0.495540 0.061903 0.619575 -0.009485
C10   C     C_R   0.526087 0.130155 0.509495 -0.187441
C11   C     C_R   0.575944 0.069543 0.412191 0.182010
C12   C     C_R   0.338410 0.499930 0.499097 0.901015
C13   C     C_R   0.569791 0.936771 0.404686 0.166744
C14   C     C_R   0.517543 0.872447 0.500072 -0.180681
C15   C     C_R   0.488587 0.935142 0.612243 0.016732
C16   C     C_3   0.405802 0.929548 0.687165 0.335759
C17   C     C_3   0.415331 0.073230 0.699689 0.040998
C18   C     C_R   0.439069 0.434802 0.070528 0.212928
C19   C     C_R   0.563313 0.556602 0.074266 -0.143233
C20   C     C_R   0.563795 0.557973 0.930703 0.210541
C21   C     C_R   0.438847 0.435290 0.928157 0.175512
C22   C     C_3   0.345463 0.458260 0.920420 -0.506366
C23   C     C_R   0.503610 0.740110 0.499022 0.917599
C24   C     C_3   0.345673 0.456875 0.073843 -0.498875
C25   C     C_R   0.661582 0.500556 0.500888 0.889361
C26   C     C_3   0.052449 0.474373 0.639989 -0.465736
C27   C     C_3   0.047384 0.407023 0.397232 -0.426151
C28   C     C_3   0.949053 0.400744 0.403684 0.007646
C29   C     C_1   0.750299 0.502722 0.502611 -0.207369
C30   C     C_3   0.083019 0.507816 0.495415 0.195756
H1    H     H_    0.929401 0.390443 0.684371 0.180141
H2    H     H_    0.083570 0.538134 0.714680 0.189049
H3    H     H_    0.365468 0.128700 0.644894 0.098463
H4    H     H_    0.613285 0.603525 0.131276 0.158308
H5    H     H_    0.072578 0.377243 0.668512 0.168210
H6    H     H_    0.329663 0.551737 0.875380 0.214847
H7    H     H_    0.309665 0.377999 0.875826 0.193667
H8    H     H_    0.329720 0.549432 0.117270 0.219550
H9    H     H_    0.310646 0.375128 0.117831 0.198714
H10   H     H_    0.066659 0.428172 0.291678 0.144648
H11   H     H_    0.075849 0.314105 0.423741 0.192560
H12   H     H_    0.922792 0.417992 0.300084 0.172978
H13   H     H_    0.066037 0.705209 0.541351 0.122803
H14   H     H_    0.925426 0.712014 0.511154 0.157861
N1    N     N_R   0.499430 0.499140 0.142800 -0.123585
N2    N     N_R   0.499430 0.499180 0.857150 -0.116521
O1    O     O_R   0.500010 0.316790 0.614690 -0.612858
O2    O     O_R   0.500000 0.316760 0.385350 -0.608204
O3    O     O_R   0.377150 0.500020 0.614720 -0.617580
O4    O     O_R   0.377140 0.499990 0.385380 -0.609810
O5    O     O_R   0.500000 0.683240 0.614650 -0.628387
O6    O     O_R   0.499990 0.683210 0.385310 -0.613190
O7    O     O_R   0.622860 0.500010 0.614620 -0.617783
O8    O     O_R   0.622850 0.499980 0.385280 -0.628464
Zn1   Zn    Zn3+2 0.500010 0.500020 0.653130 0.923888
Zn2   Zn    Zn3+2 0.499990 0.499980 0.346870 0.932451
C31   C     C_3   0.926921 0.579390 0.750978 -0.973339
H15   H     H_    0.956327 0.673036 0.731664 0.242188
H16   H     H_    0.856731 0.588988 0.751710 0.257479
H17   H     H_    0.947685 0.547410 0.853700 0.249581
C32   C     C_3   0.914867 0.673756 0.302060 -0.909912
H18   H     H_    0.931605 0.773259 0.278048 0.261436
H19   H     H_    0.941547 0.614286 0.222254 0.239805
H20   H     H_    0.844472 0.666061 0.297747 0.241985
C33   C     C_3   0.635013 0.143661 0.320486 -0.874012
H21   H     H_    0.642005 0.243493 0.348968 0.249380
H22   H     H_    0.700270 0.105223 0.329289 0.226813
H23   H     H_    0.611884 0.138848 0.214007 0.241926
C34   C     C_3   0.615760 0.864859 0.296677 -0.871721
H24   H     H_    0.568896 0.826972 0.222386 0.253041
H25   H     H_    0.661528 0.922120 0.237921 0.233387
H26   H     H_    0.652334 0.786543 0.344230 0.230982
C35   C     C_3   0.329021 0.891111 0.598074 -0.966575
H27   H     H_    0.329003 0.943088 0.499649 0.230395
H28   H     H_    0.330523 0.788801 0.577573 0.247816
H29   H     H_    0.269063 0.911941 0.650755 0.243029
C36   C     C_3   0.411072 0.852645 0.820579 -0.757957
H30   H     H_    0.402974 0.750827 0.800940 0.244059
H31   H     H_    0.473237 0.866116 0.873330 0.228383
H32   H     H_    0.359423 0.880984 0.888706 0.222047
N3    N     N_2   0.427997 0.114155 0.839265 -0.288259
H33   H     H_    0.382532 0.175193 0.872108 0.217643
C37   C     C_3   0.512848 0.137010 0.893856 -0.733572
H34   H     H_    0.541640 0.221440 0.845248 0.256744
H35   H     H_    0.554225 0.054631 0.878726 0.235606
H36   H     H_    0.509135 0.153273 0.004237 0.220021
C38   C     C_3   0.635901 0.626747 0.863697 -0.836886
H37   H     H_    0.683411 0.558382 0.829397 0.248079
H38   H     H_    0.612903 0.687165 0.779365 0.270934
H39   H     H_    0.669560 0.690144 0.935516 0.192840
C39   C     C_3   0.918532 0.266617 0.442408 -0.962970
H40   H     H_    0.936568 0.200338 0.362189 0.247788
H41   H     H_    0.948163 0.233116 0.538790 0.245704
H42   H     H_    0.848300 0.262195 0.451010 0.254311
N4    N     N_2   0.088383 0.692626 0.332571 -0.283127
H43   H     H_    0.099739 0.630376 0.256296 0.234721
C40   C     C_3   0.152356 0.790267 0.348337 -0.815745
H44   H     H_    0.169719 0.828584 0.247318 0.239795
H45   H     H_    0.210242 0.751664 0.398485 0.248929
H46   H     H_    0.127334 0.868497 0.408865 0.241932

loop_
_geom_bond_atom_site_label_1
_geom_bond_atom_site_label_2
_ccdc_geom_bond_type
C38   H37   S    
C26   H2    S    
C32   H20   S    
C18   C21   A    
C35   H27   S    
N4    H43   S    
C3    C6    S    
N3    H33   S    
C31   H15   S    
C2    C31   S    
C7    C8    T    
C36   H30   S    
C18   C24   S    
C3    C28   S    
C25   O7    A    
C21   N2    A    
C31   H16   S    
C15   C16   S    
C20   C38   S    
C40   H44   S    
C24   H9    S    
C34   H25   S    
C16   C36   S    
C32   H19   S    
C40   H45   S    
C19   C20   A    
N1    Zn2   S    
C16   C17   S    
C33   H22   S    
N2    Zn1   S    
C24   H8    S    
C9    C10   A    
C17   N3    S    
C36   H31   S    
C5    H13   S    
C7    C30   S    
C21   C22   S    
C27   C30   S    
C35   H28   S    
C32   H18   S    
C17   H3    S    
N3    C37   S    
C12   O3    A    
O7    Zn1   S    
C25   C29   S    
O8    Zn2   S    
C16   C35   S    
C25   O8    A    
C39   H40   S    
C1    O1    A    
C31   H17   S    
C4    H14   S    
O3    Zn1   S    
C22   H7    S    
C4    C32   S    
O4    Zn2   S    
C2    H1    S    
C14   C23   S    
C34   H26   S    
C39   H41   S    
C27   H11   S    
C23   O5    A    
C37   H34   S    
C27   H10   S    
C8    C12   S    
C33   H23   S    
C6    C29   T    
N4    C40   S    
C2    C26   S    
C9    C17   S    
C37   H35   S    
C26   C30   S    
C38   H38   S    
C35   H29   S    
C22   C24   S    
C3    C4    S    
C18   N1    A    
C40   H46   S    
O1    Zn1   S    
C5    C30   S    
C36   H32   S    
O2    Zn2   S    
C1    C10   S    
C4    C5    S    
C19   H4    S    
C12   O4    A    
C19   N1    A    
C1    O2    A    
C22   H6    S    
C2    C3    S    
C9    C15   A    
C39   H42   S    
C11   C13   A    
C23   O6    A    
C5    N4    S    
C13   C34   S    
C28   H12   S    
C28   C39   S    
O5    Zn1   S    
C34   H24   S    
C10   C11   A    
C11   C33   S    
C26   H5    S    
C37   H36   S    
C33   H21   S    
C38   H39   S    
C27   C28   S    
C14   C15   A    
C13   C14   A    
C20   N2    A    
O6    Zn2   S    
