data_mof_unit_59527.cif
_audit_creation_date              2012-12-11T14:04:20-0500
_audit_creation_method            fapswitch 2.2
_symmetry_space_group_name_H-M    P1
_symmetry_Int_Tables_number       1
_space_group_crystal_system       triclinic
_cell_length_a                    19.148207
_cell_length_b                    11.007737
_cell_length_c                    18.959225
_cell_angle_alpha                 90.172681
_cell_angle_beta                  88.174598
_cell_angle_gamma                 89.876517
_cell_volume                      3994.13942066

loop_
_atom_site_label
_atom_site_type_symbol
_atom_type_description
_atom_site_fract_x
_atom_site_fract_y
_atom_site_fract_z
_atom_type_partial_charge
Br1   Br    Br    0.165989 0.015037 0.472700 -0.592528
Br2   Br    Br    0.898715 0.962033 0.907314 -0.456668
Br3   Br    Br    0.601100 0.423526 0.100536 -0.429705
Br4   Br    Br    0.398715 0.462033 0.907314 -0.456668
Br5   Br    Br    0.834271 0.013558 0.527579 -0.591558
Br6   Br    Br    0.665989 0.515037 0.472700 -0.592528
Br7   Br    Br    0.334271 0.513558 0.527579 -0.591558
Br8   Br    Br    0.064696 0.893268 0.337306 -0.388391
Br9   Br    Br    0.935351 0.894322 0.663729 -0.407657
Br10  Br    Br    0.564696 0.393268 0.337306 -0.388391
Br11  Br    Br    0.435351 0.394322 0.663729 -0.407657
Br12  Br    Br    0.101100 0.923526 0.100535 -0.429705
C1    C     C_R   0.239755 0.471817 0.645224 0.579140
C2    C     C_R   0.013975 0.659311 0.571229 -0.005496
C3    C     C_R   0.485631 0.159440 0.429009 -0.007881
C4    C     C_R   0.513975 0.159311 0.571229 -0.005496
C5    C     C_R   0.015145 0.882235 0.427549 0.217556
C6    C     C_R   0.984822 0.882515 0.573400 0.219322
C7    C     C_R   0.515145 0.382235 0.427549 0.217556
C8    C     C_R   0.484822 0.382515 0.573400 0.219322
C9    C     C_R   0.007548 0.991208 0.464530 -0.050086
C10   C     C_R   0.992699 0.991360 0.536782 -0.048857
C11   C     C_R   0.507548 0.491208 0.464530 -0.050086
C12   C     C_R   0.760284 0.471970 0.354796 0.582893
C13   C     C_R   0.492699 0.491360 0.536782 -0.048857
C14   C     C_R   0.998374 0.770941 0.537577 -0.009568
C15   C     C_R   0.001331 0.770903 0.463005 -0.011286
C16   C     C_R   0.498374 0.270941 0.537577 -0.009568
C17   C     C_R   0.501331 0.270903 0.463005 -0.011286
C18   C     C_R   0.017277 0.550314 0.530740 0.004314
C19   C     C_R   0.982262 0.550473 0.469203 0.003560
C20   C     C_R   0.517277 0.050314 0.530740 0.004314
C21   C     C_R   0.482262 0.050472 0.469203 0.003560
C22   C     C_R   0.050217 0.439444 0.549017 -0.072096
C23   C     C_R   0.739755 0.971817 0.645224 0.579139
C24   C     C_R   0.949291 0.439865 0.450603 -0.072158
C25   C     C_R   0.550217 0.939444 0.549017 -0.072096
C26   C     C_R   0.449291 0.939865 0.450603 -0.072158
C27   C     C_R   0.027559 0.329239 0.522077 -0.109448
C28   C     C_R   0.971975 0.329462 0.477123 -0.108778
C29   C     C_R   0.527559 0.829239 0.522077 -0.109449
C30   C     C_R   0.471975 0.829462 0.477123 -0.108777
C31   C     C_2   0.237641 0.898722 0.927810 -0.109013
C32   C     C_2   0.761548 0.899424 0.072775 -0.108368
C33   C     C_2   0.737641 0.398722 0.927810 -0.109014
C34   C     C_R   0.260284 0.971970 0.354796 0.582893
C35   C     C_2   0.261548 0.399423 0.072775 -0.108368
C36   C     C_2   0.251180 0.899776 0.083434 -0.076450
C37   C     C_2   0.750566 0.901245 0.916399 -0.079731
C38   C     C_2   0.751180 0.399776 0.083434 -0.076450
C39   C     C_2   0.250565 0.401245 0.916399 -0.079731
C40   C     C_R   0.229626 0.876938 0.650111 0.543497
C41   C     C_R   0.770371 0.877079 0.349889 0.546248
C42   C     C_R   0.729626 0.376938 0.650111 0.543497
C43   C     C_R   0.270371 0.377079 0.349889 0.546248
C44   C     C_2   0.189591 0.898200 0.051204 0.141320
C45   C     C_2   0.270481 0.826196 0.534138 -0.096418
C46   C     C_2   0.811071 0.910408 0.950619 0.135645
C47   C     C_2   0.689591 0.398200 0.051204 0.141320
C48   C     C_2   0.311072 0.410408 0.950619 0.135645
C49   C     C_2   0.185739 0.874346 0.975263 -0.116473
C50   C     C_2   0.814766 0.882950 0.025738 -0.124795
C51   C     C_2   0.685739 0.374347 0.975263 -0.116474
C52   C     C_2   0.314766 0.382949 0.025738 -0.124795
C53   C     C_2   0.985399 0.663617 0.914933 -0.092898
C54   C     C_2   0.958158 0.654652 0.067949 -0.105819
C55   C     C_2   0.485399 0.163617 0.914933 -0.092897
C56   C     C_2   0.729395 0.826462 0.465515 -0.096903
C57   C     C_2   0.458158 0.154652 0.067949 -0.105819
C58   C     C_2   0.937826 0.567847 0.023445 -0.172196
C59   C     C_2   0.961180 0.564915 0.948984 -0.152143
C60   C     C_2   0.437826 0.067847 0.023445 -0.172196
C61   C     C_2   0.461180 0.064915 0.948984 -0.152143
C62   C     C_R   0.034871 0.653963 0.643619 0.578604
C63   C     C_R   0.964946 0.654046 0.356501 0.587825
C64   C     C_R   0.534871 0.153963 0.643619 0.578604
C65   C     C_R   0.464946 0.154046 0.356501 0.587825
C66   C     C_R   0.238781 0.464421 0.850081 0.576182
C67   C     C_2   0.770481 0.326196 0.534138 -0.096418
C68   C     C_R   0.761388 0.463636 0.150038 0.568891
C69   C     C_R   0.738781 0.964421 0.850081 0.576182
C70   C     C_R   0.261388 0.963636 0.150038 0.568891
C71   C     C_R   0.225265 0.870527 0.854278 0.544128
C72   C     C_R   0.774574 0.870472 0.145918 0.540623
C73   C     C_R   0.725265 0.370527 0.854278 0.544128
C74   C     C_R   0.274574 0.370472 0.145918 0.540624
C75   C     C_R   0.027524 0.652569 0.849993 0.568925
C76   C     C_R   0.938752 0.647605 0.142233 0.561375
C77   C     C_R   0.527524 0.152569 0.849993 0.568925
C78   C     C_2   0.229395 0.326462 0.465515 -0.096903
C79   C     C_R   0.438752 0.147605 0.142233 0.561375
C80   C     C_2   0.257865 0.914419 0.582335 -0.054290
C81   C     C_2   0.742101 0.914767 0.417751 -0.053538
C82   C     C_2   0.757865 0.414419 0.582335 -0.054290
C83   C     C_2   0.242101 0.414767 0.417751 -0.053538
C84   C     C_2   0.243549 0.931438 0.426068 0.153678
C85   C     C_2   0.756566 0.930907 0.573927 0.154215
C86   C     C_2   0.743549 0.431438 0.426068 0.153678
C87   C     C_2   0.256566 0.430907 0.573927 0.154215
C88   C     C_2   0.282477 0.850494 0.459179 -0.149684
C89   C     C_R   0.985631 0.659440 0.429009 -0.007881
C90   C     C_2   0.717504 0.850521 0.540552 -0.150071
C91   C     C_2   0.782477 0.350494 0.459179 -0.149684
C92   C     C_2   0.217504 0.350521 0.540552 -0.150071
Cr1   Cr    Cr6+3 0.113970 0.508630 0.747920 1.034881
Cr2   Cr    Cr6+3 0.887700 0.820070 0.250200 1.109681
Cr3   Cr    Cr6+3 0.612300 0.320070 0.749800 1.106758
Cr4   Cr    Cr6+3 0.387700 0.320070 0.250200 1.109681
Cr5   Cr    Cr6+3 0.886030 0.508630 0.252080 1.034963
Cr6   Cr    Cr6+3 0.613970 0.008630 0.747920 1.034881
Cr7   Cr    Cr6+3 0.386030 0.008630 0.252080 1.034963
Cr8   Cr    Cr6+3 0.269200 0.666740 0.749850 1.109358
Cr9   Cr    Cr6+3 0.730800 0.666740 0.250150 1.105014
Cr10  Cr    Cr6+3 0.769200 0.166740 0.749850 1.109358
Cr11  Cr    Cr6+3 0.230800 0.166740 0.250150 1.105014
Cr12  Cr    Cr6+3 0.112300 0.820070 0.749800 1.106758
H1    H     H_    0.320370 0.795187 0.429801 0.125893
H2    H     H_    0.705357 0.859161 0.942228 0.085271
H3    H     H_    0.798008 0.366758 0.055777 0.071790
H4    H     H_    0.205357 0.359161 0.942228 0.085271
H5    H     H_    0.288788 0.929718 0.942999 0.090163
H6    H     H_    0.709374 0.924251 0.057239 0.106758
H7    H     H_    0.788788 0.429716 0.942999 0.090164
H8    H     H_    0.209374 0.424251 0.057239 0.106758
H9    H     H_    0.908220 0.490568 0.043520 0.143289
H10   H     H_    0.963044 0.476385 0.923509 0.170963
H11   H     H_    0.408220 0.990568 0.043520 0.143289
H12   H     H_    0.679590 0.795523 0.569716 0.126073
H13   H     H_    0.463044 0.976385 0.923509 0.170963
H14   H     H_    0.989108 0.731817 0.050439 0.150429
H15   H     H_    0.980785 0.753140 0.938264 0.152025
H16   H     H_    0.489108 0.231817 0.050439 0.150429
H17   H     H_    0.480785 0.253140 0.938264 0.152025
H18   H     H_    0.265757 0.731717 0.549070 0.187068
H19   H     H_    0.734123 0.731997 0.450170 0.187258
H20   H     H_    0.765757 0.231717 0.549070 0.187068
H21   H     H_    0.234123 0.231997 0.450170 0.187258
H22   H     H_    0.263306 0.010332 0.570374 0.139389
H23   H     H_    0.820370 0.295187 0.429801 0.125893
H24   H     H_    0.736732 0.010704 0.430137 0.139972
H25   H     H_    0.763306 0.510332 0.570374 0.139389
H26   H     H_    0.236732 0.510704 0.430137 0.139972
H27   H     H_    0.016973 0.076258 0.437572 0.157957
H28   H     H_    0.983429 0.076577 0.563999 0.157875
H29   H     H_    0.516973 0.576258 0.437572 0.157957
H30   H     H_    0.483429 0.576577 0.563999 0.157875
H31   H     H_    0.906563 0.436975 0.415849 0.161442
H32   H     H_    0.092943 0.436178 0.583789 0.162033
H33   H     H_    0.406563 0.936975 0.415849 0.161442
H34   H     H_    0.179590 0.295523 0.569716 0.126073
H35   H     H_    0.592943 0.936178 0.583789 0.162033
H36   H     H_    0.051203 0.245116 0.538413 0.129756
H37   H     H_    0.948360 0.245511 0.460461 0.129724
H38   H     H_    0.551203 0.745116 0.538413 0.129756
H39   H     H_    0.448360 0.745511 0.460461 0.129724
H40   H     H_    0.135763 0.841982 0.957015 0.168476
H41   H     H_    0.865874 0.856846 0.044019 0.167205
H42   H     H_    0.635763 0.341985 0.957015 0.168478
H43   H     H_    0.365874 0.356845 0.044019 0.167205
H44   H     H_    0.298008 0.866758 0.055777 0.071790
O1    O     O_R   0.043230 0.549300 0.667990 -0.534837
O2    O     O_R   0.832470 0.905110 0.169660 -0.506043
O3    O     O_R   0.667530 0.405110 0.830340 -0.499737
O4    O     O_R   0.332470 0.405110 0.169660 -0.506043
O5    O     O_R   0.054010 0.748440 0.822860 -0.468139
O6    O     O_R   0.945990 0.748440 0.177140 -0.449257
O7    O     O_R   0.554010 0.248440 0.822860 -0.468139
O8    O     O_R   0.445990 0.248440 0.177140 -0.449257
O9    O     O_3   0.165160 0.665150 0.749190 -0.292561
O10   O     O_3   0.834840 0.665150 0.250810 -0.316796
O11   O     O_3   0.665160 0.165150 0.749190 -0.292561
O12   O     O_R   0.956770 0.549300 0.332010 -0.528588
O13   O     O_3   0.334840 0.165150 0.250810 -0.316796
O14   O     O_R   0.178620 0.457600 0.674100 -0.547828
O15   O     O_R   0.821380 0.457600 0.325900 -0.547153
O16   O     O_R   0.678620 0.957600 0.674100 -0.547828
O17   O     O_R   0.321380 0.957600 0.325900 -0.547153
O18   O     O_R   0.284680 0.542100 0.669460 -0.433479
O19   O     O_R   0.715320 0.542100 0.330540 -0.431812
O20   O     O_R   0.784680 0.042100 0.669460 -0.433479
O21   O     O_R   0.215320 0.042100 0.330540 -0.431812
O22   O     O_R   0.262860 0.790390 0.676650 -0.503101
O23   O     O_R   0.543230 0.049300 0.667990 -0.534837
O24   O     O_R   0.737140 0.790390 0.323350 -0.500586
O25   O     O_R   0.762860 0.290390 0.676650 -0.503100
O26   O     O_R   0.237140 0.290390 0.323350 -0.500586
O27   O     O_R   0.167460 0.907030 0.670940 -0.482550
O28   O     O_R   0.832540 0.907030 0.329060 -0.482131
O29   O     O_R   0.667460 0.407030 0.670940 -0.482550
O30   O     O_R   0.332540 0.407030 0.329060 -0.482131
O31   O     O_R   0.053950 0.750220 0.675100 -0.459001
O32   O     O_R   0.946050 0.750220 0.324900 -0.453277
O33   O     O_R   0.553950 0.250220 0.675100 -0.459001
O34   O     O_R   0.456770 0.049300 0.332010 -0.528588
O35   O     O_R   0.446050 0.250220 0.324900 -0.453276
O36   O     O_R   0.043300 0.547370 0.827390 -0.508883
O37   O     O_R   0.956700 0.547370 0.172610 -0.481160
O38   O     O_R   0.543300 0.047370 0.827390 -0.508883
O39   O     O_R   0.456700 0.047370 0.172610 -0.481160
O40   O     O_R   0.178690 0.455820 0.821860 -0.506777
O41   O     O_R   0.821310 0.455820 0.178140 -0.529260
O42   O     O_R   0.678690 0.955820 0.821860 -0.506777
O43   O     O_R   0.321310 0.955820 0.178140 -0.529260
O44   O     O_R   0.284750 0.540170 0.828860 -0.435638
O45   O     O_R   0.262920 0.788600 0.824420 -0.489826
O46   O     O_R   0.715250 0.540170 0.171140 -0.437737
O47   O     O_R   0.784750 0.040170 0.828860 -0.435638
O48   O     O_R   0.215250 0.040170 0.171140 -0.437738
O49   O     O_R   0.737080 0.788600 0.175580 -0.492298
O50   O     O_R   0.762920 0.288600 0.824420 -0.489826
O51   O     O_R   0.237080 0.288600 0.175580 -0.492298
O52   O     O_R   0.167530 0.905110 0.830340 -0.499737

loop_
_geom_bond_atom_site_label_1
_geom_bond_atom_site_label_2
_ccdc_geom_bond_type
C46   C50   S    
Cr1   O36   S    
C68   O46   A    
C4    C16   A    
C42   O29   A    
Cr6   O38   S    
C31   C71   S    
C29   C30   A    
Cr5   O37   S    
C6    C14   A    
Cr2   O32   S    
C56   C81   D    
C80   H22   S    
C73   O50   A    
C70   O48   A    
C78   C83   D    
Cr3   O11   S    
C33   H7    S    
C77   O38   A    
Cr4   O4    S    
C14   C15   A    
Cr10  O25   S    
Br7   C87   S    
C12   C86   S    
C23   O16   A    
Cr2   O6    S    
C34   O21   A    
C16   C17   A    
C45   C80   D    
C41   O28   A    
C40   O22   A    
Cr8   O45   S    
C26   C30   A    
C90   H12   S    
Br1   C84   S    
C54   C76   S    
C70   O43   A    
Cr9   O24   S    
C8    C13   A    
C37   C69   S    
C86   C91   D    
C55   C77   S    
Cr10  O47   S    
C43   O26   A    
C92   H34   S    
Cr11  O13   S    
C77   O7    A    
Cr7   O39   S    
C22   H32   S    
Cr1   O40   S    
C68   O41   A    
C42   O25   A    
Br4   C48   S    
C59   H10   S    
C53   C75   S    
C58   C59   S    
C55   C61   D    
C40   O27   A    
C64   O23   A    
C31   H5    S    
C26   H33   S    
C85   C90   D    
Cr5   O12   S    
C69   O47   A    
C79   O39   A    
Cr6   O11   S    
C67   C91   S    
Cr2   O2    S    
C87   C92   D    
Cr4   O8    S    
C3    C65   S    
Cr7   O13   S    
C9    C10   A    
Cr2   O10   S    
C34   O17   A    
Cr4   O30   S    
Cr10  O11   S    
C66   O40   A    
C25   H35   S    
C53   H15   S    
C48   C52   S    
C3    C17   A    
C61   H13   S    
C19   C24   A    
C1    O14   A    
Cr12  O27   S    
Cr3   O7    S    
Br11  C8    S    
C32   H6    S    
C42   C82   S    
C18   C22   A    
C60   H11   S    
C41   C81   S    
C38   H3    S    
C5    C15   A    
C43   O30   A    
C79   O8    A    
C24   C28   A    
C74   O51   A    
C9    H27   S    
C67   C82   D    
C43   C83   S    
C41   O24   A    
Cr7   O43   S    
C35   C52   D    
Cr11  O26   S    
C72   O49   A    
Cr8   O22   S    
C8    C16   A    
C32   C50   D    
C53   C59   D    
C45   C88   S    
C27   H36   S    
C15   C89   A    
C5    C9    A    
C37   C46   D    
C22   C27   A    
C76   O37   A    
C1    C87   S    
C57   C60   D    
C7    C11   A    
C65   O34   A    
C35   C74   S    
C67   H20   S    
C23   C85   S    
C91   H23   S    
C11   H29   S    
C24   H31   S    
Cr8   O9    S    
Br10  C7    S    
Cr4   O13   S    
Cr3   O29   S    
C12   O19   A    
Cr5   O15   S    
C39   H4    S    
C50   H41   S    
C20   C25   A    
C2    C14   A    
Cr4   O35   S    
C78   C92   S    
Br12  C44   S    
Cr1   O9    S    
C58   H9    S    
Br6   C86   S    
Cr9   O19   S    
Cr12  O31   S    
Br5   C85   S    
Cr6   O23   S    
C76   O6    A    
Cr1   O14   S    
C73   O3    A    
C28   H37   S    
Cr1   O1    S    
Cr12  O5    S    
C40   C80   S    
C74   O4    A    
C38   C47   D    
C7    C17   A    
C49   H40   S    
C2    C62   S    
Cr3   O33   S    
C78   H21   S    
C72   O2    A    
Cr5   O10   S    
C31   C49   D    
Cr8   O18   S    
C29   H38   S    
C23   O20   A    
C36   C44   D    
C63   C89   S    
C55   H17   S    
C4    C64   S    
C82   H25   S    
C56   H19   S    
C71   O52   A    
C56   C90   S    
C60   C61   S    
C32   C72   S    
C38   C68   S    
C75   O36   A    
C62   O1    A    
Br2   C46   S    
Cr9   O10   S    
C69   O42   A    
C88   H1    S    
Cr6   O16   S    
C4    C20   A    
C54   C58   D    
C47   C51   S    
Br8   C5    S    
Cr11  O51   S    
C33   C73   S    
Cr6   O42   S    
Cr9   O46   S    
C36   H44   S    
C39   C48   D    
C6    C10   A    
C63   O32   A    
C65   O35   A    
C39   C66   S    
Cr9   O49   S    
Cr12  O52   S    
C81   H24   S    
C57   C79   S    
C20   C21   A    
C18   C19   A    
Cr10  O50   S    
C35   H8    S    
C75   O5    A    
C33   C51   D    
C19   C89   A    
C57   H16   S    
C84   C88   D    
C52   H43   S    
Cr5   O41   S    
C36   C70   S    
Cr12  O9    S    
C30   H39   S    
C11   C13   A    
C25   C29   A    
C45   H18   S    
Cr10  O20   S    
C64   O33   A    
Cr7   O34   S    
Cr2   O28   S    
C62   O31   A    
C27   C28   A    
C37   H2    S    
Br9   C6    S    
C66   O44   A    
C13   H30   S    
C34   C84   S    
C83   H26   S    
C71   O45   A    
Cr11  O21   S    
C10   H28   S    
C63   O12   A    
Cr7   O17   S    
Cr8   O44   S    
C44   C49   S    
C21   C26   A    
Cr3   O3    S    
C51   H42   S    
Cr11  O48   S    
C12   O15   A    
C3    C21   A    
C2    C18   A    
C1    O18   A    
C54   H14   S    
Br3   C47   S    
