data_mof_unit_35921.cif
_audit_creation_date              2012-12-11T17:00:15-0500
_audit_creation_method            fapswitch 2.2
_symmetry_space_group_name_H-M    P1
_symmetry_Int_Tables_number       1
_space_group_crystal_system       triclinic
_cell_length_a                    6.952078
_cell_length_b                    13.64819
_cell_length_c                    20.204136
_cell_angle_alpha                 102.973022
_cell_angle_beta                  91.003396
_cell_angle_gamma                 90.003502
_cell_volume                      1867.80195316

loop_
_atom_site_label
_atom_site_type_symbol
_atom_type_description
_atom_site_fract_x
_atom_site_fract_y
_atom_site_fract_z
_atom_type_partial_charge
O1    O     O_R   0.506770 0.599700 0.449550 -0.537770
O2    O     O_R   0.179980 0.595740 0.587960 -0.545061
O3    O     O_R   0.004580 0.400300 0.550450 -0.536676
C1    C     C_R   0.349634 0.619371 0.614489 0.681811
O4    O     O_R   0.177380 0.611700 0.452380 -0.540715
O5    O     O_R   0.001970 0.416370 0.413900 -0.541053
C2    C     C_R   0.345151 0.638617 0.436013 0.698462
O6    O     O_R   0.509390 0.583630 0.586100 -0.541664
O7    O     O_3   0.337530 0.435890 0.487530 -0.371747
V1    V     V_3+5 0.064660 0.511890 0.502310 1.410440
O8    O     O_R   0.671950 0.404260 0.412040 -0.541480
C3    C     C_R   0.839763 0.382431 0.384846 0.692655
O9    O     O_R   0.674540 0.388300 0.547620 -0.544923
C4    C     C_R   0.845203 0.359977 0.563146 0.691028
V2    V     V_3+5 0.564030 0.488110 0.497690 1.405509
O10   O     O_3   0.841030 0.564110 0.512470 -0.369568
C5    C     C_R   0.037144 0.131843 0.616197 -0.165276
H1    H     H_    0.045116 0.187608 0.525245 0.107543
H2    H     H_    0.134655 0.022942 0.704959 0.126283
H3    H     H_    0.131428 0.069557 0.595725 0.111207
C6    C     C_R   0.864902 0.279409 0.600495 -0.042699
C7    C     C_R   0.736569 0.297328 0.921604 -0.155941
C8    C     C_R   0.661623 0.358042 0.880997 -0.121634
C9    C     C_R   0.692997 0.334954 0.811463 -0.159233
C10   C     C_R   0.810662 0.253205 0.781012 0.076525
C11   C     C_R   0.887251 0.190808 0.823050 0.068055
C12   C     C_R   0.855449 0.231792 0.710424 0.068478
C13   C     C_R   0.977373 0.149328 0.683797 0.144570
C14   C     C_R   0.043714 0.086770 0.725266 -0.212003
C15   C     C_R   0.999112 0.106916 0.793727 -0.212309
C16   C     C_R   0.791795 0.292485 0.665974 -0.222207
C17   C     C_R   0.986275 0.198233 0.575661 -0.164031
C18   C     C_R   0.845161 0.212344 0.893332 -0.086907
H4    H     H_    0.694660 0.353851 0.681916 0.103108
H5    H     H_    0.700391 0.313416 0.974924 0.104450
H6    H     H_    0.619877 0.381521 0.782908 0.101700
H7    H     H_    0.572150 0.421466 0.903183 0.114863
H8    H     H_    0.057164 0.057253 0.823812 0.128935
C19   C     C_R   0.713107 0.252839 0.202082 0.097802
C20   C     C_R   0.868440 0.187865 0.182825 -0.107965
C21   C     C_R   0.022364 0.193657 0.229853 -0.170404
H9    H     H_    0.144838 0.144731 0.217467 0.127745
C22   C     C_R   0.013277 0.257219 0.295251 -0.181266
H10   H     H_    0.130172 0.256243 0.331096 0.126047
C23   C     C_R   0.849384 0.316370 0.315758 -0.106940
C24   C     C_R   0.703764 0.315421 0.266842 0.103356
C25   C     C_3   0.493602 0.297200 0.271039 -0.415029
C26   C     C_3   0.503686 0.229456 0.200393 -0.396607
H11   H     H_    0.407748 0.366402 0.272689 0.169154
H12   H     H_    0.460909 0.255762 0.311009 0.169688
H13   H     H_    0.424203 0.259644 0.161133 0.171899
H14   H     H_    0.476162 0.148897 0.199335 0.166833
C27   C     C_R   0.493021 0.679380 0.732121 0.041752
C28   C     C_R   0.355486 0.688510 0.682606 -0.127410
C29   C     C_R   0.203284 0.756774 0.703850 -0.166603
H15   H     H_    0.087972 0.764240 0.668652 0.123618
C30   C     C_R   0.201217 0.818484 0.770201 -0.181750
H16   H     H_    0.086169 0.872164 0.783733 0.116804
C31   C     C_R   0.352938 0.814795 0.816797 -0.096606
C32   C     C_R   0.492959 0.741396 0.796377 0.057958
C33   C     C_3   0.706659 0.741960 0.803102 -0.388013
C34   C     C_3   0.707506 0.671038 0.732478 -0.031889
H17   H     H_    0.756348 0.707854 0.845439 0.170473
H18   H     H_    0.768669 0.817176 0.803757 0.155181
H19   H     H_    0.775046 0.703078 0.692525 0.140541
C35   C     C_R   0.323025 0.889527 0.389698 -0.157543
H20   H     H_    0.316519 0.839460 0.482980 0.100720
H21   H     H_    0.312171 0.014335 0.306368 0.117913
H22   H     H_    0.307468 0.967781 0.415408 0.109258
C36   C     C_R   0.349910 0.715745 0.396397 -0.031238
C37   C     C_R   0.380256 0.683809 0.069253 -0.167497
C38   C     C_R   0.385702 0.607869 0.104873 -0.118630
C39   C     C_R   0.376453 0.630934 0.175504 -0.157314
C40   C     C_R   0.360762 0.731858 0.212642 0.076495
C41   C     C_R   0.352297 0.809291 0.175616 0.070100
C42   C     C_R   0.353421 0.758538 0.285121 0.071418
C43   C     C_R   0.334552 0.861483 0.318636 0.144873
C44   C     C_R   0.326162 0.935747 0.281143 -0.206732
C45   C     C_R   0.335508 0.910279 0.210847 -0.198031
C46   C     C_R   0.363125 0.686678 0.325754 -0.213946
C47   C     C_R   0.328913 0.816899 0.428283 -0.174509
C48   C     C_R   0.362983 0.784128 0.103844 -0.074496
H23   H     H_    0.377674 0.607348 0.304343 0.092415
H24   H     H_    0.390213 0.664354 0.014383 0.099421
H25   H     H_    0.382027 0.567813 0.199246 0.105592
H26   H     H_    0.398504 0.530311 0.077540 0.114745
H27   H     H_    0.328774 0.970802 0.184274 0.109505
O11   O     O_R   0.203450 0.916320 0.913910 -0.544509
O12   O     O_R   0.535520 0.888300 0.047620 -0.539885
O13   O     O_R   0.710860 0.083650 0.086100 -0.538404
C49   C     C_R   0.367816 0.861632 0.064189 0.690639
O14   O     O_R   0.532860 0.904250 0.912040 -0.541401
O15   O     O_R   0.708190 0.099710 0.949550 -0.536559
C50   C     C_R   0.363415 0.883984 0.884468 0.694629
O16   O     O_R   0.206120 0.900260 0.050460 -0.538197
O17   O     O_3   0.375280 0.064080 0.012470 -0.372097
V3    V     V_3+5 0.648180 0.988110 0.997690 1.417331
O18   O     O_R   0.038220 0.111740 0.952370 -0.544664
C51   C     C_R   0.867629 0.136529 0.934216 0.688133
O19   O     O_R   0.040880 0.095790 0.087940 -0.545446
C52   C     C_R   0.873403 0.117125 0.115324 0.697374
V4    V     V_3+5 0.148800 0.011950 0.002300 1.403568
O20   O     O_3   0.871820 0.935920 0.987530 -0.369685
C53   C     C_3   0.767404 0.563230 0.732915 -0.326698
C54   C     C_3   0.982207 0.552765 0.745691 -0.736705
H28   H     H_    0.062334 0.561467 0.700676 0.236574
H29   H     H_    0.033077 0.609251 0.791108 0.234534
H30   H     H_    0.012129 0.476488 0.754037 0.213463
H31   H     H_    0.687776 0.536816 0.772763 0.176174
H32   H     H_    0.728066 0.515242 0.682671 0.178217

loop_
_geom_bond_atom_site_label_1
_geom_bond_atom_site_label_2
_ccdc_geom_bond_type
C29   H15   S    
O17   V4    S    
C21   H9    S    
C1    O6    A    
C2    C36   S    
C45   H27   S    
C25   H11   S    
C43   C44   A    
C7    H5    S    
C54   H29   S    
C9    H6    S    
C40   C42   A    
C4    C6    S    
C13   C14   A    
H20   C47   S    
O5    C3    A    
C53   H31   S    
C30   C31   A    
C35   H22   S    
V2    O10   S    
C5    H3    S    
C15   H8    S    
C39   C40   A    
C33   H17   S    
C36   C47   A    
C20   C52   S    
C28   C29   A    
O8    V2    S    
C26   H13   S    
C8    C9    A    
O1    V2    S    
C31   C50   S    
O12   C49   A    
O7    V1    S    
O15   C51   A    
O13   V3    S    
O16   V4    S    
C37   C48   A    
C31   C32   A    
O9    C4    A    
C21   C22   A    
V4    O20   S    
C46   H23   S    
O19   V4    S    
C53   C54   S    
C54   H30   S    
C27   C32   A    
O14   V3    S    
C25   H12   S    
C34   C53   S    
H21   C44   S    
C6    C17   A    
O11   C50   A    
C40   C41   A    
C12   C16   A    
C9    C10   A    
C19   C20   A    
O4    C2    A    
C44   C45   A    
C3    C23   S    
C10   C11   A    
O18   V4    S    
C36   C46   A    
C48   C49   S    
O12   V3    S    
C32   C33   S    
C18   C51   S    
C33   H18   S    
O2    C1    A    
C22   H10   S    
O13   C52   A    
C14   C15   A    
C8    H7    S    
C6    C16   A    
C27   C34   S    
C11   C18   A    
O11   V4    S    
C25   C26   S    
O17   V3    S    
O14   C50   A    
C16   H4    S    
C42   C43   A    
C22   C23   A    
C39   H25   S    
V3    O20   S    
O3    C4    A    
C19   C24   A    
C20   C21   A    
C11   C15   A    
O6    V2    S    
O9    V2    S    
H1    C17   S    
O2    V1    S    
O15   V3    S    
C37   H24   S    
C7    C18   A    
C24   C25   S    
C34   H19   S    
C1    C28   S    
O1    C2    A    
C5    C13   A    
C42   C46   A    
C38   C39   A    
O5    V1    S    
C38   H26   S    
O8    C3    A    
C41   C48   A    
C27   C28   A    
C10   C12   A    
C54   H28   S    
C29   C30   A    
O7    V2    S    
O4    V1    S    
O3    V1    S    
V1    O10   S    
C35   C47   A    
C53   H32   S    
C30   H16   S    
O19   C52   A    
C35   C43   A    
C33   C34   S    
C49   O16   A    
C23   C24   A    
C26   H14   S    
C37   C38   A    
O18   C51   A    
C12   C13   A    
C5    C17   A    
C7    C8    A    
C41   C45   A    
C19   C26   S    
H2    C14   S    
