data_mof_unit_55335.cif
_audit_creation_date              2012-10-26T19:53:26-0400
_audit_creation_method            fapswitch 2.2
_symmetry_space_group_name_H-M    P1
_symmetry_Int_Tables_number       1
_space_group_crystal_system       triclinic
_cell_length_a                    9.087848
_cell_length_b                    7.797199
_cell_length_c                    10.659257
_cell_angle_alpha                 89.744804
_cell_angle_beta                  90.059555
_cell_angle_gamma                 90.047872
_cell_volume                      755.304224976

loop_
_atom_site_label
_atom_site_type_symbol
_atom_type_description
_atom_site_fract_x
_atom_site_fract_y
_atom_site_fract_z
_atom_type_partial_charge
C1    C     C_R   0.220073 0.499957 0.500010 0.568176
C2    C     C_3   0.622649 0.427075 0.041551 0.051546
C3    C     C_3   0.500082 0.498474 0.877494 -0.007730
C4    C     C_3   0.499902 0.501520 0.122504 -0.007744
C5    C     C_1   0.065391 0.499939 0.499997 -0.014899
C6    C     C_1   0.934608 0.500060 0.500003 -0.014895
C7    C     C_2   0.238608 0.651535 0.908753 0.601943
C8    C     C_2   0.761363 0.348424 0.091237 0.601948
C9    C     C_R   0.779926 0.500043 0.499991 0.568181
C10   C     C_R   0.499742 0.500469 0.258843 0.567612
C11   C     C_R   0.500253 0.499530 0.741156 0.567615
C12   C     C_3   0.493386 0.663963 0.040113 -0.120891
C13   C     C_3   0.506596 0.336031 0.959883 -0.120877
C14   C     C_3   0.617808 0.588285 0.957517 -0.144200
C15   C     C_3   0.382177 0.411706 0.042480 -0.144201
C16   C     C_3   0.377333 0.572917 0.958446 0.051545
Cu1   Cu    Cu3+1 0.500000 0.669080 0.500000 1.076011
Cu2   Cu    Cu3+1 0.500000 0.330920 0.500000 1.076014
H1    H     H_    0.487151 0.797770 0.074940 0.169933
H2    H     H_    0.512830 0.202222 0.925057 0.169940
H3    H     H_    0.714607 0.658908 0.920225 0.153978
H4    H     H_    0.285378 0.341092 0.079777 0.153971
H5    H     H_    0.053668 0.619723 0.806829 0.338288
H6    H     H_    0.946328 0.380190 0.193140 0.338292
N1    N     N_1   0.500000 0.076820 0.500000 -0.072394
N2    N     N_1   0.500000 0.923180 0.500000 -0.072394
O1    O     O_R   0.288390 0.642760 0.500000 -0.492808
O2    O     O_R   0.143585 0.553109 0.835235 -0.685756
O3    O     O_2   0.790701 0.199186 0.067353 -0.492824
O4    O     O_R   0.856408 0.446821 0.164758 -0.685753
O5    O     O_R   0.711610 0.357240 0.500000 -0.492803
O6    O     O_R   0.711610 0.642760 0.500000 -0.495097
O7    O     O_R   0.288390 0.357240 0.500000 -0.495095
O8    O     O_R   0.499960 0.642760 0.316850 -0.499318
O9    O     O_R   0.500040 0.357240 0.683150 -0.499317
O10   O     O_R   0.500040 0.642760 0.683150 -0.501593
O11   O     O_R   0.499960 0.357240 0.316850 -0.501593
O12   O     O_2   0.209254 0.800777 0.932611 -0.492813

loop_
_geom_bond_atom_site_label_1
_geom_bond_atom_site_label_2
_ccdc_geom_bond_type
C2    C4    S    
C7    O12   D    
Cu1   O10   S    
C4    C12   S    
Cu2   O9    S    
C3    C13   S    
C8    O4    S    
C7    O2    S    
C6    C9    S    
C11   O9    A    
Cu1   Cu2   S    
C1    O7    A    
C10   O8    A    
H5    O2    S    
C3    C14   S    
Cu2   N1    S    
C4    C15   S    
C10   O11   A    
C1    C5    S    
Cu1   N2    S    
C14   H3    S    
C11   O10   A    
Cu2   O11   S    
C12   C14   S    
C13   C15   S    
C5    C6    T    
C2    C14   S    
Cu2   O7    S    
H6    O4    S    
C3    C11   S    
Cu1   O8    S    
C8    O3    D    
C4    C10   S    
C15   C16   S    
Cu1   O1    S    
C12   H1    S    
Cu1   O6    S    
C1    O1    A    
C2    C13   S    
C9    O5    A    
C7    C16   S    
Cu2   O5    S    
C9    O6    A    
N1    N2    T    
C13   H2    S    
C15   H4    S    
C2    C8    S    
C3    C16   S    
C12   C16   S    
