data_mof_unit_18486.cif
_audit_creation_date              2012-12-11T21:12:39-0500
_audit_creation_method            fapswitch 2.2
_symmetry_space_group_name_H-M    P1
_symmetry_Int_Tables_number       1
_space_group_crystal_system       triclinic
_cell_length_a                    8.258184
_cell_length_b                    18.826267
_cell_length_c                    26.928071
_cell_angle_alpha                 99.54671
_cell_angle_beta                  92.659725
_cell_angle_gamma                 88.213097
_cell_volume                      4122.92792376

loop_
_atom_site_label
_atom_site_type_symbol
_atom_type_description
_atom_site_fract_x
_atom_site_fract_y
_atom_site_fract_z
_atom_type_partial_charge
Ba1   Ba    Ba6+2 0.160810 0.465630 0.521640 1.651941
Ba2   Ba    Ba6+2 0.649380 0.534380 0.478400 1.667788
C1    C     C_3   0.441883 0.287690 0.701219 -0.351385
C2    C     C_R   0.070149 0.096174 0.450999 -0.082391
C3    C     C_R   0.210756 0.953544 0.460812 -0.089807
C4    C     C_3   0.942436 0.280610 0.624427 0.343247
C5    C     C_R   0.059394 0.977916 0.480470 0.028785
C6    C     C_R   0.266766 0.882977 0.460170 -0.081168
C7    C     C_R   0.175344 0.833056 0.479325 -0.029902
C8    C     C_R   0.028818 0.856943 0.502854 0.031667
C9    C     C_R   0.971118 0.929814 0.503857 0.047012
C10   C     C_R   0.225779 0.759865 0.475554 -0.014587
C11   C     C_R   0.128713 0.711187 0.493719 -0.271647
C12   C     C_3   0.458473 0.306049 0.648894 0.293020
C13   C     C_R   0.987283 0.733596 0.518724 0.052609
C14   C     C_R   0.938984 0.807785 0.524837 -0.020212
C15   C     C_R   0.849040 0.072606 0.501860 0.026192
C16   C     C_3   0.927475 0.207430 0.640377 -0.367247
C17   C     C_R   0.788794 0.144804 0.501414 0.002348
C18   C     C_R   0.875429 0.193110 0.477684 -0.038070
C19   C     C_R   0.010497 0.166004 0.450398 -0.021706
C20   C     C_R   0.804223 0.834643 0.552365 -0.025780
C21   C     C_R   0.747809 0.905304 0.553501 -0.085281
C22   C     C_R   0.824596 0.953544 0.527609 0.024569
C23   C     C_3   0.466963 0.314188 0.395573 0.304135
C24   C     C_R   0.761640 0.024757 0.525769 0.024417
C25   C     C_R   0.610762 0.049296 0.545735 -0.098901
C26   C     C_R   0.640940 0.168418 0.524214 -0.031980
C27   C     C_R   0.552399 0.119189 0.544982 -0.094126
C28   C     C_3   0.816781 0.635185 0.634913 0.286784
C29   C     C_R   0.585725 0.240584 0.525393 -0.005326
C30   C     C_R   0.679557 0.288711 0.505500 -0.295645
C31   C     C_R   0.822799 0.266570 0.481458 0.042626
C32   C     C_R   0.313808 0.455819 0.173977 0.589616
C33   C     C_R   0.197817 0.574534 0.175491 0.580987
C34   C     C_3   0.465629 0.232989 0.378941 -0.383172
C35   C     C_2   0.047149 0.536413 0.268705 -0.106628
C36   C     C_3   0.009737 0.529114 0.322165 -0.055641
C37   C     C_1   0.288585 0.496137 0.336392 0.018934
C38   C     C_2   0.326591 0.498399 0.289445 -0.102249
C39   C     C_2   0.198681 0.518586 0.252263 0.208546
C40   C     C_3   0.748877 0.670758 0.684928 -0.327040
C41   C     C_R   0.319540 0.512335 0.098803 -0.080487
C42   C     C_R   0.359100 0.453694 0.123866 -0.033421
C43   C     C_R   0.442542 0.393814 0.098332 -0.060268
C44   C     C_R   0.236524 0.572774 0.124758 -0.026574
C45   C     C_3   0.919999 0.719669 0.353463 0.498238
C46   C     C_2   0.160302 0.531242 0.355773 -0.287034
C47   C     C_2   0.658551 0.478450 0.639019 -0.290573
C48   C     C_R   0.497098 0.448734 0.972099 0.020778
C49   C     C_R   0.358743 0.566771 0.971301 0.020295
C50   C     C_R   0.449347 0.506797 0.946498 0.050686
C51   C     C_R   0.591125 0.391451 0.946056 -0.099836
C52   C     C_3   0.979523 0.372713 0.366681 0.296335
C53   C     C_R   0.632823 0.390268 0.896511 -0.059682
C54   C     C_R   0.584033 0.446286 0.870544 -0.028960
C55   C     C_R   0.492943 0.504896 0.895489 -0.079657
C56   C     C_3   0.011385 0.738892 0.310088 -0.352789
C57   C     C_R   0.446035 0.561741 0.869481 -0.038016
C58   C     C_R   0.491067 0.559431 0.819298 0.604211
C59   C     C_R   0.624677 0.444689 0.820026 0.579629
C60   C     C_2   0.770679 0.484873 0.727259 -0.065934
C61   C     C_3   0.809993 0.486160 0.673066 -0.048936
C62   C     C_1   0.524524 0.511378 0.656148 0.031191
C63   C     C_2   0.486845 0.511561 0.703531 -0.107284
C64   C     C_3   0.007961 0.345804 0.311160 -0.363509
C65   C     C_2   0.616399 0.498099 0.742233 0.194922
C66   C     C_R   0.450427 0.449804 0.022606 0.020657
C67   C     C_3   0.400508 0.686317 0.350022 0.376391
C68   C     C_R   0.362801 0.510467 0.047776 0.049379
C69   C     C_R   0.317956 0.569270 0.022539 0.020619
C70   C     C_R   0.487624 0.391862 0.049041 -0.099671
C71   C     C_R   0.194843 0.630597 0.099673 -0.059611
C72   C     C_R   0.312008 0.622406 0.943661 -0.100244
C73   C     C_R   0.355141 0.619918 0.894100 -0.053196
C74   C     C_R   0.233831 0.628908 0.049808 -0.099813
C75   C     C_3   0.258802 0.687085 0.635781 0.454431
C76   C     C_3   0.262527 0.764389 0.625853 -0.369935
C77   C     C_3   0.424354 0.704611 0.297833 -0.321846
C78   C     C_R   0.995639 0.048839 0.478158 0.015820
H1    H     H_    0.411758 0.362055 0.649313 0.075649
H2    H     H_    0.163054 0.659827 0.610526 0.043662
H3    H     H_    0.312539 0.291578 0.711115 0.138268
H4    H     H_    0.346534 0.796488 0.653607 0.137745
H5    H     H_    0.139113 0.789726 0.628522 0.097757
H6    H     H_    0.305683 0.764904 0.587425 0.079453
H7    H     H_    0.588850 0.302442 0.640161 -0.016321
H8    H     H_    0.511776 0.326029 0.729161 0.136093
H9    H     H_    0.594353 0.330505 0.404573 0.022950
H10   H     H_    0.395247 0.327328 0.429941 0.056685
H11   H     H_    0.538516 0.217545 0.345021 0.136435
H12   H     H_    0.656085 0.712526 0.678465 0.156776
H13   H     H_    0.518406 0.205594 0.409633 0.058132
H14   H     H_    0.339148 0.215109 0.369994 0.117634
H15   H     H_    0.489390 0.232181 0.702512 0.121105
H16   H     H_    0.926092 0.164598 0.606655 0.076563
H17   H     H_    0.005678 0.700924 0.381978 -0.054929
H18   H     H_    0.925700 0.758887 0.282213 0.155531
H19   H     H_    0.099053 0.781620 0.324668 0.097998
H20   H     H_    0.076361 0.690523 0.290850 0.131370
H21   H     H_    0.272978 0.671568 0.352888 -0.100055
H22   H     H_    0.479991 0.639403 0.354528 0.110060
H23   H     H_    0.692735 0.630641 0.703985 0.085441
H24   H     H_    0.390964 0.658020 0.268604 0.091936
H25   H     H_    0.552371 0.717484 0.293635 0.172904
H26   H     H_    0.057330 0.280538 0.604623 0.109644
H27   H     H_    0.348739 0.752210 0.291607 0.122173
H28   H     H_    0.167437 0.655203 0.490123 0.074107
H29   H     H_    0.382839 0.868249 0.444034 0.134615
H30   H     H_    0.073048 0.198293 0.428136 0.095560
H31   H     H_    0.738749 0.801461 0.573231 0.105958
H32   H     H_    0.436061 0.133795 0.560961 0.113705
H33   H     H_    0.637921 0.344135 0.507517 0.070961
H34   H     H_    0.846817 0.697051 0.710306 0.149816
H35   H     H_    0.291009 0.988138 0.446009 0.077764
H36   H     H_    0.174125 0.080475 0.428664 0.063948
H37   H     H_    0.643374 0.920518 0.575688 0.058918
H38   H     H_    0.838340 0.288803 0.598314 -0.034309
H39   H     H_    0.532041 0.015323 0.561662 0.070544
H40   H     H_    0.448787 0.484671 0.277522 0.127255
H41   H     H_    0.474408 0.347803 0.116576 0.124188
H42   H     H_    0.868764 0.478425 0.754535 0.111027
H43   H     H_    0.704449 0.344803 0.878539 0.123765
H44   H     H_    0.636609 0.346412 0.962860 0.070452
H45   H     H_    0.094938 0.391736 0.385883 0.020493
H46   H     H_    0.550248 0.343218 0.032720 0.070864
H47   H     H_    0.949399 0.548171 0.242720 0.110054
H48   H     H_    0.130943 0.677873 0.118584 0.123186
H49   H     H_    0.240600 0.669004 0.958922 0.073079
H50   H     H_    0.032293 0.197138 0.665807 0.135476
H51   H     H_    0.316025 0.664176 0.874949 0.137591
H52   H     H_    0.362678 0.521609 0.714632 0.146397
H53   H     H_    0.197125 0.676118 0.034069 0.071418
H54   H     H_    0.165182 0.562477 0.393509 0.064729
H55   H     H_    0.661578 0.449762 0.600585 0.073550
H56   H     H_    0.888756 0.417735 0.370118 0.050928
H57   H     H_    0.813270 0.205720 0.660326 0.123158
H58   H     H_    0.718352 0.606953 0.611021 0.045534
H59   H     H_    0.915526 0.596439 0.641794 0.028994
H60   H     H_    0.092336 0.298331 0.307327 0.148285
H61   H     H_    0.062004 0.387807 0.293391 0.076376
H62   H     H_    0.891314 0.329887 0.290853 0.122209
I1    I     I_    0.212947 0.689190 0.713814 -0.453621
I2    I     I_    0.801137 0.816093 0.388488 -0.437774
N1    N     N_R   0.236429 0.516351 0.199689 -0.424771
N2    N     N_R   0.577179 0.500743 0.794705 -0.427252
O1    O     O_2   0.106080 0.324280 0.466820 -0.469697
O2    O     O_2   0.683299 0.546610 0.330405 -0.499170
O3    O     O_3   0.800125 0.670322 0.333683 -0.592922
O4    O     O_3   0.859130 0.413620 0.470620 -0.482893
O5    O     O_3   0.459240 0.537930 0.559910 -0.457011
O6    O     O_2   0.583120 0.462390 0.379940 -0.453736
O7    O     O_3   0.399383 0.348172 0.356490 -0.630875
O8    O     O_2   0.563973 0.756418 0.478281 -0.451584
O9    O     O_3   0.440726 0.745644 0.386830 -0.574752
O10   O     O_2   0.341615 0.403230 0.194564 -0.595925
O11   O     O_2   0.701336 0.392991 0.798457 -0.600779
O12   O     O_3   0.409557 0.653661 0.624781 -0.633645
O13   O     O_2   0.131390 0.628315 0.198272 -0.617803
O14   O     O_2   0.455633 0.610336 0.797718 -0.566718
O15   O     O_3   0.376230 0.370290 0.556910 -0.481449
O16   O     O_2   0.246211 0.243615 0.522334 -0.492550
O17   O     O_3   0.921365 0.315416 0.387034 -0.642235
O18   O     O_3   0.367993 0.257495 0.614009 -0.609473
O19   O     O_2   0.227190 0.537650 0.620070 -0.485769
O20   O     O_3   0.971110 0.406970 0.583250 -0.489661
O21   O     O_2   0.139684 0.439957 0.669596 -0.490077
O22   O     O_3   0.941363 0.334522 0.667245 -0.592291
O23   O     O_2   0.704230 0.675760 0.533200 -0.441357
O24   O     O_3   0.951180 0.586390 0.529420 -0.490780
O25   O     O_3   0.434080 0.629720 0.443130 -0.485173
O26   O     O_3   0.882558 0.688751 0.612754 -0.653107
O27   O     O_3   0.351080 0.462080 0.440130 -0.478775
O28   O     O_3   0.839200 0.593040 0.416790 -0.459021
P1    P     P_3+3 0.929380 0.335110 0.452880 0.977663
P2    P     P_3+3 0.398530 0.559060 0.613740 1.010745
P3    P     P_3+3 0.967307 0.418375 0.648798 0.978921
P4    P     P_3+3 0.880940 0.664900 0.547160 0.984733
P5    P     P_3+3 0.839414 0.585696 0.350992 0.960380
P6    P     P_3+3 0.394279 0.277142 0.553704 0.928670
P7    P     P_3+3 0.400266 0.441491 0.376695 0.959890
P8    P     P_3+3 0.416141 0.723144 0.446609 0.988755

loop_
_geom_bond_atom_site_label_1
_geom_bond_atom_site_label_2
_ccdc_geom_bond_type
Ba2   O4    S    
C53   C54   A    
Ba1   P2    S    
C47   C61   S    
C25   C27   A    
C16   H16   S    
Ba1   O24   S    
C27   H32   S    
C17   C18   A    
C56   H18   S    
C49   C72   A    
C41   C42   A    
O17   P1    S    
C40   H23   S    
C19   H30   S    
O9    P8    S    
C64   H61   S    
C67   H22   S    
O19   P2    D    
C5    C9    A    
Ba1   O27   S    
C24   C25   A    
C67   O9    S    
C58   N2    Am   
C60   C65   D    
O24   P4    S    
C28   H58   S    
C15   C24   A    
Ba1   O20   S    
C46   H54   S    
C26   C27   A    
C22   C24   A    
C12   H7    S    
C2    C78   A    
Ba2   O27   S    
C69   C74   A    
C32   N1    Am   
O1    P1    D    
C25   H39   S    
C55   C57   A    
C13   C14   A    
C9    C22   A    
O3    P5    S    
C54   C55   A    
C77   H25   S    
Ba1   Ba2   S    
C33   N1    Am   
O25   P8    S    
C34   H13   S    
C40   H34   S    
C10   P8    S    
C45   O3    S    
C6    C7    A    
C63   C65   S    
C48   C50   A    
C21   C22   A    
C68   C69   A    
O5    P2    S    
C52   O17   S    
C62   P2    S    
C7    C8    A    
O16   P6    D    
O18   P6    S    
C75   O12   S    
C76   H6    S    
O4    P1    S    
C47   H55   S    
Ba1   O15   S    
C57   C58   A    
C47   C62   D    
C3    H35   S    
C43   C70   A    
C12   O18   S    
C49   C69   A    
C65   N2    S    
C11   H28   S    
C41   C44   A    
C73   H51   S    
C4    O22   S    
C51   C53   A    
Ba2   O6    S    
C4    C16   S    
C52   H45   S    
C53   H43   S    
C48   C51   A    
C72   C73   A    
C23   O7    S    
C49   C50   A    
C56   H20   S    
C8    C9    A    
C37   C38   D    
C3    C5    A    
Ba2   O23   S    
C43   H41   S    
C75   C76   S    
C45   I2    S    
C15   C78   A    
C70   H46   S    
C16   H57   S    
C59   N2    Am   
C75   I1    S    
C35   C36   S    
C59   O11   D    
C29   C30   A    
Ba1   O19   S    
C66   C70   A    
C52   H56   S    
C60   C61   S    
C4    H26   S    
C77   H27   S    
Ba1   O4    S    
O20   P3    S    
C10   C11   A    
O15   P6    S    
C17   C26   A    
C28   O26   S    
C37   P7    S    
C1    C12   S    
Ba2   O24   S    
C52   C64   S    
C18   C31   A    
C76   H5    S    
O12   P2    S    
C38   C39   S    
C38   H40   S    
C64   H60   S    
O7    P7    S    
C13   P4    S    
C41   C68   A    
C67   H21   S    
C11   C13   A    
C1    H3    S    
C30   H33   S    
C71   C74   A    
C77   H24   S    
Ba1   O1    S    
C57   C73   A    
O23   P4    D    
C60   H42   S    
C63   H52   S    
C5    C78   A    
C42   C43   A    
C34   H11   S    
O26   P4    S    
Ba2   O5    S    
C32   C42   A    
C28   H59   S    
Ba1   P1    S    
C14   C20   A    
C36   P5    S    
O21   P3    D    
C1    H8    S    
C54   C59   A    
C36   C46   S    
C2    H36   S    
C26   C29   A    
C23   H10   S    
C56   H19   S    
C58   O14   D    
C51   H44   S    
C61   P3    S    
C21   H37   S    
C3    C6    A    
C74   H53   S    
C64   H62   S    
C32   O10   D    
O2    P5    D    
C71   H48   S    
Ba2   O25   S    
C23   H9    S    
C45   H17   S    
C16   H50   S    
C29   P6    S    
C62   C63   D    
C8    C14   A    
C6    H29   S    
C30   C31   A    
C45   C56   S    
C2    C19   A    
C75   H2    S    
O8    P8    D    
C15   C17   A    
Ba1   O5    S    
C40   H12   S    
C35   C39   D    
C31   P1    S    
C7    C10   A    
C33   O13   D    
C76   H4    S    
C67   C77   S    
C50   C55   A    
C23   C34   S    
O27   P7    S    
C34   H14   S    
C39   N1    S    
C18   C19   A    
C66   C68   A    
C20   H31   S    
C72   H49   S    
C20   C21   A    
C28   C40   S    
C1    H15   S    
Ba2   P4    S    
C12   H1    S    
O6    P7    D    
C33   C44   A    
C48   C66   A    
O28   P5    S    
C4    H38   S    
C44   C71   A    
Ba2   O28   S    
O22   P3    S    
C37   C46   D    
C35   H47   S    
