data_mof_unit_52235.cif
_audit_creation_date              2012-10-26T21:02:36-0400
_audit_creation_method            fapswitch 2.2
_symmetry_space_group_name_H-M    P1
_symmetry_Int_Tables_number       1
_space_group_crystal_system       triclinic
_cell_length_a                    12.429151
_cell_length_b                    13.126699
_cell_length_c                    15.019081
_cell_angle_alpha                 75.896362
_cell_angle_beta                  100.829573
_cell_angle_gamma                 116.606648
_cell_volume                      2116.1017072

loop_
_atom_site_label
_atom_site_type_symbol
_atom_type_description
_atom_site_fract_x
_atom_site_fract_y
_atom_site_fract_z
_atom_type_partial_charge
C1    C     C_R   0.854812 0.285231 0.514077 0.527018
C2    C     C_R   0.055611 0.442935 0.834909 -0.144549
C3    C     C_R   0.007718 0.509074 0.766881 -0.023206
C4    C     C_R   0.002050 0.502997 0.670561 0.552708
C5    C     C_R   0.964935 0.579956 0.790823 -0.152434
C6    C     C_R   0.292889 0.023121 0.365701 -0.131981
C7    C     C_R   0.228331 0.837212 0.468066 0.000568
C8    C     C_R   0.797619 0.087118 0.615020 0.017069
C9    C     C_R   0.704131 0.983846 0.653392 0.155785
C10   C     C_R   0.586707 0.950447 0.611575 -0.129751
C11   C     C_R   0.557902 0.015569 0.529138 -0.002532
C12   C     C_R   0.958888 0.574999 0.071366 -0.002514
C13   C     C_R   0.651100 0.120821 0.490436 -0.003405
C14   C     C_R   0.437921 0.980469 0.485373 0.032289
C15   C     C_R   0.411461 0.054375 0.407334 0.051785
C16   C     C_R   0.144764 0.714028 0.485916 0.534631
C17   C     C_R   0.504466 0.155493 0.368580 -0.137452
C18   C     C_R   0.622853 0.185349 0.406903 -0.112839
C19   C     C_R   0.344290 0.871514 0.513969 -0.133336
C20   C     C_R   0.201782 0.915118 0.396061 -0.139102
C21   C     C_R   0.770111 0.160343 0.536196 -0.036067
C22   C     C_R   0.311927 0.287939 0.609499 -0.153729
C23   C     C_R   0.103425 0.375332 0.088375 -0.140769
C24   C     C_R   0.761477 0.655269 0.378147 0.132620
C25   C     C_R   0.663638 0.683733 0.349395 -0.126928
C26   C     C_R   0.553881 0.617778 0.385533 0.113409
C27   C     C_R   0.543136 0.525637 0.460184 -0.018214
C28   C     C_R   0.000715 0.500694 0.329017 0.537122
C29   C     C_R   0.644173 0.494143 0.488602 0.155996
C30   C     C_R   0.434792 0.462322 0.507419 -0.009467
C31   C     C_R   0.414091 0.351956 0.560342 -0.002292
C32   C     C_R   0.501297 0.310865 0.572026 -0.146362
C33   C     C_R   0.620074 0.388560 0.555174 0.167106
C34   C     C_R   0.104175 0.376583 0.995565 -0.136957
C35   C     C_R   0.346766 0.504158 0.506567 0.063029
C36   C     C_R   0.230325 0.334142 0.606346 0.040355
C37   C     C_R   0.955637 0.570630 0.164512 -0.141733
C38   C     C_R   0.002647 0.502973 0.232024 -0.010461
C39   C     C_R   0.052259 0.438341 0.206769 -0.150221
C40   C     C_R   0.055039 0.440794 0.113979 0.010260
C41   C     C_R   0.008156 0.509499 0.045797 0.054718
C42   C     C_3   0.924835 0.119370 0.660073 -0.372538
C43   C     C_3   0.720095 0.953947 0.818922 -0.324678
C44   C     C_3   0.868853 0.733232 0.323811 -0.338056
C45   C     C_R   0.057313 0.443936 0.927456 0.010902
C46   C     C_3   0.377799 0.559005 0.276458 -0.303888
C47   C     C_3   0.702606 0.392369 0.712489 -0.298575
C48   C     C_3   0.865416 0.723549 0.839807 -0.405686
C49   C     C_R   0.009853 0.511877 0.952236 0.045452
C50   C     C_R   0.963415 0.581109 0.883665 0.021402
C51   C     C_R   0.915609 0.648165 0.909946 -0.004315
C52   C     C_R   0.913625 0.643851 0.003820 -0.117318
Cu1   Cu    Cu3+1 0.098270 0.475420 0.521130 0.922695
Cu2   Cu    Cu3+1 0.901730 0.524580 0.478870 0.944516
H1    H     H_    0.918006 0.621113 0.184470 0.110847
H2    H     H_    0.087723 0.385404 0.259344 0.121437
H3    H     H_    0.357022 0.589265 0.471239 0.173382
H4    H     H_    0.670649 0.755437 0.292880 0.100812
H5    H     H_    0.139868 0.322600 0.140116 0.101166
H6    H     H_    0.140945 0.324501 0.977000 0.102449
H7    H     H_    0.089253 0.388616 0.815830 0.116434
H8    H     H_    0.931331 0.632308 0.736334 0.128478
H9    H     H_    0.876388 0.694255 0.024487 0.100540
H10   H     H_    0.113619 0.889779 0.358638 0.104952
H11   H     H_    0.934365 0.051764 0.717483 0.153967
H12   H     H_    0.486219 0.209904 0.306354 0.102874
H13   H     H_    0.983957 0.130807 0.608161 0.135945
H14   H     H_    0.955590 0.199470 0.688547 0.124481
H15   H     H_    0.674632 0.827629 0.741443 0.244965
H16   H     H_    0.627271 0.944709 0.821436 0.139762
H17   H     H_    0.785180 0.045913 0.818304 0.154020
H18   H     H_    0.743651 0.900481 0.881996 0.130479
H19   H     H_    0.908102 0.820408 0.342458 0.098352
H20   H     H_    0.940036 0.704851 0.329879 0.189421
H21   H     H_    0.838638 0.742529 0.248919 0.070025
H22   H     H_    0.472884 0.723401 0.308323 0.249000
H23   H     H_    0.271900 0.079902 0.306675 0.099995
H24   H     H_    0.430637 0.567721 0.220803 0.138908
H25   H     H_    0.300277 0.579815 0.244626 0.156076
H26   H     H_    0.341955 0.468128 0.314362 0.160143
H27   H     H_    0.702051 0.287018 0.632120 0.240252
H28   H     H_    0.769918 0.371752 0.763843 0.140906
H29   H     H_    0.612839 0.336446 0.739107 0.116061
H30   H     H_    0.721120 0.484644 0.706473 0.157769
H31   H     H_    0.936823 0.789873 0.795647 0.138437
H32   H     H_    0.788142 0.669460 0.796285 0.123291
H33   H     H_    0.832539 0.769617 0.873235 0.135027
H34   H     H_    0.360427 0.807618 0.567877 0.115554
H35   H     H_    0.519156 0.874266 0.648000 0.099844
H36   H     H_    0.692038 0.259905 0.369739 0.143843
H37   H     H_    0.152718 0.286193 0.644991 0.110074
H38   H     H_    0.485432 0.227317 0.615976 0.110070
H39   H     H_    0.296949 0.204068 0.652201 0.089427
N1    N     N_R   0.246280 0.438190 0.553160 -0.244615
N2    N     N_R   0.754320 0.561190 0.447410 -0.216864
N3    N     N_2   0.725864 0.915516 0.738132 -0.529968
N4    N     N_2   0.452610 0.638108 0.338509 -0.544190
N5    N     N_2   0.707636 0.369591 0.623743 -0.434422
O1    O     O_R   0.972510 0.318130 0.526570 -0.504219
O2    O     O_R   0.806530 0.359650 0.490890 -0.485033
O3    O     O_R   0.082980 0.479210 0.647590 -0.508986
O4    O     O_R   0.917000 0.520730 0.611900 -0.459179
O5    O     O_R   0.193470 0.640350 0.509110 -0.508996
O6    O     O_R   0.027490 0.681870 0.473430 -0.515304
O7    O     O_R   0.083000 0.479270 0.388100 -0.494728
O8    O     O_R   0.917020 0.520790 0.352410 -0.523039

loop_
_geom_bond_atom_site_label_1
_geom_bond_atom_site_label_2
_ccdc_geom_bond_type
C34   H6    S    
C1    C21   S    
C43   H18   S    
C27   C29   A    
H15   N3    S    
C1    O1    A    
C32   H38   S    
Cu1   Cu2   S    
Cu1   O1    S    
C23   H5    S    
C26   C27   A    
C37   C38   A    
C47   N5    S    
C13   C18   A    
Cu2   O6    S    
C8    C42   S    
C30   C31   A    
C11   C14   A    
H27   N5    S    
C23   C40   A    
C29   C33   A    
C33   N5    S    
C47   H28   S    
C12   C37   A    
C6    C15   A    
C16   O6    A    
C48   C51   S    
C46   H25   S    
C39   H2    S    
C10   H35   S    
C28   O8    A    
C8    C9    A    
C4    O4    A    
C42   H11   S    
C45   C49   A    
C9    C10   A    
C2    H7    S    
C27   C30   A    
C42   H14   S    
Cu2   O2    S    
C1    O2    A    
C41   C49   A    
C12   C52   A    
C17   C18   A    
C2    C45   A    
C22   C31   A    
Cu2   O8    S    
C51   C52   A    
C18   H36   S    
C24   C25   A    
C19   H34   S    
C24   N2    A    
Cu1   O3    S    
C39   C40   A    
C46   H24   S    
C6    H23   S    
C50   C51   A    
H22   N4    S    
C20   H10   S    
C44   H21   S    
C12   C41   A    
Cu1   O7    S    
C16   O5    A    
C31   C32   A    
C28   C38   S    
C28   O7    A    
C23   C34   A    
C4    O3    A    
C43   N3    S    
C17   H12   S    
C48   H33   S    
C13   C21   A    
C34   C45   A    
C47   H30   S    
C44   H20   S    
C9    N3    S    
Cu2   N2    S    
C30   C35   A    
C36   H37   S    
C7    C16   S    
C46   N4    S    
C49   C50   A    
C43   H16   S    
C7    C19   A    
C42   H13   S    
C24   C44   S    
C22   H39   S    
C48   H32   S    
C5    C50   A    
C25   H4    S    
C3    C4    S    
C6    C20   A    
C29   N2    A    
C35   N1    A    
C15   C17   A    
C40   C41   A    
C43   H17   S    
Cu1   N1    S    
C14   C15   A    
C14   C19   A    
Cu2   O4    S    
C3    C5    A    
C52   H9    S    
C8    C21   A    
C22   C36   A    
C35   H3    S    
C32   C33   A    
C2    C3    A    
C25   C26   A    
C46   H26   S    
C11   C13   A    
C38   C39   A    
Cu1   O5    S    
C5    H8    S    
C44   H19   S    
C10   C11   A    
C26   N4    S    
C47   H29   S    
C37   H1    S    
C36   N1    A    
C7    C20   A    
C48   H31   S    
