data_mof_unit_60502.cif
_audit_creation_date              2012-12-10T17:20:40-0500
_audit_creation_method            fapswitch 2.2
_symmetry_space_group_name_H-M    P1
_symmetry_Int_Tables_number       1
_space_group_crystal_system       triclinic
_cell_length_a                    10.168935
_cell_length_b                    10.661415
_cell_length_c                    13.654488
_cell_angle_alpha                 91.729886
_cell_angle_beta                  75.342548
_cell_angle_gamma                 95.111557
_cell_volume                      1426.43729672

loop_
_atom_site_label
_atom_site_type_symbol
_atom_type_description
_atom_site_fract_x
_atom_site_fract_y
_atom_site_fract_z
_atom_type_partial_charge
C1    C     C_R   0.555474 0.733636 0.498833 0.834944
C2    C     C_2   0.073906 0.488653 0.491568 -0.070045
C3    C     C_1   0.448673 0.507437 0.881920 0.057799
C4    C     C_1   0.551300 0.492464 0.118075 0.052092
C5    C     C_2   0.583166 0.867597 0.513455 0.326001
C6    C     C_2   0.410508 0.133649 0.533110 0.329107
C7    C     C_2   0.482416 0.934081 0.567027 0.461013
C8    C     C_2   0.499565 0.069511 0.565041 0.463706
C9    C     C_R   0.443106 0.266631 0.511602 0.833103
C10   C     C_R   0.477283 0.503406 0.688098 0.892613
C11   C     C_R   0.522716 0.496595 0.311910 0.902256
C12   C     C_1   0.539119 0.494215 0.206837 -0.121608
C13   C     C_1   0.460868 0.505736 0.793160 -0.104085
C14   C     C_2   0.556668 0.491726 0.013873 0.490539
C15   C     C_2   0.443291 0.508128 0.986121 0.486646
C16   C     C_2   0.926058 0.511288 0.508493 -0.051999
F1    F     F_    0.323433 0.525389 0.055057 -0.636472
F2    F     F_    0.676527 0.474470 0.944935 -0.632598
F3    F     F_    0.614498 0.127113 0.586262 -0.608113
F4    F     F_    0.357914 0.878401 0.615574 -0.615563
F5    F     F_    0.293633 0.075168 0.516092 -0.597958
F6    F     F_    0.708503 0.924380 0.468805 -0.599222
H1    H     H_    0.109047 0.618809 0.590829 0.215911
H2    H     H_    0.890983 0.381231 0.409146 0.202939
H3    H     H_    0.116337 0.417322 0.437212 0.181758
H4    H     H_    0.883605 0.582581 0.562880 0.177212
N1    N     N_2   0.847200 0.448220 0.460120 -0.164796
N2    N     N_2   0.152800 0.551780 0.539880 -0.167998
O1    O     O_R   0.430150 0.692610 0.508030 -0.561835
O2    O     O_R   0.569850 0.307390 0.491970 -0.563474
O3    O     O_R   0.653100 0.659360 0.482430 -0.581100
O4    O     O_R   0.346900 0.340640 0.517570 -0.579129
O5    O     O_R   0.372470 0.518990 0.654990 -0.587830
O6    O     O_R   0.627530 0.481010 0.345010 -0.595337
O7    O     O_R   0.595430 0.485740 0.629390 -0.589553
O8    O     O_R   0.404570 0.514260 0.370610 -0.597701
Zn1   Zn    Zn3+2 0.351130 0.522200 0.517090 1.060279
Zn2   Zn    Zn3+2 0.648870 0.477800 0.482910 1.058499

loop_
_geom_bond_atom_site_label_1
_geom_bond_atom_site_label_2
_ccdc_geom_bond_type
C6    C8    D    
C11   C12   S    
O3    Zn2   S    
C10   O7    A    
C2    H3    S    
C2    C16   S    
C14   F2    S    
C3    C13   T    
H2    N1    S    
C16   N1    D    
C1    O1    A    
C7    C8    S    
O6    Zn2   S    
O4    Zn1   S    
C16   H4    S    
C9    O2    A    
C6    C9    S    
C1    C5    S    
N2    Zn1   S    
C11   O8    A    
C10   O5    A    
C4    C14   S    
C8    F3    S    
C4    C12   T    
N1    Zn2   S    
C1    O3    A    
O7    Zn2   S    
C3    C15   S    
O2    Zn2   S    
C5    C7    D    
C7    F4    S    
O1    Zn1   S    
C15   F1    S    
C14   C15   D    
O8    Zn1   S    
C2    N2    D    
C9    O4    A    
H1    N2    S    
C6    F5    S    
C11   O6    A    
O5    Zn1   S    
C5    F6    S    
C10   C13   S    
