data_mof_unit_53956.cif
_audit_creation_date              2012-12-11T14:23:01-0500
_audit_creation_method            fapswitch 2.2
_symmetry_space_group_name_H-M    P1
_symmetry_Int_Tables_number       1
_space_group_crystal_system       triclinic
_cell_length_a                    10.963402
_cell_length_b                    11.025542
_cell_length_c                    18.830469
_cell_angle_alpha                 89.813304
_cell_angle_beta                  89.647761
_cell_angle_gamma                 60.417764
_cell_volume                      1979.43716274

loop_
_atom_site_label
_atom_site_type_symbol
_atom_type_description
_atom_site_fract_x
_atom_site_fract_y
_atom_site_fract_z
_atom_type_partial_charge
C1    C     C_R   0.232563 0.645930 0.608518 0.564693
C2    C     C_3   0.725619 0.529102 0.798827 -0.239279
C3    C     C_3   0.701682 0.676684 0.812075 0.013384
C4    C     C_3   0.668929 0.645625 0.677342 0.023999
C5    C     C_3   0.798990 0.665507 0.687515 -0.130541
C6    C     C_3   0.695682 0.513580 0.721133 -0.130565
C7    C     C_R   0.699011 0.134066 0.817798 -0.000990
C8    C     C_R   0.801365 0.152691 0.779640 -0.002358
C9    C     C_R   0.801066 0.145280 0.703704 0.017486
C10   C     C_R   0.594185 0.121054 0.706431 -0.125652
C11   C     C_R   0.600748 0.115014 0.778687 -0.147013
C12   C     C_R   0.651922 0.619075 0.602024 0.565378
C13   C     C_R   0.902699 0.179955 0.811724 -0.017726
C14   C     C_R   0.011220 0.174915 0.770441 -0.155612
C15   C     C_R   0.019893 0.149364 0.698077 -0.174621
C16   C     C_R   0.915082 0.136200 0.664677 -0.107064
C17   C     C_R   0.685167 0.149130 0.668473 0.044044
C18   C     C_R   0.157056 0.683378 0.829552 0.020268
C19   C     C_R   0.198522 0.553383 0.797699 0.010290
C20   C     C_R   0.191670 0.544892 0.722811 0.036785
C21   C     C_R   0.133986 0.787884 0.714129 -0.156742
C22   C     C_R   0.122114 0.799803 0.786789 -0.133499
C23   C     C_R   0.632501 0.221660 0.600404 0.588185
C24   C     C_R   0.243291 0.432641 0.839381 -0.069861
C25   C     C_R   0.258824 0.310856 0.810285 -0.018084
C26   C     C_R   0.241540 0.303860 0.737361 -0.150258
C27   C     C_R   0.208149 0.419158 0.693910 -0.089152
C28   C     C_R   0.173415 0.661261 0.680743 0.014596
C29   C     C_R   0.653516 0.676247 0.169262 -0.021477
C30   C     C_R   0.717223 0.542303 0.198950 0.016673
C31   C     C_R   0.750367 0.528478 0.271458 0.020175
C32   C     C_R   0.600368 0.779159 0.287712 -0.038734
C33   C     C_R   0.600774 0.793739 0.214129 -0.155129
C34   C     C_R   0.219845 0.652964 0.401722 0.539224
C35   C     C_R   0.771639 0.422355 0.155426 -0.071152
C36   C     C_R   0.885288 0.298716 0.178006 -0.107184
C37   C     C_R   0.933714 0.288815 0.246704 -0.157704
C38   C     C_R   0.867759 0.401021 0.293199 -0.097584
C39   C     C_R   0.670848 0.645478 0.317456 -0.011646
C40   C     C_R   0.644646 0.178038 0.170518 -0.003757
C41   C     C_R   0.505626 0.258686 0.195023 0.002295
C42   C     C_R   0.483078 0.272467 0.269030 0.016867
C43   C     C_R   0.735210 0.168290 0.287684 -0.131201
C44   C     C_R   0.757066 0.127813 0.217997 -0.152941
C45   C     C_R   0.645037 0.620765 0.391893 0.547908
C46   C     C_R   0.387996 0.310600 0.149122 0.017611
C47   C     C_R   0.262372 0.325074 0.174810 -0.117889
C48   C     C_R   0.246182 0.313876 0.247219 -0.162828
C49   C     C_R   0.348705 0.302813 0.294149 -0.085290
C50   C     C_R   0.599196 0.244414 0.313856 0.027117
C51   C     C_R   0.142422 0.673341 0.184699 0.002081
C52   C     C_R   0.212123 0.739334 0.213970 0.018773
C53   C     C_R   0.190268 0.773495 0.285873 0.037300
C54   C     C_R   0.092644 0.619271 0.302480 -0.162161
C55   C     C_R   0.074661 0.622237 0.229447 -0.144935
C56   C     C_R   0.581674 0.288481 0.387552 0.560257
C57   C     C_R   0.280789 0.793296 0.171164 -0.078552
C58   C     C_R   0.292504 0.906372 0.194487 -0.116282
C59   C     C_R   0.251023 0.956111 0.262973 -0.141576
C60   C     C_R   0.200100 0.891239 0.308484 -0.081378
C61   C     C_R   0.156632 0.689530 0.331227 0.007055
C62   C     C_R   0.704968 0.097492 0.894131 0.545591
C63   C     C_R   0.726676 0.690349 0.887554 0.551193
C64   C     C_R   0.112623 0.710122 0.904026 0.553069
C65   C     C_R   0.674540 0.109334 0.102490 0.550252
C66   C     C_R   0.694912 0.690945 0.097297 0.535027
C67   C     C_3   0.552061 0.788593 0.787989 -0.116190
C68   C     C_R   0.092370 0.709132 0.112686 0.541472
C69   C     C_3   0.534371 0.774210 0.707896 -0.235074
C70   C     C_3   0.809499 0.697110 0.766624 -0.249892
Cr1   Cr    Cr6+3 0.392940 0.397950 0.502230 1.014897
Cr2   Cr    Cr6+3 0.398400 0.708500 0.501260 1.029234
Cr3   Cr    Cr6+3 0.708640 0.393530 0.496460 1.003324
Cr4   Cr    Cr6+3 0.937880 0.938320 0.007620 1.048841
Cr5   Cr    Cr6+3 0.625560 0.937220 0.994510 1.060242
Cr6   Cr    Cr6+3 0.938080 0.625010 0.001190 1.034113
H1    H     H_    0.538917 0.893124 0.796763 0.120858
H2    H     H_    0.789390 0.420559 0.699552 0.146701
H3    H     H_    0.917744 0.625549 0.785357 0.134092
H4    H     H_    0.510733 0.112624 0.680540 0.134347
H5    H     H_    0.526491 0.092906 0.803665 0.150949
H6    H     H_    0.088168 0.193635 0.794564 0.141724
H7    H     H_    0.119199 0.877007 0.683816 0.153587
H8    H     H_    0.265288 0.432230 0.895266 0.165143
H9    H     H_    0.255972 0.208389 0.713869 0.089770
H10   H     H_    0.736014 0.428053 0.101328 0.142528
H11   H     H_    0.935754 0.210593 0.142266 0.137093
H12   H     H_    0.021390 0.193315 0.264741 0.106675
H13   H     H_    0.439553 0.764333 0.698075 0.157409
H14   H     H_    0.919336 0.388014 0.343473 0.140535
H15   H     H_    0.825635 0.133547 0.321831 0.141280
H16   H     H_    0.863822 0.056089 0.201440 0.149657
H17   H     H_    0.174483 0.352835 0.139689 0.135083
H18   H     H_    0.147729 0.329740 0.267964 0.109857
H19   H     H_    0.319299 0.311342 0.349065 0.174953
H20   H     H_    0.010599 0.581601 0.207857 0.147731
H21   H     H_    0.516694 0.870653 0.679987 0.114030
H22   H     H_    0.331158 0.957146 0.158886 0.128827
H23   H     H_    0.161242 0.940086 0.359539 0.140734
H24   H     H_    0.790914 0.805223 0.773859 0.125672
H25   H     H_    0.662142 0.504408 0.836598 0.147063
O1    O     O_R   0.507340 0.255690 0.581430 -0.505020
O2    O     O_R   0.524510 0.695820 0.424050 -0.479270
O3    O     O_R   0.736370 0.504260 0.414810 -0.546219
O4    O     O_R   0.691220 0.277270 0.422180 -0.508957
O5    O     O_3   0.499990 0.499990 0.499980 -0.268739
O6    O     O_R   0.089570 0.825450 0.930590 -0.494237
O7    O     O_R   0.818700 0.054260 0.929860 -0.492359
O8    O     O_R   0.606310 0.077010 0.915520 -0.506180
O9    O     O_R   0.646730 0.806540 0.917560 -0.495062
O10   O     O_R   0.837290 0.593240 0.915240 -0.511693
O11   O     O_R   0.065320 0.635310 0.931580 -0.518834
O12   O     O_R   0.280360 0.527380 0.578910 -0.505449
O13   O     O_R   0.068470 0.828620 0.091850 -0.522540
O14   O     O_R   0.799150 0.057200 0.079350 -0.510691
O15   O     O_R   0.585220 0.080180 0.076770 -0.510500
O16   O     O_R   0.627170 0.809480 0.067050 -0.503571
O17   O     O_R   0.816200 0.596410 0.076500 -0.513695
O18   O     O_R   0.045770 0.638240 0.081070 -0.505403
O19   O     O_3   0.833840 0.833520 0.001110 -0.273610
O20   O     O_R   0.260600 0.739610 0.584580 -0.528507
O21   O     O_R   0.532370 0.695050 0.573830 -0.499590
O22   O     O_R   0.744850 0.503430 0.576380 -0.533544
O23   O     O_R   0.699080 0.276500 0.571950 -0.512614
O24   O     O_R   0.498860 0.256520 0.419860 -0.510588
O25   O     O_R   0.272490 0.528150 0.429140 -0.532542
O26   O     O_R   0.252110 0.740440 0.423010 -0.530463
H26   H     H_    0.895038 0.566152 0.673340 0.115044
C71   C     C_1   0.891038 0.232402 0.883183 0.213962
N1    N     N_1   0.882363 0.275527 0.940096 -0.282882
H27   H     H_    0.106535 0.142118 0.667106 0.111502
H28   H     H_    0.926899 0.113771 0.608385 0.143215
C72   C     C_1   0.443630 0.782054 0.831613 0.215966
N2    N     N_1   0.361702 0.776988 0.868427 -0.272409
H29   H     H_    0.087193 0.901233 0.809836 0.172687
C73   C     C_1   0.287025 0.196006 0.857007 0.154166
N3    N     N_1   0.309047 0.104498 0.894792 -0.276884
H30   H     H_    0.189472 0.409284 0.638626 0.138474
C74   C     C_1   0.540954 0.901675 0.332165 0.206905
N4    N     N_1   0.493539 0.999190 0.368294 -0.286845
H31   H     H_    0.563086 0.897040 0.191980 0.144298
C75   C     C_1   0.391415 0.357938 0.077801 0.212170
N5    N     N_1   0.394462 0.396274 0.020885 -0.308338
H32   H     H_    0.056822 0.563189 0.336187 0.117040
H33   H     H_    0.312669 0.757338 0.117180 0.138206
H34   H     H_    0.258429 0.045294 0.280950 0.125332
C76   C     C_1   0.797687 0.773151 0.640312 0.171773
N6    N     N_1   0.797854 0.856033 0.602557 -0.313176
H35   H     H_    0.837760 0.454273 0.809149 0.141620
C77   C     C_1   0.578840 0.484321 0.717306 0.197601
N7    N     N_1   0.487981 0.460067 0.715086 -0.285978

loop_
_geom_bond_atom_site_label_1
_geom_bond_atom_site_label_2
_ccdc_geom_bond_type
C54   H32   S    
C8    C13   A    
C5    C76   S    
C57   H33   S    
Cr2   O20   S    
C41   C42   A    
C37   H12   S    
C35   C36   A    
C67   H1    S    
C60   H23   S    
C57   C58   A    
C7    C8    A    
C46   C75   S    
C11   H5    S    
C7    C11   A    
C12   O22   A    
C26   C27   A    
C17   C23   S    
C48   H18   S    
C30   C35   A    
C36   C37   A    
C67   C72   S    
C9    C16   A    
Cr6   O10   S    
C68   O18   A    
C30   C31   A    
C35   H10   S    
C64   O11   A    
C23   O1    A    
C62   O7    A    
C10   C17   A    
C15   C16   A    
Cr4   O13   S    
C29   C33   A    
Cr1   O12   S    
C18   C19   A    
C32   C39   A    
C25   C73   S    
C45   O2    A    
C76   N6    T    
Cr4   O6    S    
C54   C55   A    
C53   C61   A    
Cr3   O3    S    
C19   C20   A    
C8    C9    A    
Cr3   O22   S    
C66   O16   A    
Cr5   O16   S    
C1    C28   S    
C41   C46   A    
Cr1   O25   S    
C4    C12   S    
C44   H16   S    
Cr6   O11   S    
C39   C45   S    
C2    H35   S    
C59   C60   A    
C21   C22   A    
C63   O10   A    
C65   O14   A    
C2    C6    S    
C1    O12   A    
C69   H13   S    
C4    C69   S    
C53   C60   A    
C70   H24   S    
C1    O20   A    
C36   H11   S    
Cr5   O8    S    
Cr6   O18   S    
Cr2   O26   S    
C51   C52   A    
C27   H30   S    
C21   H7    S    
C3    C70   S    
C24   C25   A    
C32   C74   S    
C4    C6    S    
C10   C11   A    
C10   H4    S    
C34   O26   A    
C20   C28   A    
C2    H25   S    
C33   H31   S    
C25   C26   A    
C34   C61   S    
C50   C56   S    
Cr2   O2    S    
C67   C69   S    
C37   C38   A    
C43   C44   A    
C7    C62   S    
C29   C30   A    
C45   O3    A    
Cr3   O4    S    
C47   C48   A    
C14   C15   A    
C40   C44   A    
C34   O25   A    
Cr3   O23   S    
C47   H17   S    
C12   O21   A    
Cr6   O19   S    
C56   O24   A    
C49   H19   S    
C42   C50   A    
C9    C17   A    
C48   C49   A    
C54   C61   A    
Cr1   O1    S    
Cr6   O17   S    
C40   C65   S    
Cr1   O24   S    
C72   N2    T    
C65   O15   A    
C14   H6    S    
C52   C53   A    
C64   O6    A    
C71   N1    T    
C46   C47   A    
C40   C41   A    
Cr5   O9    S    
Cr2   O21   S    
C70   H3    S    
C18   C22   A    
C21   C28   A    
C3    C67   S    
Cr5   O19   S    
Cr2   O5    S    
C55   H20   S    
C5    C70   S    
C74   N4    T    
C43   C50   A    
C23   O23   A    
C20   C27   A    
C3    C63   S    
C58   H22   S    
Cr4   O19   S    
C38   H14   S    
C31   C38   A    
C22   H29   S    
C32   C33   A    
C63   O9    A    
C19   C24   A    
C58   C59   A    
C18   C64   S    
Cr3   O5    S    
C62   O8    A    
C26   H9    S    
Cr4   O14   S    
C5    H26   S    
C31   C39   A    
C2    C3    S    
C51   C55   A    
C51   C68   S    
C24   H8    S    
C16   H28   S    
C43   H15   S    
C56   O4    A    
C6    H2    S    
C52   C57   A    
C42   C49   A    
Cr4   O7    S    
C29   C66   S    
C6    C77   S    
C59   H34   S    
C4    C5    S    
C15   H27   S    
C66   O17   A    
Cr1   O5    S    
C75   N5    T    
C13   C71   S    
C77   N7    T    
C73   N3    T    
Cr5   O15   S    
C13   C14   A    
C68   O13   A    
C69   H21   S    
