data_mof_unit_51754.cif
_audit_creation_date              2013-03-05T15:41:38-0500
_audit_creation_method            fapswitch 2.2
_symmetry_space_group_name_H-M    P1
_symmetry_Int_Tables_number       1
_space_group_crystal_system       triclinic
_cell_length_a                    7.851317
_cell_length_b                    8.663935
_cell_length_c                    15.696745
_cell_angle_alpha                 92.963166
_cell_angle_beta                  85.010013
_cell_angle_gamma                 92.795392
_cell_volume                      1061.22301059

loop_
_atom_site_label
_atom_site_type_symbol
_atom_site_description
_atom_site_fract_x
_atom_site_fract_y
_atom_site_fract_z
_atom_type_partial_charge
O1    O     O_R   0.389240 0.738570 0.505550 -0.593989
O2    O     O_R   0.678400 0.711630 0.491050 -0.578811
C1    C     C_R   0.543820 0.792400 0.489865 0.857960
O3    O     O_R   0.355360 0.513470 0.630110 -0.561183
O4    O     O_R   0.644510 0.486530 0.615610 -0.591924
C2    C     C_R   0.500991 0.503162 0.661483 0.879851
Zn1   Zn    Zn3+2 0.306930 0.517990 0.509680 1.168372
Zn2   Zn    Zn3+2 0.693070 0.482010 0.490320 1.077848
O5    O     O_R   0.321600 0.288370 0.508950 -0.538507
O6    O     O_R   0.610760 0.261430 0.494450 -0.579444
O7    O     O_R   0.355490 0.513470 0.384390 -0.582118
O8    O     O_R   0.644640 0.486530 0.369890 -0.688127
C3    C     C_R   0.455292 0.205498 0.495906 0.864678
C4    C     C_R   0.498749 0.495840 0.338567 0.833428
C5    C     C_3   0.323255 0.572798 0.962999 0.475224
C6    C     C_3   0.646995 0.558048 0.949151 -0.458291
C7    C     C_3   0.642542 0.560213 0.047546 0.337524
H1    H     H_    0.320697 0.659063 0.100610 0.270679
H2    H     H_    0.758817 0.494862 0.920095 0.288181
H3    H     H_    0.667454 0.678057 0.926835 0.224711
H4    H     H_    0.758536 0.505436 0.065967 0.168314
C8    C     C_1   0.494000 0.479427 0.249920 -0.125523
C9    C     C_3   0.479409 0.481280 0.917705 -0.181661
C10   C     C_3   0.322102 0.548477 0.061988 -0.524662
C11   C     C_3   0.481516 0.462123 0.083082 -0.120377
C12   C     C_3   0.488616 0.289744 0.040339 0.547010
C13   C     C_3   0.469862 0.301379 0.937830 0.485269
C14   C     C_1   0.488017 0.466541 0.174794 0.086383
C15   C     C_1   0.493179 0.496574 0.825841 0.221462
C16   C     C_1   0.500679 0.502329 0.750371 0.018924
H5    H     H_    0.202076 0.496122 0.090112 0.173047
C17   C     C_2   0.566944 0.951828 0.470267 0.222332
C18   C     C_2   0.429895 0.042419 0.479590 -0.025369
N1    N     N_2   0.950340 0.457950 0.477370 0.134944
N2    N     N_2   0.049660 0.542050 0.522630 0.108719
N3    N     N_R   0.160318 0.516313 0.929249 0.213214
O9    O     O_R   0.036802 0.454737 0.978290 -0.434727
O10   O     O_R   0.130516 0.541544 0.850953 -0.270104
N4    N     N_R   0.656949 0.232300 0.058420 0.191271
O11   O     O_R   0.673810 0.183667 0.134251 -0.423983
O12   O     O_R   0.793111 0.238893 0.005175 -0.348573
O13   O     O_3   0.733348 0.010510 0.452998 -0.530118
C19   C     C_3   0.788361 0.965830 0.367510 -0.175159
H6    H     H_    0.709803 0.018092 0.321731 0.133318
H7    H     H_    0.786265 0.838085 0.355893 0.157643
H8    H     H_    0.922988 0.007909 0.354002 0.221241
N5    N     N_R   0.258200 0.982582 0.467663 0.221273
O14   O     O_R   0.129716 0.026747 0.519697 -0.246163
O15   O     O_R   0.228175 0.900644 0.398253 -0.417074
O16   O     O_3   0.037956 0.357019 0.424302 -0.490321
C20   C     C_3   0.957716 0.338352 0.348211 -0.070668
H9    H     H_    0.951029 0.451113 0.318111 0.137294
H10   H     H_    0.830843 0.278443 0.359133 0.192928
H11   H     H_    0.036165 0.263344 0.302690 0.109849
N6    N     N_R   0.970777 0.617170 0.594359 0.296400
O17   O     O_R   0.976961 0.558569 0.668578 -0.306121
O18   O     O_R   0.941117 0.763026 0.591910 -0.296672
N7    N     N_R   0.345550 0.739791 0.945867 0.209167
O19   O     O_R   0.351471 0.783903 0.867627 -0.387520
O20   O     O_R   0.335231 0.846236 0.007414 -0.332764
O21   O     O_3   0.637076 0.715445 0.081929 -0.566491
C21   C     C_3   0.804186 0.780253 0.089081 -0.179222
H12   H     H_    0.883634 0.772338 0.026875 0.200212
H13   H     H_    0.867298 0.723482 0.139176 0.130274
H14   H     H_    0.795640 0.904364 0.108899 0.237734
N8    N     N_R   0.307346 0.227733 0.907925 0.208386
O22   O     O_R   0.233734 0.106577 0.943098 -0.275829
O23   O     O_R   0.269777 0.248385 0.830291 -0.324040
O24   O     O_3   0.611308 0.236845 0.886603 -0.617177
C22   C     C_3   0.602250 0.073783 0.877555 0.059398
H15   H     H_    0.515195 0.034953 0.827945 0.202505
H16   H     H_    0.564852 0.019604 0.939171 0.214315
H17   H     H_    0.731254 0.034045 0.854814 0.189626
O25   O     O_3   0.370511 0.173570 0.076387 -0.541142
C23   C     C_3   0.211947 0.215697 0.117833 -0.119452
H18   H     H_    0.126845 0.257578 0.072561 0.231501
H19   H     H_    0.224834 0.293981 0.174772 0.107388
H20   H     H_    0.145771 0.109057 0.142637 0.193507

loop_
_geom_bond_atom_site_label_1
_geom_bond_atom_site_label_2
_geom_bond_distance
_ccdc_geom_bond_type
O4    Zn2   1.969171 S    
N8    O23   1.301622 A    
C23   H18   1.102724 S    
Zn2   O6    1.989763 S    
N1    O16   1.347380 S    
C3    C18   1.430267 S    
C21   H12   1.112889 S    
C9    C13   1.603185 S    
N5    O15   1.301916 A    
C23   H19   1.102451 S    
C20   H10   1.104587 S    
C21   H13   1.112341 S    
N5    O14   1.301202 A    
C13   O24   1.432204 S    
C6    H3    1.114073 S    
Zn2   O8    1.963090 S    
C20   H11   1.107573 S    
C7    C11   1.566293 S    
C17   C18   1.355858 D    
C4    C8    1.394931 S    
N6    O17   1.300288 A    
N3    O10   1.302208 A    
N8    O22   1.298428 A    
N7    O19   1.301285 A    
C10   H5    1.093312 S    
N4    O12   1.299303 A    
C13   N8    1.499795 S    
C8    C14   1.183551 T    
C11   C14   1.443382 S    
Zn1   O7    1.969171 S    
C19   H7    1.111913 S    
C12   C13   1.637166 S    
C15   C16   1.184484 T    
C22   H17   1.109157 S    
O3    Zn1   1.963091 S    
H1    C10   1.106991 S    
O4    C2    1.293414 A    
C9    C15   1.449046 S    
C23   H20   1.109211 S    
C5    C9    1.588139 S    
N3    O9    1.296054 A    
O7    C4    1.292463 A    
O8    C4    1.292806 A    
O2    C1    1.297459 A    
C6    C9    1.552729 S    
O24   C22   1.411504 S    
N6    O18   1.299190 A    
C19   H6    1.113464 S    
C6    H2    1.109015 S    
C1    C17   1.430125 S    
C18   N5    1.444539 S    
C5    N7    1.484448 S    
C12   O25   1.438637 S    
C12   N4    1.489626 S    
C19   H8    1.107490 S    
C22   H16   1.107267 S    
O21   C21   1.412999 S    
C7    O21   1.424251 S    
N7    O20   1.300750 A    
C20   H9    1.112419 S    
C5    N3    1.478756 S    
C22   H15   1.108987 S    
O5    C3    1.296206 A    
C10   C11   1.557222 S    
O3    C2    1.292403 A    
N1    N2    1.277160 D    
O13   C19   1.413796 S    
O2    Zn2   1.997731 S    
N4    O11   1.302536 A    
Zn1   O5    1.997730 S    
C17   O13   1.388073 S    
C5    C10   1.577974 S    
Zn2   N1    2.032256 S    
O16   C20   1.396630 S    
C21   H14   1.107400 S    
C2    C16   1.395426 S    
C11   C12   1.606786 S    
O1    Zn1   1.989763 S    
Zn1   N2    2.032256 S    
N2    N6    1.384586 S    
C7    H4    1.113719 S    
O25   C23   1.408975 S    
C6    C7    1.540992 S    
O1    C1    1.286771 A    
O6    C3    1.289913 A    
