data_mof_unit_37495.cif
_audit_creation_date              2012-10-26T20:33:40-0400
_audit_creation_method            fapswitch 2.2
_symmetry_space_group_name_H-M    P1
_symmetry_Int_Tables_number       1
_space_group_crystal_system       triclinic
_cell_length_a                    10.972859
_cell_length_b                    9.079369
_cell_length_c                    7.905031
_cell_angle_alpha                 89.644573
_cell_angle_beta                  88.627304
_cell_angle_gamma                 89.820183
_cell_volume                      787.306962866

loop_
_atom_site_label
_atom_site_type_symbol
_atom_type_description
_atom_site_fract_x
_atom_site_fract_y
_atom_site_fract_z
_atom_type_partial_charge
C1    C     C_R   0.501064 0.220605 0.500353 0.530649
C2    C     C_1   0.501640 0.934788 0.500161 -0.114840
C3    C     C_3   0.068261 0.672106 0.567986 0.565481
C4    C     C_3   0.921905 0.672816 0.554355 0.567613
C5    C     C_3   0.121420 0.516632 0.501358 -0.028252
C6    C     C_3   0.878437 0.512906 0.492438 0.001733
C7    C     C_3   0.159259 0.282448 0.857323 -0.046220
C8    C     C_3   0.160526 0.666361 0.145281 0.009929
C9    C     C_3   0.824159 0.227487 0.794629 -0.107996
C10   C     C_3   0.848092 0.552141 0.052486 0.003191
C11   C     C_3   0.078480 0.836472 0.805664 -0.097726
C12   C     C_R   0.259605 0.507579 0.501042 0.554863
C13   C     C_3   0.223947 0.856655 0.504826 -0.117117
C14   C     C_3   0.803810 0.829711 0.750098 -0.136180
C15   C     C_3   0.780220 0.825895 0.388176 -0.060148
C16   C     C_R   0.740572 0.499838 0.497609 0.561161
C17   C     C_R   0.498347 0.779536 0.499909 0.480354
C18   C     C_1   0.502116 0.065729 0.500792 -0.086908
C19   C     C_3   0.070364 0.390466 0.620190 0.141892
C20   C     C_3   0.071825 0.474826 0.318520 0.124019
C21   C     C_3   0.929655 0.380787 0.602491 0.130667
C22   C     C_3   0.931354 0.486155 0.310693 0.111830
Cu1   Cu    Cu3+1 0.500000 0.500010 0.669080 1.001443
Cu2   Cu    Cu3+1 0.500000 0.500010 0.330920 0.970026
H1    H     H_    0.108555 0.284258 0.569674 0.023420
H2    H     H_    0.198314 0.679968 0.016216 0.174335
H3    H     H_    0.898780 0.144999 0.793227 0.083101
H4    H     H_    0.754116 0.198347 0.701168 0.121148
H5    H     H_    0.779718 0.224037 0.921935 0.121986
H6    H     H_    0.925131 0.543041 0.961115 0.288657
H7    H     H_    0.781594 0.634466 0.008880 0.157273
H8    H     H_    0.794835 0.448680 0.064203 0.138352
H9    H     H_    0.016776 0.828550 0.917662 0.137252
H10   H     H_    0.037977 0.914923 0.715043 0.143930
H11   H     H_    0.164806 0.885477 0.848780 0.064019
H12   H     H_    0.087876 0.353798 0.311465 0.082992
H13   H     H_    0.276521 0.792496 0.597238 0.173783
H14   H     H_    0.204300 0.968203 0.555152 0.102258
H15   H     H_    0.279954 0.877216 0.389262 0.113474
H16   H     H_    0.810690 0.858194 0.885568 0.091032
H17   H     H_    0.705422 0.816236 0.728580 0.150391
H18   H     H_    0.841040 0.925375 0.679696 0.117348
H19   H     H_    0.761961 0.943882 0.414416 0.079483
H20   H     H_    0.713871 0.760481 0.456378 0.147024
H21   H     H_    0.769317 0.812607 0.250350 0.166763
H22   H     H_    0.913315 0.278801 0.526971 0.022595
H23   H     H_    0.897248 0.376372 0.268893 0.063996
H24   H     H_    0.184477 0.301222 0.989978 0.184514
H25   H     H_    0.244634 0.255386 0.785358 0.117252
H26   H     H_    0.096649 0.186856 0.856563 0.067191
H27   H     H_    0.237195 0.700535 0.221227 0.150127
H28   H     H_    0.079985 0.738187 0.163871 0.203227
N1    N     N_1   0.500000 0.499970 0.076820 -0.099886
N2    N     N_1   0.500000 0.499970 0.923180 -0.094747
O1    O     O_R   0.500000 0.288400 0.642760 -0.516637
O2    O     O_3   0.134413 0.516485 0.165942 -0.526811
O3    O     O_3   0.870474 0.370355 0.763390 -0.524314
O4    O     O_3   0.896001 0.602241 0.203624 -0.569210
O5    O     O_3   0.102133 0.692783 0.740452 -0.517113
O6    O     O_3   0.114717 0.787521 0.459071 -0.587229
O7    O     O_3   0.866969 0.695393 0.718997 -0.566795
O8    O     O_3   0.899847 0.791672 0.435085 -0.531391
O9    O     O_R   0.500000 0.288400 0.357240 -0.499875
O10   O     O_R   0.317700 0.499990 0.642790 -0.462213
O11   O     O_R   0.317700 0.499990 0.357210 -0.487337
O12   O     O_R   0.682300 0.499990 0.642790 -0.445296
O13   O     O_R   0.682300 0.499990 0.357210 -0.524763
O14   O     O_R   0.500000 0.711620 0.642810 -0.520150
O15   O     O_R   0.500000 0.711620 0.357190 -0.520375
O16   O     O_3   0.102861 0.410616 0.791968 -0.452245

loop_
_geom_bond_atom_site_label_1
_geom_bond_atom_site_label_2
_ccdc_geom_bond_type
Cu1   O14   S    
C22   O4    S    
Cu1   Cu2   S    
Cu1   O1    S    
C5    C19   S    
C4    O8    S    
C2    C18   T    
C8    H2    S    
C12   O11   A    
C10   H6    S    
C20   H12   S    
C13   H13   S    
C9    H5    S    
C20   O2    S    
C7    H24   S    
C8    O2    S    
C7    O16   S    
C11   H11   S    
C22   H23   S    
C1    C18   S    
C3    C5    S    
C15   H19   S    
C4    O7    S    
C16   O13   A    
N1    N2    T    
C3    O6    S    
C2    C17   S    
C21   O3    S    
C14   O7    S    
C8    H27   S    
C7    H25   S    
C13   H14   S    
Cu2   O11   S    
C5    C12   S    
C14   H17   S    
C11   O5    S    
C14   H18   S    
C1    O9    A    
Cu1   O12   S    
Cu1   O10   S    
C19   C21   S    
C15   O8    S    
C20   C22   S    
Cu2   O15   S    
Cu2   O9    S    
C9    O3    S    
C1    O1    A    
C15   H20   S    
C19   H1    S    
C13   H15   S    
C16   O12   A    
C15   H21   S    
C14   H16   S    
C3    C4    S    
C6    C22   S    
C10   H8    S    
C11   H9    S    
C9    H3    S    
Cu1   N2    S    
C4    C6    S    
C21   H22   S    
C9    H4    S    
C5    C20   S    
C12   O10   A    
C8    H28   S    
C17   O15   A    
C17   O14   A    
Cu2   O13   S    
C10   O4    S    
Cu2   N1    S    
C6    C21   S    
C6    C16   S    
C10   H7    S    
C11   H10   S    
C7    H26   S    
C13   O6    S    
C19   O16   S    
C3    O5    S    
