data_mof_unit_43417.cif
_audit_creation_date              2012-10-26T21:12:55-0400
_audit_creation_method            fapswitch 2.2
_symmetry_space_group_name_H-M    P1
_symmetry_Int_Tables_number       1
_space_group_crystal_system       triclinic
_cell_length_a                    10.885066
_cell_length_b                    15.767423
_cell_length_c                    17.124561
_cell_angle_alpha                 96.685297
_cell_angle_beta                  90.644244
_cell_angle_gamma                 91.24733
_cell_volume                      2918.12205074

loop_
_atom_site_label
_atom_site_type_symbol
_atom_type_description
_atom_site_fract_x
_atom_site_fract_y
_atom_site_fract_z
_atom_type_partial_charge
C1    C     C_R   0.500829 0.489185 0.348474 0.576587
C2    C     C_R   0.525340 0.445887 0.775000 -0.203540
C3    C     C_R   0.475944 0.550577 0.143725 -0.102859
C4    C     C_R   0.523003 0.449639 0.856335 -0.102553
C5    C     C_R   0.507675 0.474482 0.097638 0.195561
C6    C     C_R   0.490319 0.525587 0.902309 0.195010
C7    C     C_R   0.537106 0.402963 0.134390 -0.102694
C8    C     C_R   0.460350 0.596922 0.865432 -0.102643
C9    C     C_R   0.535739 0.405920 0.216641 0.213526
C10   C     C_R   0.462183 0.593920 0.783177 0.213963
C11   C     C_R   0.471150 0.751592 0.448436 0.026166
C12   C     C_R   0.498914 0.510823 0.651514 0.579356
C13   C     C_R   0.548316 0.248452 0.544577 0.032000
C14   C     C_R   0.474595 0.841055 0.451505 -0.117421
C15   C     C_R   0.544382 0.159137 0.542495 -0.121838
C16   C     C_R   0.262009 0.501288 0.500277 0.547153
C17   C     C_R   0.737913 0.498636 0.498805 0.544272
C18   C     C_R   0.520183 0.891571 0.519415 0.198723
C19   C     C_R   0.476034 0.108827 0.482871 0.199475
C20   C     C_R   0.565499 0.849358 0.581002 -0.146327
C21   C     C_R   0.412129 0.151248 0.427937 -0.141218
C22   C     C_R   0.563056 0.759744 0.574862 0.040847
C23   C     C_R   0.871470 0.496660 0.497327 -0.008696
C24   C     C_R   0.417074 0.240803 0.432859 0.037986
C25   C     C_R   0.213554 0.782451 0.606200 -0.132149
C26   C     C_R   0.788451 0.220049 0.382717 -0.127835
C27   C     C_R   0.169396 0.698436 0.592032 -0.085157
C28   C     C_R   0.821399 0.305729 0.403106 -0.081899
C29   C     C_R   0.120746 0.666485 0.517962 0.033178
C30   C     C_R   0.880696 0.332443 0.475212 0.027023
C31   C     C_R   0.117153 0.720259 0.456752 0.257701
C32   C     C_R   0.905630 0.271443 0.528010 0.243550
C33   C     C_R   0.161236 0.805668 0.471989 0.045817
C34   C     C_R   0.128294 0.503151 0.500062 -0.007787
C35   C     C_R   0.881130 0.183685 0.504141 0.038554
C36   C     C_R   0.208354 0.835971 0.547056 -0.159145
C37   C     C_R   0.820178 0.159211 0.431913 -0.167919
C38   C     C_R   0.935333 0.575426 0.507061 -0.143564
C39   C     C_R   0.064579 0.424533 0.489673 -0.140156
C40   C     C_R   0.159576 0.864123 0.409880 0.070804
C41   C     C_R   0.114382 0.947022 0.426301 -0.094903
C42   C     C_R   0.115770 0.003303 0.369023 -0.114799
C43   C     C_R   0.162557 0.977409 0.294664 -0.104800
C44   C     C_R   0.207686 0.895142 0.277508 -0.114157
C45   C     C_R   0.937191 0.419776 0.488102 -0.046569
C46   C     C_R   0.206213 0.838634 0.334690 -0.056600
C47   C     C_R   0.922528 0.116985 0.552959 0.052379
C48   C     C_R   0.846563 0.045597 0.562319 -0.116302
C49   C     C_R   0.885886 0.983002 0.607869 -0.111269
C50   C     C_R   0.001684 0.990539 0.644244 -0.114395
C51   C     C_R   0.079069 0.060146 0.634290 -0.127404
C52   C     C_R   0.040391 0.122660 0.588447 -0.051880
C53   C     C_R   0.062580 0.579897 0.508302 -0.049878
C54   C     C_R   0.503443 0.482543 0.262251 0.047622
C55   C     C_R   0.495645 0.517487 0.737714 0.047025
C56   C     C_R   0.474132 0.554308 0.225073 -0.202674
Cu1   Cu    Cu3+1 0.493970 0.415220 0.496180 0.969429
Cu2   Cu    Cu3+1 0.506030 0.584780 0.503820 0.972493
H1    H     H_    0.243387 0.901033 0.559490 0.132655
H2    H     H_    0.366964 0.272629 0.390255 0.138686
H3    H     H_    0.251035 0.806474 0.663534 0.129626
H4    H     H_    0.742663 0.200162 0.326946 0.138578
H5    H     H_    0.171525 0.658301 0.639244 0.139749
H6    H     H_    0.803470 0.351156 0.361742 0.149174
H7    H     H_    0.886230 0.634903 0.514235 0.155238
H8    H     H_    0.114171 0.365272 0.481796 0.150941
H9    H     H_    0.551400 0.386770 0.741195 0.132401
H10   H     H_    0.448804 0.613550 0.258954 0.124833
H11   H     H_    0.546927 0.393037 0.882834 0.148096
H12   H     H_    0.799658 0.092548 0.412452 0.123268
H13   H     H_    0.452448 0.607318 0.117310 0.145286
H14   H     H_    0.561914 0.344812 0.098517 0.102952
H15   H     H_    0.434753 0.654949 0.901199 0.101838
H16   H     H_    0.588334 0.288102 0.212617 0.309131
H17   H     H_    0.408144 0.711381 0.786944 0.308833
H18   H     H_    0.056955 0.630025 0.376410 0.330107
H19   H     H_    0.946041 0.357726 0.616405 0.332365
H20   H     H_    0.077216 0.967770 0.483248 0.126710
H21   H     H_    0.080712 0.067013 0.382375 0.109181
H22   H     H_    0.164022 0.021115 0.250395 0.108753
H23   H     H_    0.602748 0.286314 0.589627 0.132328
H24   H     H_    0.244521 0.875279 0.219995 0.106678
H25   H     H_    0.244056 0.775817 0.320786 0.127120
H26   H     H_    0.756882 0.038220 0.534504 0.136164
H27   H     H_    0.826763 0.928394 0.614700 0.114399
H28   H     H_    0.032137 0.941839 0.679202 0.114487
H29   H     H_    0.169773 0.065093 0.661220 0.115422
H30   H     H_    0.103581 0.174557 0.579628 0.154113
H31   H     H_    0.432083 0.714013 0.397005 0.118337
H32   H     H_    0.595172 0.130302 0.586796 0.121564
H33   H     H_    0.440786 0.870107 0.401546 0.125261
H34   H     H_    0.602204 0.885821 0.633927 0.098232
H35   H     H_    0.358653 0.114997 0.381289 0.109700
H36   H     H_    0.599023 0.728555 0.622918 0.152804
N1    N     N_2   0.511793 0.466819 0.014421 -0.243826
N2    N     N_2   0.486002 0.533291 0.985528 -0.244302
N3    N     N_R   0.515100 0.712130 0.509560 -0.220116
N4    N     N_R   0.484900 0.287870 0.490440 -0.222700
N5    N     N_2   0.523467 0.983341 0.528255 -0.265302
N6    N     N_2   0.470779 0.017044 0.474656 -0.244792
O1    O     O_R   0.494360 0.420530 0.382500 -0.446684
O2    O     O_3   0.429371 0.663872 0.746552 -0.706779
O3    O     O_3   0.067895 0.692886 0.383049 -0.717589
O4    O     O_3   0.953898 0.295371 0.602595 -0.722538
O5    O     O_R   0.505640 0.579470 0.617500 -0.452019
O6    O     O_R   0.504550 0.563720 0.388950 -0.531079
O7    O     O_R   0.495450 0.436280 0.611050 -0.528074
O8    O     O_R   0.314550 0.428410 0.496780 -0.517693
O9    O     O_R   0.685450 0.571590 0.503220 -0.512939
O10   O     O_R   0.324740 0.571600 0.503230 -0.491209
O11   O     O_R   0.675260 0.428400 0.496770 -0.498145
O12   O     O_3   0.567778 0.335690 0.253105 -0.704387

loop_
_geom_bond_atom_site_label_1
_geom_bond_atom_site_label_2
_ccdc_geom_bond_type
C23   C45   A    
C27   C29   A    
Cu2   O9    S    
C41   C42   A    
C14   C18   A    
C30   C45   S    
C3    H13   S    
N1    N2    D    
C43   C44   A    
C36   H1    S    
C35   C47   S    
C16   O10   A    
C40   C46   A    
C20   H34   S    
C17   C23   S    
C29   C53   S    
C24   N4    A    
C19   C21   A    
C44   H24   S    
C2    C55   A    
H16   O12   S    
C12   O5    A    
C11   C14   A    
C13   H23   S    
C33   C36   A    
C13   N4    A    
C16   C34   S    
C15   C19   A    
N5    N6    D    
H17   O2    S    
C32   O4    S    
C1    O6    A    
C39   C45   A    
H18   O3    S    
C42   H21   S    
C22   N3    A    
C37   H12   S    
C22   H36   S    
Cu2   N3    S    
C17   O11   A    
C4    H11   S    
C5    N1    S    
C44   C46   A    
C54   C56   A    
C33   C40   S    
C34   C39   A    
C32   C35   A    
C49   H27   S    
C52   H30   S    
C4    C6    A    
C2    H9    S    
C51   H29   S    
C7    H14   S    
C5    C7    A    
C50   H28   S    
C6    C8    A    
C43   H22   S    
C56   H10   S    
C48   H26   S    
Cu2   O6    S    
C31   O3    S    
C2    C4    A    
C1    C54   S    
C3    C56   A    
C11   H31   S    
C47   C48   A    
C38   H7    S    
C10   O2    S    
C24   H2    S    
C31   C33   A    
C50   C51   A    
C25   H3    S    
C10   C55   A    
C27   H5    S    
C28   H6    S    
C40   C41   A    
Cu1   O7    S    
C20   C22   A    
C6    N2    S    
C13   C15   A    
C39   H8    S    
C42   C43   A    
C1    O1    A    
C41   H20   S    
C7    C9    A    
C48   C49   A    
C35   C37   A    
Cu2   O10   S    
C3    C5    A    
C17   O9    A    
C12   O7    A    
C19   N6    S    
C26   C37   A    
C47   C52   A    
C25   C27   A    
C23   C38   A    
Cu1   O1    S    
C26   C28   A    
C11   N3    A    
Cu2   O5    S    
C28   C30   A    
C26   H4    S    
C51   C52   A    
C29   C31   A    
C15   H32   S    
C30   C32   A    
Cu1   Cu2   S    
Cu1   O11   S    
C38   C53   A    
C21   H35   S    
C9    O12   S    
Cu1   N4    S    
C8    H15   S    
C18   C20   A    
C14   H33   S    
C12   C55   S    
C16   O8    A    
C25   C36   A    
C46   H25   S    
Cu1   O8    S    
C34   C53   A    
C8    C10   A    
C49   C50   A    
C18   N5    S    
C21   C24   A    
H19   O4    S    
C9    C54   A    
