data_mof_unit_59901.cif
_audit_creation_date              2012-12-10T18:09:38-0500
_audit_creation_method            fapswitch 2.2
_symmetry_space_group_name_H-M    P1
_symmetry_Int_Tables_number       1
_space_group_crystal_system       monoclinic
_cell_length_a                    15.741251
_cell_length_b                    16.655433
_cell_length_c                    9.997627
_cell_angle_alpha                 90.0
_cell_angle_beta                  90.000016
_cell_angle_gamma                 90.0
_cell_volume                      2621.15136681

loop_
_atom_site_label
_atom_site_type_symbol
_atom_type_description
_atom_site_fract_x
_atom_site_fract_y
_atom_site_fract_z
_atom_type_partial_charge
C1    C     C_R   0.116804 0.376151 0.500369 0.912210
C2    C     C_R   0.116804 0.623849 0.499631 0.912210
C3    C     C_R   0.616804 0.876151 0.499631 0.912210
C4    C     C_R   0.616804 0.123849 0.500369 0.912210
C5    C     C_3   0.087304 0.489500 0.076987 0.624677
C6    C     C_3   0.087304 0.510500 0.923013 0.624676
C7    C     C_3   0.587305 0.010500 0.076987 0.624676
C8    C     C_3   0.587305 0.989500 0.923013 0.624676
C9    C     C_R   0.881721 0.380932 0.500301 0.909748
C10   C     C_R   0.881721 0.619068 0.499699 0.909748
C11   C     C_R   0.381721 0.880932 0.499699 0.909748
C12   C     C_R   0.381721 0.119068 0.500301 0.909748
C13   C     C_3   0.831289 0.249983 0.604485 -0.454291
C14   C     C_3   0.810583 0.267931 0.373247 -0.474444
C15   C     C_3   0.810583 0.732069 0.626752 -0.474444
C16   C     C_3   0.831289 0.750017 0.395515 -0.454290
C17   C     C_3   0.310583 0.767931 0.626752 -0.474444
C18   C     C_3   0.331289 0.749983 0.395515 -0.454291
C19   C     C_3   0.331289 0.250017 0.604485 -0.454290
C20   C     C_3   0.310583 0.232069 0.373247 -0.474444
C21   C     C_3   0.233347 0.711071 0.640862 0.489962
C22   C     C_3   0.257386 0.687707 0.383039 0.481333
C23   C     C_3   0.257386 0.312293 0.616961 0.481333
C24   C     C_3   0.233347 0.288928 0.359138 0.489962
C25   C     C_3   0.757386 0.187707 0.616961 0.481333
C26   C     C_3   0.733347 0.211071 0.359137 0.489962
C27   C     C_3   0.733347 0.788929 0.640862 0.489962
C28   C     C_3   0.757385 0.812293 0.383039 0.481332
C29   C     C_3   0.720356 0.352205 0.530143 0.600953
C30   C     C_3   0.720356 0.647795 0.469857 0.600953
C31   C     C_3   0.220356 0.852205 0.469857 0.600953
C32   C     C_3   0.220356 0.147795 0.530143 0.600953
C33   C     C_3   0.811000 0.315086 0.502279 -0.285718
C34   C     C_3   0.811000 0.684914 0.497721 -0.285718
C35   C     C_3   0.311000 0.815086 0.497721 -0.285718
C36   C     C_3   0.311000 0.184914 0.502279 -0.285718
C37   C     C_3   0.184229 0.699399 0.497613 -0.383142
C38   C     C_3   0.184229 0.300600 0.502387 -0.383143
C39   C     C_3   0.684229 0.199400 0.502387 -0.383142
C40   C     C_3   0.684229 0.800600 0.497614 -0.383143
C41   C     C_3   0.144944 0.786796 0.470621 0.456369
C42   C     C_3   0.144943 0.213204 0.529379 0.456369
C43   C     C_3   0.644944 0.286796 0.529379 0.456368
C44   C     C_3   0.644943 0.713204 0.470622 0.456368
C45   C     C_3   0.954927 0.569669 0.080372 -0.024827
C46   C     C_3   0.949710 0.568430 0.918084 0.004989
C47   C     C_3   0.949710 0.431570 0.081916 0.004989
C48   C     C_3   0.954927 0.430331 0.919628 -0.024827
C49   C     C_3   0.449709 0.068430 0.081916 0.004990
C50   C     C_3   0.454927 0.069669 0.919628 -0.024827
C51   C     C_3   0.454927 0.930331 0.080372 -0.024828
C52   C     C_3   0.449710 0.931570 0.918084 0.004991
Cu1   Cu    Cu3+1 0.000100 0.500000 0.642410 1.117135
Cu2   Cu    Cu3+1 0.000100 0.500000 0.357590 1.117135
Cu3   Cu    Cu3+1 0.500100 0.000000 0.642410 1.117135
Cu4   Cu    Cu3+1 0.500100 0.000000 0.357590 1.117135
H1    H     H_    0.846469 0.280700 0.698608 0.235541
H2    H     H_    0.813591 0.313048 0.293788 0.234222
H3    H     H_    0.813591 0.686952 0.706211 0.234222
H4    H     H_    0.846468 0.719300 0.301391 0.235541
H5    H     H_    0.313591 0.813048 0.706211 0.234222
H6    H     H_    0.346469 0.780700 0.301392 0.235541
H7    H     H_    0.346469 0.219300 0.698608 0.235541
H8    H     H_    0.313591 0.186952 0.293788 0.234222
H9    H     H_    0.892469 0.219737 0.580253 0.272752
H10   H     H_    0.870674 0.233334 0.364628 0.273173
H11   H     H_    0.870674 0.766666 0.635371 0.273173
H12   H     H_    0.892469 0.780263 0.419745 0.272752
H13   H     H_    0.370674 0.733334 0.635371 0.273173
H14   H     H_    0.392469 0.719737 0.419746 0.272752
H15   H     H_    0.392469 0.280263 0.580254 0.272752
H16   H     H_    0.370674 0.266666 0.364628 0.273173
H17   H     H_    0.888178 0.570485 0.117429 0.172085
H18   H     H_    0.881430 0.560451 0.891235 0.146739
H19   H     H_    0.881430 0.439549 0.108764 0.146739
H20   H     H_    0.888178 0.429515 0.882571 0.172085
H21   H     H_    0.381430 0.060450 0.108764 0.146739
H22   H     H_    0.388178 0.070485 0.882570 0.172085
H23   H     H_    0.388178 0.929515 0.117429 0.172085
H24   H     H_    0.381430 0.939549 0.891236 0.146739
N1    N     N_3   0.001260 0.500000 0.143650 -0.302723
N2    N     N_3   0.001260 0.500000 0.856350 -0.302723
N3    N     N_3   0.501260 0.000000 0.143650 -0.302723
N4    N     N_3   0.501260 0.000000 0.856350 -0.302723
O1    O     O_R   0.091250 0.408820 0.620260 -0.517767
O2    O     O_R   0.091250 0.408820 0.379740 -0.499316
O3    O     O_R   0.091250 0.591180 0.620260 -0.499316
O4    O     O_R   0.091250 0.591180 0.379740 -0.517767
O5    O     O_R   0.591250 0.908820 0.620260 -0.499316
O6    O     O_R   0.591250 0.908820 0.379740 -0.517767
O7    O     O_R   0.591250 0.091180 0.620260 -0.517767
O8    O     O_R   0.591250 0.091180 0.379740 -0.499316
O9    O     O_R   0.908940 0.408800 0.620260 -0.571616
O10   O     O_R   0.908940 0.408800 0.379740 -0.580789
O11   O     O_R   0.908940 0.591200 0.620260 -0.580789
O12   O     O_R   0.908940 0.591200 0.379740 -0.571616
O13   O     O_R   0.408940 0.908800 0.620260 -0.580789
O14   O     O_R   0.408940 0.908800 0.379740 -0.571616
O15   O     O_R   0.408940 0.091200 0.620260 -0.571616
O16   O     O_R   0.408940 0.091200 0.379740 -0.580789
Cl1   Cl    Cl    0.274930 0.617672 0.700552 -0.306303
Cl2   Cl    Cl    0.303106 0.589230 0.391614 -0.289230
Cl3   Cl    Cl    0.303106 0.410770 0.608386 -0.289230
Cl4   Cl    Cl    0.274929 0.382328 0.299448 -0.306303
Cl5   Cl    Cl    0.803106 0.089230 0.608386 -0.289231
Cl6   Cl    Cl    0.774929 0.117672 0.299448 -0.306303
Cl7   Cl    Cl    0.774930 0.882328 0.700552 -0.306303
Cl8   Cl    Cl    0.803106 0.910770 0.391613 -0.289230
I1    I     I_    0.174429 0.773053 0.815127 0.084146
I2    I     I_    0.226860 0.707255 0.173028 0.079610
I3    I     I_    0.226860 0.292745 0.826972 0.079609
I4    I     I_    0.174428 0.226947 0.184872 0.084146
I5    I     I_    0.726860 0.207255 0.826972 0.079610
I6    I     I_    0.674428 0.273053 0.184873 0.084147
I7    I     I_    0.674429 0.726947 0.815128 0.084146
I8    I     I_    0.726859 0.792745 0.173029 0.079609
Cl9   Cl    Cl    0.729967 0.405023 0.688502 -0.418701
Cl10  Cl    Cl    0.699348 0.425509 0.405754 -0.354503
Cl11  Cl    Cl    0.699348 0.574491 0.594247 -0.354503
Cl12  Cl    Cl    0.729967 0.594976 0.311498 -0.418701
Cl13  Cl    Cl    0.199348 0.925508 0.594247 -0.354503
Cl14  Cl    Cl    0.229967 0.905024 0.311498 -0.418700
Cl15  Cl    Cl    0.229967 0.094976 0.688502 -0.418701
Cl16  Cl    Cl    0.199348 0.074492 0.405754 -0.354503
Cl17  Cl    Cl    0.055189 0.807117 0.576192 -0.423778
Cl18  Cl    Cl    0.082506 0.803435 0.328438 -0.381499
Cl19  Cl    Cl    0.082506 0.196565 0.671562 -0.381499
Cl20  Cl    Cl    0.055189 0.192883 0.423808 -0.423778
Cl21  Cl    Cl    0.582506 0.303435 0.671563 -0.381499
Cl22  Cl    Cl    0.555189 0.307117 0.423808 -0.423779
Cl23  Cl    Cl    0.555189 0.692883 0.576193 -0.423778
Cl24  Cl    Cl    0.582505 0.696564 0.328439 -0.381499
I9    I     I_    0.992169 0.678298 0.159674 -0.040843
I10   I     I_    0.962280 0.690155 0.834541 -0.058342
I11   I     I_    0.962280 0.309845 0.165459 -0.058343
I12   I     I_    0.992169 0.321702 0.840326 -0.040843
I13   I     I_    0.462280 0.190154 0.165459 -0.058344
I14   I     I_    0.492169 0.178298 0.840326 -0.040842
I15   I     I_    0.492169 0.821702 0.159674 -0.040844
I16   I     I_    0.462280 0.809845 0.834541 -0.058343
Cl25  Cl    Cl    0.170968 0.528139 0.170610 -0.309749
Cl26  Cl    Cl    0.128946 0.605621 0.915549 -0.418061
Cl27  Cl    Cl    0.128946 0.394379 0.084450 -0.418061
Cl28  Cl    Cl    0.170968 0.471861 0.829390 -0.309749
Cl29  Cl    Cl    0.628945 0.105621 0.084450 -0.418061
Cl30  Cl    Cl    0.670969 0.028139 0.829390 -0.309748
Cl31  Cl    Cl    0.670969 0.971861 0.170610 -0.309748
Cl32  Cl    Cl    0.628946 0.894379 0.915550 -0.418061

loop_
_geom_bond_atom_site_label_1
_geom_bond_atom_site_label_2
_ccdc_geom_bond_type
C16   C28   S    
C7    N3    S    
Cu3   Cu4   S    
C17   H13   S    
C6    N2    S    
C49   I13   S    
Cu1   O11   S    
C32   Cl16  S    
C19   H15   S    
C24   I4    S    
Cu4   O14   S    
C13   C25   S    
C26   Cl6   S    
C14   C33   S    
C25   Cl5   S    
C7    C8    S    
C13   H9    S    
C45   C46   S    
C44   Cl23  S    
C11   O14   A    
C32   C36   S    
C38   C42   S    
C19   C36   S    
C49   H21   S    
C5    C6    S    
C26   C39   S    
C5    Cl27  S    
C13   H1    S    
C30   Cl11  S    
C28   C40   S    
C29   C33   S    
C45   H17   S    
C16   H4    S    
C52   N4    S    
C48   H20   S    
C12   O15   A    
Cu3   O7    S    
C28   I8    S    
C16   C34   S    
C46   N2    S    
C15   C27   S    
C23   Cl3   S    
C20   C24   S    
C19   H7    S    
C22   I2    S    
C24   C38   S    
C2    O4    A    
C16   H12   S    
C27   Cl7   S    
C12   C36   S    
C18   C35   S    
C15   C34   S    
Cu2   O12   S    
C42   Cl20  S    
C4    O7    A    
C17   H5    S    
Cu4   O6    S    
C8    N4    S    
C29   C43   S    
C9    C33   S    
C32   Cl15  S    
C30   C44   S    
C8    Cl32  S    
C50   H22   S    
C7    Cl31  S    
C1    O1    A    
C14   H2    S    
C45   N1    S    
C12   O16   A    
C30   C34   S    
Cu1   O9    S    
C51   C52   S    
C41   Cl17  S    
C43   Cl21  S    
C31   Cl13  S    
Cu1   O3    S    
Cu2   O2    S    
C18   H6    S    
C39   C43   S    
Cu1   Cu2   S    
C22   C37   S    
C29   Cl9   S    
C17   C21   S    
Cu1   N2    S    
C24   Cl4   S    
C20   H8    S    
C51   N3    S    
C19   C23   S    
C26   I6    S    
C13   C33   S    
C25   I5    S    
C46   I10   S    
C5    N1    S    
C5    Cl25  S    
C47   C48   S    
C4    C39   S    
C10   O12   A    
C27   C40   S    
C15   H11   S    
Cu3   O13   S    
C14   H10   S    
C2    O3    A    
C10   C34   S    
C14   C26   S    
C42   Cl19  S    
C1    C38   S    
C3    C40   S    
C3    O6    A    
C31   C35   S    
C6    Cl26  S    
Cu4   O16   S    
C6    Cl28  S    
C9    O9    A    
C46   H18   S    
Cu4   N3    S    
C1    O2    A    
C31   C41   S    
C47   I11   S    
C18   C22   S    
C15   H3    S    
C41   Cl18  S    
C48   I12   S    
C43   Cl22  S    
C8    Cl30  S    
C31   Cl14  S    
C21   I1    S    
C50   I14   S    
C44   Cl24  S    
C23   C38   S    
C23   I3    S    
C29   Cl10  S    
C45   I9    S    
C18   H14   S    
C22   Cl2   S    
C11   O13   A    
C3    O5    A    
C49   N3    S    
C11   C35   S    
C47   H19   S    
C21   Cl1   S    
Cu3   O5    S    
C25   C39   S    
Cu2   O4    S    
C2    C37   S    
C30   Cl12  S    
C10   O11   A    
C28   Cl8   S    
C52   I16   S    
C48   N2    S    
C50   N4    S    
C47   N1    S    
C37   C41   S    
C51   H23   S    
Cu2   O10   S    
C20   C36   S    
C40   C44   S    
C21   C37   S    
C49   C50   S    
Cu3   O15   S    
C32   C42   S    
C20   H16   S    
Cu1   O1    S    
C17   C35   S    
C4    O8    A    
Cu3   N4    S    
C52   H24   S    
Cu4   O8    S    
C9    O10   A    
Cu2   N1    S    
C27   I7    S    
C7    Cl29  S    
C51   I15   S    
