data_mof_unit_30836.cif
_audit_creation_date              2012-12-10T17:23:11-0500
_audit_creation_method            fapswitch 2.2
_symmetry_space_group_name_H-M    P1
_symmetry_Int_Tables_number       1
_space_group_crystal_system       triclinic
_cell_length_a                    15.882035
_cell_length_b                    10.859593
_cell_length_c                    9.62789
_cell_angle_alpha                 90.941633
_cell_angle_beta                  90.288621
_cell_angle_gamma                 94.547198
_cell_volume                      1655.06182107

loop_
_atom_site_label
_atom_site_type_symbol
_atom_type_description
_atom_site_fract_x
_atom_site_fract_y
_atom_site_fract_z
_atom_type_partial_charge
C1    C     C_R   0.506367 0.263799 0.499233 0.795168
C2    C     C_3   0.083399 0.499565 0.499404 0.093318
C3    C     C_3   0.975541 0.574355 0.605061 -0.215106
C4    C     C_3   0.916350 0.499300 0.500598 0.058245
C5    C     C_3   0.032716 0.612526 0.481376 0.119102
C6    C     C_3   0.972317 0.541588 0.376219 -0.187642
C7    C     C_1   0.175010 0.499563 0.499116 0.009569
C8    C     C_1   0.824853 0.499133 0.501173 -0.021067
C9    C     C_R   0.587270 0.137946 0.728771 -0.266648
C10   C     C_R   0.596824 0.084268 0.858785 0.460911
C11   C     C_R   0.561133 0.965144 0.879436 -0.144817
C12   C     C_R   0.340056 0.499371 0.499672 0.831076
C13   C     C_R   0.523312 0.896297 0.769149 -0.282814
C14   C     C_R   0.521118 0.944644 0.633116 0.103245
C15   C     C_R   0.542175 0.072408 0.619762 0.055591
C16   C     C_R   0.516013 0.131296 0.498761 -0.096783
C17   C     C_R   0.488616 0.061115 0.381874 -0.174431
C18   C     C_R   0.483212 0.933723 0.385926 -0.226756
C19   C     C_R   0.498317 0.873316 0.510018 -0.096540
C20   C     C_R   0.631791 0.656957 0.136108 0.214613
C21   C     C_R   0.696742 0.711188 0.054013 -0.232620
C22   C     C_R   0.690317 0.709943 0.913121 -0.240668
C23   C     C_R   0.498115 0.737959 0.502602 0.788300
C24   C     C_R   0.620641 0.649994 0.851045 -0.123927
C25   C     C_R   0.560473 0.574419 0.924727 0.128086
C26   C     C_R   0.562640 0.575829 0.074720 0.107439
C27   C     C_R   0.442885 0.426999 0.072746 0.505280
C28   C     C_R   0.443292 0.427725 0.924194 -0.148310
C29   C     C_R   0.659863 0.499242 0.500421 0.799645
C30   C     C_3   0.964709 0.382174 0.518995 -0.207944
C31   C     C_3   0.022337 0.427189 0.398450 0.120438
C32   C     C_1   0.250463 0.499471 0.499111 -0.151828
C33   C     C_1   0.749411 0.499059 0.501171 -0.186160
C34   C     C_3   0.025327 0.458595 0.619458 0.396395
Cu1   Cu    Cu3+1 0.499990 0.499990 0.640660 0.937770
Cu2   Cu    Cu3+1 0.500010 0.500010 0.359340 1.014783
H1    H     H_    0.563240 0.924897 0.981503 0.159956
H2    H     H_    0.492302 0.808806 0.796978 0.196697
H3    H     H_    0.464582 0.882282 0.291867 0.167536
H4    H     H_    0.749092 0.767241 0.101338 0.154211
H5    H     H_    0.737033 0.762611 0.851826 0.164172
H6    H     H_    0.616485 0.668743 0.744070 0.209841
H7    H     H_    0.397130 0.368584 0.866238 0.147675
H8    H     H_    0.936506 0.286615 0.534619 0.151170
H9    H     H_    0.950411 0.576083 0.275419 0.147503
H10   H     H_    0.956056 0.635411 0.690700 0.149201
H11   H     H_    0.470150 0.104676 0.287203 0.189289
H12   H     H_    0.615957 0.230360 0.713389 0.154640
N1    N     N_R   0.500800 0.501210 0.147910 -0.197141
N2    N     N_R   0.500830 0.501290 0.852040 -0.211485
O1    O     O_R   0.499990 0.319640 0.618810 -0.584781
O2    O     O_R   0.500000 0.319660 0.381240 -0.536898
O3    O     O_R   0.379070 0.499980 0.618770 -0.571141
O4    O     O_R   0.379080 0.500000 0.381190 -0.526625
O5    O     O_R   0.500000 0.680340 0.618760 -0.621171
O6    O     O_R   0.500010 0.680360 0.381190 -0.557603
O7    O     O_R   0.620920 0.500000 0.618810 -0.604684
O8    O     O_R   0.620930 0.500020 0.381230 -0.547879
N3    N     N_3   0.047928 0.347241 0.286052 -0.565127
H13   H     H_    0.082915 0.280176 0.330264 0.225428
H14   H     H_    0.089158 0.400694 0.222762 0.228582
O9    O     O_3   0.384873 0.350992 0.143599 -0.701794
H15   H     H_    0.347829 0.302989 0.075571 0.295190
N4    N     N_3   0.635615 0.703840 0.274793 -0.509367
H16   H     H_    0.627883 0.798655 0.272018 0.202867
H17   H     H_    0.696066 0.695512 0.315815 0.192738
N5    N     N_3   0.070693 0.737409 0.461739 -0.570819
H18   H     H_    0.021407 0.794501 0.448475 0.221106
H19   H     H_    0.103716 0.737380 0.368129 0.219269
O10   O     O_3   0.054604 0.415555 0.745447 -0.716036
H20   H     H_    0.003385 0.397166 0.802197 0.322955
O11   O     O_3   0.637565 0.147375 0.968480 -0.733743
H21   H     H_    0.657679 0.231328 0.937862 0.321353

loop_
_geom_bond_atom_site_label_1
_geom_bond_atom_site_label_2
_ccdc_geom_bond_type
C6    H9    S    
Cu1   O3    S    
C24   H6    S    
C2    C7    S    
C5    N5    S    
C23   O6    A    
Cu2   O8    S    
C5    C6    S    
C22   H5    S    
C15   C16   A    
C29   C33   S    
C18   C19   A    
C31   N3    S    
C11   H1    S    
C25   N2    A    
C28   N2    A    
Cu1   Cu2   S    
C16   C17   A    
O10   H20   S    
C9    C10   A    
C34   O10   S    
C12   O3    A    
Cu2   O2    S    
C4    C8    S    
C2    C34   S    
C6    C31   S    
N3    H13   S    
C13   C14   A    
C12   C32   S    
C30   H8    S    
N3    H14   S    
C30   C34   S    
Cu1   O5    S    
N5    H18   S    
C24   C25   A    
C4    C6    S    
C26   N1    A    
C3    C34   S    
C25   C26   A    
C2    C31   S    
N5    H19   S    
N4    H17   S    
C20   N4    S    
C19   C23   S    
C18   H3    S    
O9    H15   S    
Cu2   O6    S    
C27   O9    S    
Cu1   N2    S    
C17   C18   A    
C1    C16   S    
C29   O8    A    
C1    O1    A    
C13   H2    S    
C29   O7    A    
Cu1   O1    S    
C22   C24   A    
C2    C5    S    
C3    C4    S    
C7    C32   T    
C3    H10   S    
C14   C19   A    
C17   H11   S    
O11   H21   S    
C3    C5    S    
C23   O5    A    
C28   H7    S    
Cu1   O7    S    
N4    H16   S    
C9    C15   A    
C11   C13   A    
C30   C31   S    
C21   H4    S    
C20   C26   A    
C8    C33   T    
C1    O2    A    
C12   O4    A    
Cu2   O4    S    
C10   C11   A    
C20   C21   A    
C9    H12   S    
C27   C28   A    
C14   C15   A    
C21   C22   A    
C4    C30   S    
Cu2   N1    S    
C27   N1    A    
C10   O11   S    
