data_mof_unit_57334.cif
_audit_creation_date              2012-12-11T15:54:36-0500
_audit_creation_method            fapswitch 2.2
_symmetry_space_group_name_H-M    P1
_symmetry_Int_Tables_number       1
_space_group_crystal_system       triclinic
_cell_length_a                    6.927591
_cell_length_b                    14.625297
_cell_length_c                    16.027715
_cell_angle_alpha                 90.051374
_cell_angle_beta                  90.179656
_cell_angle_gamma                 89.86994
_cell_volume                      1623.88443514

loop_
_atom_site_label
_atom_site_type_symbol
_atom_type_description
_atom_site_fract_x
_atom_site_fract_y
_atom_site_fract_z
_atom_type_partial_charge
O1    O     O_R   0.638180 0.333920 0.163320 -0.544327
O2    O     O_R   0.361820 0.666080 0.836680 -0.544326
O3    O     O_R   0.308470 0.344960 0.336080 -0.541054
O4    O     O_R   0.691530 0.655040 0.663920 -0.541054
O5    O     O_R   0.138140 0.166110 0.336680 -0.534363
O6    O     O_R   0.861860 0.833890 0.663320 -0.534363
C1    C     C_R   0.477648 0.367733 0.364625 0.688265
C2    C     C_R   0.522352 0.632267 0.635375 0.688266
O7    O     O_R   0.308460 0.344950 0.163930 -0.540698
O8    O     O_R   0.691540 0.655050 0.836070 -0.540698
O9    O     O_R   0.138140 0.166100 0.163310 -0.543552
O10   O     O_R   0.861860 0.833900 0.836690 -0.543553
C3    C     C_R   0.476541 0.368375 0.135982 0.698143
C4    C     C_R   0.523459 0.631625 0.864018 0.698143
O11   O     O_R   0.638180 0.333930 0.336700 -0.534150
O12   O     O_R   0.361820 0.666070 0.663300 -0.534151
O13   O     O_3   0.471670 0.191340 0.250000 -0.367949
O14   O     O_3   0.528330 0.808660 0.750000 -0.367949
V1    V     V_3+5 0.196830 0.260900 0.250000 1.416196
V2    V     V_3+5 0.803170 0.739100 0.750000 1.416196
O15   O     O_R   0.808420 0.155070 0.163920 -0.546965
O16   O     O_R   0.191580 0.844930 0.836080 -0.546966
C5    C     C_R   0.977468 0.132792 0.134980 0.664919
C6    C     C_R   0.022532 0.867208 0.865020 0.664920
O17   O     O_R   0.808420 0.155080 0.336070 -0.531627
O18   O     O_R   0.191580 0.844920 0.663930 -0.531628
C7    C     C_R   0.977283 0.134751 0.366003 0.799860
C8    C     C_R   0.022717 0.865249 0.633997 0.799861
V3    V     V_3+5 0.696830 0.239130 0.250000 1.425531
V4    V     V_3+5 0.303170 0.760870 0.750000 1.425531
O19   O     O_3   0.971850 0.308690 0.250010 -0.368808
O20   O     O_3   0.028150 0.691310 0.749990 -0.368808
H1    H     H_    0.072941 0.835898 0.243971 0.125923
H2    H     H_    0.927061 0.164102 0.756029 0.125923
C9    C     C_R   0.938811 0.187568 0.545070 0.186967
C10   C     C_R   0.061189 0.812432 0.454930 0.186968
C11   C     C_R   0.924021 0.210920 0.629585 -0.157067
C12   C     C_R   0.075980 0.789080 0.370415 -0.157067
C13   C     C_R   0.938627 0.144886 0.690972 -0.149521
C14   C     C_R   0.061375 0.855114 0.309028 -0.149521
C15   C     C_R   0.967588 0.054149 0.669273 -0.135452
C16   C     C_R   0.032413 0.945851 0.330727 -0.135453
C17   C     C_R   0.983185 0.026741 0.584719 0.007533
C18   C     C_R   0.016815 0.973259 0.415281 0.007533
C19   C     C_R   0.969671 0.094419 0.520551 0.073353
C20   C     C_R   0.030329 0.905581 0.479448 0.073353
C21   C     C_R   0.012538 0.933111 0.564698 -0.174640
C22   C     C_R   0.987462 0.066889 0.435302 -0.174640
H3    H     H_    0.900511 0.281461 0.647680 0.118482
H4    H     H_    0.099489 0.718539 0.352320 0.118482
H5    H     H_    0.977874 0.005829 0.720145 0.095518
H6    H     H_    0.022128 0.994171 0.279855 0.095518
C23   C     C_R   0.179625 0.974355 0.967874 -0.159759
C24   C     C_R   0.820375 0.025645 0.032126 -0.159759
H7    H     H_    0.320513 0.955607 0.944237 0.117367
H8    H     H_    0.679487 0.044393 0.055763 0.117367
C25   C     C_R   0.168466 0.037841 0.033161 -0.154565
C26   C     C_R   0.831534 0.962159 0.966839 -0.154565
H9    H     H_    0.301326 0.066212 0.057629 0.119538
H10   H     H_    0.698674 0.933788 0.942371 0.119538
C27   C     C_R   0.988680 0.064393 0.066214 -0.044081
C28   C     C_R   0.011320 0.935607 0.933786 -0.044081
C29   C     C_R   0.320466 0.468444 0.472474 -0.158714
C30   C     C_R   0.679534 0.531556 0.527526 -0.158715
H11   H     H_    0.179631 0.445440 0.452202 0.112647
H12   H     H_    0.820369 0.554560 0.547798 0.112647
C31   C     C_R   0.331662 0.530519 0.538827 -0.172382
C32   C     C_R   0.668338 0.469481 0.461173 -0.172382
H13   H     H_    0.198900 0.552741 0.568047 0.125732
H14   H     H_    0.801100 0.447259 0.431953 0.125733
C33   C     C_R   0.511284 0.563581 0.566845 -0.044082
C34   C     C_R   0.488716 0.436419 0.433155 -0.044082
C35   C     C_R   0.335701 0.501963 0.052113 0.157206
C36   C     C_R   0.664298 0.498037 0.947887 0.157206
C37   C     C_R   0.353493 0.563442 0.985334 -0.193386
C38   C     C_R   0.646507 0.436558 0.014665 -0.193386
H15   H     H_    0.240212 0.613405 0.974900 0.126653
H16   H     H_    0.759788 0.386595 0.025100 0.126653
C39   C     C_R   0.515358 0.563013 0.932766 -0.095428
C40   C     C_R   0.484642 0.436987 0.067234 -0.095428
N1    N     N_3   0.919433 0.259795 0.485534 -0.675894
H17   H     H_    0.024239 0.309059 0.498625 0.212774
H18   H     H_    0.783685 0.289568 0.493948 0.227524
N2    N     N_3   0.080565 0.740205 0.514466 -0.675895
H19   H     H_    0.975758 0.690941 0.501375 0.212775
H20   H     H_    0.216312 0.710431 0.506052 0.227524
C41   C     C_3   0.159064 0.509545 0.106649 -0.739109
H21   H     H_    0.068680 0.569706 0.089995 0.190601
H22   H     H_    0.067416 0.447986 0.098941 0.219026
H23   H     H_    0.202754 0.517393 0.172989 0.197813
C42   C     C_3   0.840936 0.490454 0.893351 -0.739109
H24   H     H_    0.931320 0.430293 0.910005 0.190601
H25   H     H_    0.797246 0.482607 0.827011 0.197813
H26   H     H_    0.932584 0.552014 0.901059 0.219026

loop_
_geom_bond_atom_site_label_1
_geom_bond_atom_site_label_2
_ccdc_geom_bond_type
C7    C22   S    
C26   C28   A    
V4    O20   S    
C41   H21   S    
C29   H11   S    
C8    C21   S    
O13   V3    S    
O4    C2    A    
V1    O19   S    
N1    H17   S    
C9    N1    S    
C13   C15   A    
O9    V1    S    
C36   C38   A    
C30   C32   A    
C9    C11   A    
N2    H20   S    
O3    C1    A    
V2    O20   S    
C25   H9    S    
O12   V4    S    
C30   C33   A    
O7    C3    A    
C35   C41   S    
O5    C7    A    
O7    V1    S    
O6    C8    A    
O8    V2    S    
O3    V1    S    
O14   V4    S    
C31   C33   A    
C14   C16   A    
C3    C40   S    
C2    O12   A    
V3    O19   S    
C15   C17   A    
C16   C18   A    
N1    H18   S    
C18   C20   A    
O11   V3    S    
C26   H10   S    
C24   H8    S    
C23   H7    S    
O17   V3    S    
C11   C13   A    
C29   C31   A    
H1    C14   S    
H2    C13   S    
N2    H19   S    
O8    C4    A    
C42   H24   S    
C23   C25   A    
C1    O11   A    
O15   V3    S    
C31   H13   S    
C30   H12   S    
C36   C42   S    
C42   H25   S    
C11   H3    S    
C23   C28   A    
C32   C34   A    
O10   V2    S    
O1    V3    S    
C4    C39   S    
C10   C20   A    
C37   H15   S    
O5    V1    S    
O18   V4    S    
C36   C39   A    
O15   C5    A    
O16   C6    A    
O1    C3    A    
C35   C37   A    
C10   C12   A    
C9    C19   A    
C1    C34   S    
C24   C26   A    
C19   C22   A    
C20   C21   A    
C2    C33   S    
C6    C28   S    
O16   V4    S    
C38   C40   A    
C38   H16   S    
C25   C27   A    
C12   H4    S    
C24   C27   A    
O17   C7    A    
O6    V2    S    
O10   C6    A    
O18   C8    A    
O2    V4    S    
C41   H22   S    
C17   C19   A    
C42   H26   S    
C12   C14   A    
C37   C39   A    
C10   N2    S    
O9    C5    A    
O13   V1    S    
C35   C40   A    
O14   V2    S    
O2    C4    A    
O4    V2    S    
C5    C27   S    
C29   C34   A    
C32   H14   S    
C41   H23   S    
C17   C21   A    
C15   H5    S    
C18   C22   A    
C16   H6    S    
