data_mof_unit_41384.cif
_audit_creation_date              2012-12-10T18:58:46-0500
_audit_creation_method            fapswitch 2.2
_symmetry_space_group_name_H-M    P1
_symmetry_Int_Tables_number       1
_space_group_crystal_system       triclinic
_cell_length_a                    13.064043
_cell_length_b                    10.963906
_cell_length_c                    9.603611
_cell_angle_alpha                 92.6137
_cell_angle_beta                  95.352836
_cell_angle_gamma                 92.509267
_cell_volume                      1366.53351927

loop_
_atom_site_label
_atom_site_type_symbol
_atom_type_description
_atom_site_fract_x
_atom_site_fract_y
_atom_site_fract_z
_atom_type_partial_charge
C1    C     C_R   0.499630 0.262674 0.497326 0.802873
C2    C     C_R   0.025323 0.497627 0.562930 0.108909
C3    C     C_R   0.972199 0.503277 0.428182 0.076364
C4    C     C_R   0.864187 0.497756 0.416807 -0.259625
C5    C     C_R   0.864057 0.454826 0.660988 -0.176116
C6    C     C_R   0.970630 0.463157 0.675351 -0.224128
C7    C     C_R   0.518741 0.073676 0.621585 0.113391
C8    C     C_R   0.503440 0.129985 0.494956 -0.111549
C9    C     C_R   0.485501 0.056651 0.371444 -0.214315
C10   C     C_R   0.479090 0.929338 0.378034 -0.205277
C11   C     C_R   0.496071 0.872322 0.505981 -0.110905
C12   C     C_R   0.300897 0.505037 0.475398 0.812034
C13   C     C_R   0.518540 0.946874 0.629347 0.053098
C14   C     C_3   0.459126 0.956890 0.757195 -0.269990
C15   C     C_3   0.458960 0.094908 0.744138 -0.263144
C16   C     C_R   0.582230 0.549539 0.086929 0.157936
C17   C     C_R   0.421450 0.445151 0.061271 -0.048755
C18   C     C_R   0.421709 0.444685 0.913017 -0.034262
C19   C     C_R   0.585170 0.543058 0.939570 0.169668
C20   C     C_3   0.633961 0.668343 0.938532 -0.063954
C21   C     C_3   0.615364 0.682301 0.094398 -0.120228
C22   C     C_R   0.497845 0.737947 0.502706 0.766957
C23   C     C_R   0.698656 0.493378 0.524501 0.794045
C24   C     C_R   0.810441 0.482947 0.535064 -0.036221
C25   C     C_R   0.188161 0.513401 0.463044 -0.122010
C26   C     C_R   0.028253 0.516247 0.309821 0.150060
C27   C     C_R   0.135548 0.510105 0.328765 -0.226414
C28   C     C_R   0.131876 0.524952 0.581917 0.080094
Cu1   Cu    Cu3+1 0.499990 0.499980 0.640670 0.957517
Cu2   Cu    Cu3+1 0.500010 0.500020 0.359330 0.939728
H1    H     H_    0.821043 0.504094 0.316497 0.143724
H2    H     H_    0.380825 0.127372 0.714009 0.117386
H3    H     H_    0.357593 0.400449 0.105839 0.146842
H4    H     H_    0.359090 0.397649 0.847796 0.121011
H5    H     H_    0.583672 0.720712 0.868185 0.201928
H6    H     H_    0.547674 0.736285 0.111430 0.187397
H7    H     H_    0.823875 0.425776 0.747971 0.163979
H8    H     H_    0.010045 0.439059 0.773463 0.140367
H9    H     H_    0.179507 0.506959 0.238959 0.183005
H10   H     H_    0.470470 0.097248 0.271434 0.197388
H11   H     H_    0.456663 0.874082 0.283706 0.182231
H12   H     H_    0.381062 0.911325 0.740418 0.139252
N1    N     N_R   0.500660 0.500930 0.148010 -0.199882
N2    N     N_R   0.500660 0.500890 0.852110 -0.192972
O1    O     O_R   0.500000 0.319640 0.618810 -0.565724
O2    O     O_R   0.500010 0.319680 0.381230 -0.581191
O3    O     O_R   0.348990 0.499960 0.599490 -0.588217
O4    O     O_R   0.349000 0.500000 0.361910 -0.594069
O5    O     O_R   0.499990 0.680320 0.618770 -0.599441
O6    O     O_R   0.500000 0.680360 0.381190 -0.588863
O7    O     O_R   0.651000 0.500000 0.638090 -0.566213
O8    O     O_R   0.651010 0.500040 0.400510 -0.600110
C29   C     C_2   0.517830 0.927280 0.891402 0.857622
O9    O     O_2   0.611966 0.937253 0.904617 -0.614677
O10   O     O_R   0.463812 0.914230 0.008066 -0.771483
H13   H     H_    0.511379 0.933398 0.095877 0.318245
C30   C     C_2   0.517186 0.173798 0.863105 0.948526
O11   O     O_2   0.600973 0.223796 0.849057 -0.574826
O12   O     O_R   0.476026 0.183372 0.992040 -0.779276
H14   H     H_    0.524821 0.229174 0.066810 0.326287
C31   C     C_3   0.747027 0.667018 0.900042 -0.336318
C32   C     C_3   0.764975 0.744376 0.775227 -0.774400
H15   H     H_    0.704301 0.724978 0.687589 0.255779
H16   H     H_    0.766301 0.842960 0.807043 0.281184
H17   H     H_    0.840689 0.724747 0.737609 0.228124
H18   H     H_    0.804112 0.702235 0.985738 0.211060
H19   H     H_    0.767679 0.572300 0.876580 0.199537
C33   C     C_3   0.704870 0.718882 0.205776 -0.364791
C34   C     C_3   0.738516 0.853939 0.203743 -0.790269
H20   H     H_    0.761250 0.877822 0.099692 0.290135
H21   H     H_    0.675079 0.911936 0.231051 0.254837
H22   H     H_    0.805465 0.874484 0.282595 0.232390
H23   H     H_    0.679947 0.704401 0.310897 0.241464
H24   H     H_    0.769977 0.660759 0.194210 0.175752
C35   C     C_3   0.973200 0.537066 0.166701 -0.400137
C36   C     C_3   0.041298 0.562515 0.049689 -0.894288
H25   H     H_    0.097041 0.640642 0.080685 0.266092
H26   H     H_    0.082689 0.479869 0.021705 0.244766
H27   H     H_    0.991599 0.587896 0.956411 0.243836
H28   H     H_    0.919891 0.457348 0.132380 0.206309
H29   H     H_    0.928418 0.619440 0.178482 0.196925
C37   C     C_3   0.179447 0.583213 0.722162 -0.385111
C38   C     C_3   0.224557 0.712606 0.707553 -0.783283
H30   H     H_    0.287469 0.713896 0.637879 0.250756
H31   H     H_    0.163437 0.771501 0.664556 0.241569
H32   H     H_    0.255849 0.751845 0.812245 0.243953
H33   H     H_    0.121295 0.594996 0.797265 0.198331
H34   H     H_    0.236541 0.524911 0.773837 0.211775

loop_
_geom_bond_atom_site_label_1
_geom_bond_atom_site_label_2
_ccdc_geom_bond_type
O10   H13   S    
C16   C21   S    
C5    H7    S    
C1    C8    S    
C19   C20   S    
C36   H27   S    
C12   O4    A    
C30   O11   D    
C7    C8    A    
C21   H6    S    
Cu1   O5    S    
C29   O9    D    
C25   C28   A    
C26   C27   A    
C32   H15   S    
Cu1   O3    S    
Cu2   O4    S    
C36   H26   S    
C34   H20   S    
C5    C6    A    
C4    C24   A    
C1    O2    A    
C30   O12   S    
C33   H24   S    
C37   H33   S    
C20   C31   S    
C34   H21   S    
C32   H16   S    
C33   C34   S    
C20   H5    S    
C31   H18   S    
C27   H9    S    
C8    C9    A    
C23   C24   S    
C6    H8    S    
C35   H28   S    
C14   H12   S    
C7    C15   S    
Cu2   O6    S    
O12   H14   S    
C13   C14   S    
C10   H11   S    
C15   C30   S    
C2    C6    A    
C17   H3    S    
C12   O3    A    
C9    C10   A    
C17   C18   A    
C29   O10   S    
C28   C37   S    
C15   H2    S    
C36   H25   S    
C35   H29   S    
C33   H23   S    
C9    H10   S    
Cu1   O1    S    
C34   H22   S    
C35   C36   S    
C17   N1    A    
Cu1   Cu2   S    
C18   N2    A    
C31   H19   S    
C23   O7    A    
C38   H30   S    
C14   C29   S    
C26   C35   S    
C18   H4    S    
C16   N1    A    
C22   O5    A    
C38   H31   S    
Cu1   N2    S    
Cu2   N1    S    
C3    C4    A    
C19   N2    A    
Cu1   O7    S    
Cu2   O8    S    
C32   H17   S    
Cu2   O2    S    
C3    C26   A    
C25   C27   A    
C11   C22   S    
C22   O6    A    
C12   C25   S    
C2    C3    A    
C21   C33   S    
C11   C13   A    
C1    O1    A    
C23   O8    A    
C5    C24   A    
C16   C19   A    
C37   H34   S    
C31   C32   S    
C4    H1    S    
C10   C11   A    
C7    C13   A    
C38   H32   S    
C20   C21   S    
C37   C38   S    
C14   C15   S    
C2    C28   A    
