data_mof_unit_31896.cif
_audit_creation_date              2013-03-05T15:52:47-0500
_audit_creation_method            fapswitch 2.2
_symmetry_space_group_name_H-M    P1
_symmetry_Int_Tables_number       1
_space_group_crystal_system       triclinic
_cell_length_a                    6.942225
_cell_length_b                    14.748025
_cell_length_c                    21.311605
_cell_angle_alpha                 74.869852
_cell_angle_beta                  90.265785
_cell_angle_gamma                 90.530638
_cell_volume                      2106.23670222

loop_
_atom_site_label
_atom_site_type_symbol
_atom_site_description
_atom_site_fract_x
_atom_site_fract_y
_atom_site_fract_z
_atom_type_partial_charge
O1    O     O_R   0.648150 0.130050 0.214300 -0.596066
O2    O     O_R   0.351850 0.869950 0.785700 -0.596063
O3    O     O_R   0.320490 0.006660 0.340150 -0.597193
O4    O     O_R   0.679510 0.993340 0.659850 -0.597195
O5    O     O_R   0.146100 0.869940 0.285700 -0.597183
O6    O     O_R   0.853900 0.130060 0.714300 -0.597183
C1    C     C_R   0.489164 0.001553 0.367158 0.992482
C2    C     C_R   0.510836 0.998448 0.632842 0.992502
O7    O     O_R   0.318690 0.137980 0.218120 -0.585751
O8    O     O_R   0.681310 0.862020 0.781880 -0.585758
O9    O     O_R   0.144280 0.002190 0.162800 -0.602259
O10   O     O_R   0.855720 0.997810 0.837200 -0.602258
C3    C     C_R   0.488307 0.175807 0.205998 1.054603
C4    C     C_R   0.511693 0.824193 0.794001 1.054628
O11   O     O_R   0.649960 0.997790 0.337200 -0.593861
O12   O     O_R   0.350040 0.002210 0.662800 -0.593858
O13   O     O_3   0.479300 0.955290 0.231990 -0.287532
O14   O     O_3   0.520700 0.044710 0.768010 -0.287532
V1    V     V_3+5 0.206040 0.008290 0.253340 1.188745
V2    V     V_3+5 0.793960 0.991710 0.746660 1.188738
O15   O     O_R   0.814320 0.993320 0.159850 -0.602618
O16   O     O_R   0.185680 0.006680 0.840150 -0.602618
C5    C     C_R   0.982872 0.998221 0.132867 0.910931
C6    C     C_R   0.017128 0.001779 0.867132 0.910931
O17   O     O_R   0.816120 0.862000 0.281880 -0.599511
O18   O     O_R   0.183880 0.138000 0.718120 -0.599510
C7    C     C_R   0.984552 0.824307 0.293895 0.948086
C8    C     C_R   0.015448 0.175693 0.706106 0.948086
V3    V     V_3+5 0.705540 0.991700 0.246660 1.179913
V4    V     V_3+5 0.294460 0.008300 0.753340 1.179911
O19   O     O_3   0.982150 0.044700 0.268010 -0.264101
O20   O     O_3   0.017850 0.955300 0.731990 -0.264105
C9    C     C_R   0.993413 0.722314 0.320869 -0.154390
C10   C     C_R   0.006591 0.277686 0.679132 -0.154390
C11   C     C_R   0.036234 0.565175 0.308923 -0.188634
C12   C     C_R   0.963810 0.434827 0.691079 -0.188624
C13   C     C_R   0.020788 0.661510 0.280874 0.046557
C14   C     C_R   0.979237 0.338491 0.719127 0.046557
C15   C     C_R   0.981504 0.686391 0.388329 -0.257254
C16   C     C_R   0.018500 0.313609 0.611671 -0.257252
C17   C     C_R   0.998214 0.588984 0.417926 0.114298
C18   C     C_R   0.001816 0.411018 0.582075 0.114294
C19   C     C_R   0.026460 0.528778 0.376640 0.139637
C20   C     C_R   0.973586 0.471225 0.623361 0.139643
C21   C     C_R   0.989616 0.549614 0.486855 0.057014
C22   C     C_R   0.010425 0.450388 0.513147 0.057017
C23   C     C_R   0.039101 0.393940 0.469650 -0.195987
C24   C     C_R   0.960959 0.606063 0.530352 -0.195985
C25   C     C_R   0.046561 0.432529 0.403009 -0.119705
C26   C     C_R   0.953504 0.567475 0.596993 -0.119682
H1    H     H_    0.069361 0.386262 0.371710 0.169030
H2    H     H_    0.930723 0.613742 0.628293 0.169013
H3    H     H_    0.038091 0.262929 0.583950 0.106406
H4    H     H_    0.961888 0.737070 0.416049 0.106407
H5    H     H_    0.057712 0.518392 0.277843 0.140834
H6    H     H_    0.942346 0.481611 0.722159 0.140826
H7    H     H_    0.057125 0.319039 0.485250 0.131534
H8    H     H_    0.942956 0.680966 0.514752 0.131530
C27   C     C_3   0.820396 0.000685 0.976331 -0.104078
C28   C     C_3   0.179604 0.999315 0.023669 -0.104079
C29   C     C_3   0.904492 0.922725 0.032932 -0.129774
C30   C     C_3   0.095508 0.077275 0.967068 -0.129775
H9    H     H_    0.824813 0.859188 0.060279 0.113100
H10   H     H_    0.175188 0.140812 0.939721 0.113101
H11   H     H_    0.671906 0.001320 0.956630 0.115225
H12   H     H_    0.328094 0.998680 0.043370 0.115225
C31   C     C_3   0.992149 0.998762 0.062258 -0.082616
C32   C     C_3   0.007851 0.001237 0.937742 -0.082617
C33   C     C_3   0.908099 0.076732 0.006454 -0.132025
C34   C     C_3   0.091901 0.923268 0.993546 -0.132024
H13   H     H_    0.832023 0.139970 0.012173 0.109548
H14   H     H_    0.167977 0.860030 0.987827 0.109547
C35   C     C_3   0.681445 0.001092 0.478135 -0.131712
C36   C     C_3   0.318555 0.998909 0.521865 -0.131711
C37   C     C_3   0.592281 0.076904 0.507366 -0.133044
C38   C     C_3   0.407719 0.923097 0.492634 -0.133038
H15   H     H_    0.668371 0.140394 0.513865 0.122425
H16   H     H_    0.331629 0.859606 0.486135 0.122422
H17   H     H_    0.831215 0.002066 0.459892 0.125138
H18   H     H_    0.168785 0.997935 0.540108 0.125136
C39   C     C_3   0.502943 0.998823 0.562284 -0.108129
C40   C     C_3   0.497057 0.001177 0.437716 -0.108127
C41   C     C_3   0.592221 0.923009 0.533856 -0.066041
C42   C     C_3   0.407780 0.076991 0.466144 -0.066051
H19   H     H_    0.669113 0.859530 0.561813 0.155612
H20   H     H_    0.330887 0.140471 0.438187 0.155615
C43   C     C_R   0.501597 0.278102 0.179806 -0.271412
C44   C     C_R   0.498404 0.721897 0.820192 -0.271417
C45   C     C_R   0.590413 0.433139 0.189049 -0.299752
C46   C     C_R   0.409627 0.566856 0.810947 -0.299752
C47   C     C_R   0.559877 0.337589 0.218765 0.363427
C48   C     C_R   0.440152 0.662407 0.781230 0.363403
C49   C     C_R   0.472851 0.314873 0.112898 -0.299403
C50   C     C_R   0.527138 0.685127 0.887100 -0.299400
C51   C     C_R   0.504242 0.411250 0.082275 0.132118
C52   C     C_R   0.495767 0.588748 0.917722 0.132122
C53   C     C_R   0.564278 0.469880 0.121939 0.131161
C54   C     C_R   0.435749 0.530116 0.878058 0.131159
C55   C     C_R   0.481048 0.450984 0.013726 0.068676
C56   C     C_R   0.518965 0.549014 0.986271 0.068673
C57   C     C_R   0.578431 0.603949 0.028295 -0.207673
C58   C     C_R   0.421594 0.396048 0.971702 -0.207671
C59   C     C_R   0.599795 0.565054 0.094550 -0.192686
C60   C     C_R   0.400240 0.434941 0.905446 -0.192688
H21   H     H_    0.646081 0.610178 0.124707 0.137840
H22   H     H_    0.353968 0.389816 0.875288 0.137840
H23   H     H_    0.568849 0.734765 0.913923 0.117772
H24   H     H_    0.431113 0.265236 0.086078 0.117778
H25   H     H_    0.634971 0.479471 0.218538 0.169615
H26   H     H_    0.365086 0.520521 0.781458 0.169626
H27   H     H_    0.610807 0.677809 0.011770 0.127209
H28   H     H_    0.389231 0.322186 0.988226 0.127207
N1    N     N_R   0.411156 0.697212 0.712082 0.226945
O21   O     O_R   0.505554 0.770403 0.678713 -0.468353
O22   O     O_R   0.303967 0.650438 0.680962 -0.428826
N2    N     N_R   0.588892 0.302781 0.287912 0.226948
O23   O     O_R   0.494416 0.229620 0.321287 -0.468343
O24   O     O_R   0.696183 0.349525 0.319024 -0.428822
C61   C     C_1   0.964680 0.303398 0.788869 0.003959
N3    N     N_1   0.952729 0.275377 0.844745 -0.102290
C62   C     C_1   0.035348 0.696603 0.211132 0.003960
N4    N     N_1   0.047300 0.724624 0.155257 -0.102289

loop_
_geom_bond_atom_site_label_1
_geom_bond_atom_site_label_2
_geom_bond_distance
_ccdc_geom_bond_type
C29   C34   1.550400 S    
C43   C47   1.411839 A    
O13   V3    1.708907 S    
C58   H28   1.075662 S    
O4    C2    1.296493 A    
V1    O19   1.705732 S    
C60   H22   1.084709 S    
C23   C25   1.386285 A    
C21   C22   1.432295 A    
N2    O23   1.300331 A    
O9    V1    1.999331 S    
C9    C15   1.398985 A    
C36   C38   1.549622 S    
C52   C56   1.433944 A    
C10   C16   1.398985 A    
C11   C13   1.395078 A    
C42   H20   1.109733 S    
O3    C1    1.296494 A    
C49   H24   1.076811 S    
C51   C55   1.433941 A    
C37   C42   1.549631 S    
C15   H4    1.076704 S    
O12   V4    1.994527 S    
C45   H25   1.084437 S    
C47   N2    1.442202 S    
C28   C30   1.549105 S    
C18   C22   1.433002 A    
C5    C31   1.504415 S    
C33   H13   1.110246 S    
O7    C3    1.296119 A    
C30   H10   1.109951 S    
O5    C7    1.291384 A    
O7    V1    2.015340 S    
O6    C8    1.291386 A    
C44   C48   1.411852 A    
C28   C31   1.541473 S    
O8    V2    2.015339 S    
C25   H1    1.084513 S    
C52   C54   1.416854 A    
C26   H2    1.084512 S    
O3    V1    2.004516 S    
O14   V4    1.708906 S    
C45   C47   1.400578 A    
C11   C19   1.404034 A    
C48   N1    1.442209 S    
C24   C26   1.386287 A    
C28   H12   1.110467 S    
C2    O12   1.297315 A    
C36   H18   1.110397 S    
C17   C19   1.419052 A    
O10   V2    1.999331 S    
C18   C20   1.419051 A    
C38   C41   1.549632 S    
C39   C41   1.539897 S    
O11   V3    1.994527 S    
O17   V3    2.020877 S    
C44   C50   1.401013 A    
C50   H23   1.076817 S    
C27   C29   1.549104 S    
C11   H5    1.085529 S    
C2    C39   1.503024 S    
C15   C17   1.415778 A    
O8    C4    1.296119 A    
C38   C40   1.539628 S    
C37   C39   1.539629 S    
C1    O11   1.297314 A    
O15   V3    1.995783 S    
C9    C13   1.403710 A    
C30   C33   1.550401 S    
C45   C53   1.402474 A    
C31   C33   1.539212 S    
C58   C60   1.386221 A    
C12   H6    1.085531 S    
C27   C32   1.541473 S    
C23   H7    1.075588 S    
C29   C31   1.538888 S    
C46   C48   1.400586 A    
C55   C56   1.433397 A    
C28   C34   1.549288 S    
C3    C43   1.467800 S    
O1    V3    2.018779 S    
C35   H17   1.110396 S    
C59   H21   1.084708 S    
C50   C52   1.415992 A    
C37   H15   1.110335 S    
C62   N4    1.157179 T    
C53   C59   1.392451 A    
C27   C33   1.549290 S    
C13   C62   1.444322 S    
C14   C61   1.444320 S    
C41   H19   1.109734 S    
O18   V4    2.020877 S    
C40   C42   1.539897 S    
O15   C5    1.299256 A    
O16   C6    1.299258 A    
C12   C20   1.404033 A    
O1    C3    1.291424 A    
C1    C40   1.503024 S    
C35   C37   1.549622 S    
C36   C39   1.539411 S    
C35   C40   1.539410 S    
N1    O21   1.300330 A    
V2    O20   1.705734 S    
C21   C24   1.414080 A    
C20   C26   1.391661 A    
C36   C42   1.549091 S    
C22   C23   1.414078 A    
C17   C21   1.433001 A    
O16   V4    1.995778 S    
C10   C14   1.403710 A    
C29   H9    1.109953 S    
C19   C25   1.391660 A    
C38   H16   1.110335 S    
C16   C18   1.415776 A    
C61   N3    1.157180 T    
C51   C53   1.416859 A    
C24   H8    1.075587 S    
O5    V1    2.016016 S    
O17   C7    1.294908 A    
O6    V2    2.016017 S    
O10   C6    1.295220 A    
O18   C8    1.294907 A    
C57   C59   1.386218 A    
C30   C32   1.538887 S    
O2    V4    2.018781 S    
C12   C14   1.395077 A    
C4    C44   1.467806 S    
V3    O19   2.157604 S    
C27   H11   1.110467 S    
V4    O20   2.157603 S    
C49   C51   1.415993 A    
C54   C60   1.392452 A    
C57   H27   1.075663 S    
C43   C49   1.401018 A    
O9    C5    1.295221 A    
C56   C57   1.413528 A    
O13   V1    2.153569 S    
N2    O24   1.301603 A    
O14   V2    2.153568 S    
O2    C4    1.291423 A    
C6    C32   1.504416 S    
C8    C10   1.465209 S    
O4    V2    2.004519 S    
C55   C58   1.413529 A    
C32   C34   1.539212 S    
C16   H3    1.076705 S    
C7    C9    1.465208 S    
C46   H26   1.084442 S    
C34   H14   1.110248 S    
C35   C41   1.549093 S    
C46   C54   1.402470 A    
N1    O22   1.301610 A    
