data_mof_unit_17074.cif
_audit_creation_date              2012-12-11T14:27:03-0500
_audit_creation_method            fapswitch 2.2
_symmetry_space_group_name_H-M    P1
_symmetry_Int_Tables_number       1
_space_group_crystal_system       triclinic
_cell_length_a                    14.999925
_cell_length_b                    14.915763
_cell_length_c                    14.93491
_cell_angle_alpha                 109.630944
_cell_angle_beta                  109.367619
_cell_angle_gamma                 109.343359
_cell_volume                      2574.52236579

loop_
_atom_site_label
_atom_site_type_symbol
_atom_type_description
_atom_site_fract_x
_atom_site_fract_y
_atom_site_fract_z
_atom_type_partial_charge
C1    C     C_R   0.006549 0.804801 0.100541 -0.150336
C2    C     C_R   0.218411 0.744882 0.312782 -0.145395
C3    C     C_R   0.897570 0.408858 0.202064 -0.109674
C4    C     C_R   0.787135 0.203683 0.694893 -0.155698
C5    C     C_R   0.295952 0.589264 0.990207 -0.131885
C6    C     C_R   0.921642 0.498520 0.293008 0.069525
C7    C     C_R   0.299982 0.498323 0.933261 0.023389
C8    C     C_R   0.321349 0.771020 0.325717 0.123438
C9    C     C_R   0.016147 0.185215 0.008822 0.026895
C10   C     C_3   0.472884 0.408848 0.820634 -0.152356
C11   C     C_3   0.367318 0.409925 0.815990 -0.167500
C12   C     C_R   0.691006 0.144603 0.689807 0.153461
C13   C     C_3   0.556426 0.477544 0.025206 -0.475033
C14   C     C_3   0.582401 0.613539 0.957959 -0.396485
C15   C     C_3   0.573366 0.500412 0.936314 0.281282
C16   C     C_R   0.041105 0.593012 0.778388 -0.137959
C17   C     C_3   0.397331 0.499230 0.930303 0.234869
C18   C     C_3   0.451194 0.472260 0.019401 -0.103921
C19   C     C_3   0.479956 0.613452 0.956255 -0.402946
C20   C     C_2   0.440198 0.863193 0.528517 0.116132
C21   C     C_2   0.425186 0.823707 0.426253 -0.241795
C22   C     C_2   0.542987 0.962614 0.619559 -0.171688
C23   C     C_R   0.972844 0.501677 0.675058 0.135823
C24   C     C_2   0.604786 0.035613 0.601610 -0.214226
C25   C     C_2   0.845322 0.426937 0.483857 -0.157117
C26   C     C_2   0.941555 0.504154 0.573929 -0.187179
C27   C     C_2   0.829985 0.411873 0.376251 0.021500
C28   C     C_R   0.686256 0.408782 0.932923 -0.138699
C29   C     C_2   0.872112 0.499653 0.363696 0.005575
C30   C     C_2   0.145037 0.126551 0.076625 0.024582
C31   C     C_2   0.040186 0.104419 0.026477 -0.043682
C32   C     C_2   0.168097 0.041730 0.086805 -0.170045
C33   C     C_2   0.119987 0.987911 0.127676 -0.194244
C34   C     C_R   0.675366 0.500981 0.949420 0.035959
C35   C     C_R   0.948379 0.408827 0.685653 -0.118911
C36   C     C_R   0.777658 0.592411 0.024768 -0.131438
C37   C     C_R   0.697026 0.202657 0.787463 -0.129675
C38   C     C_R   0.097446 0.804537 0.009655 -0.120655
C39   C     C_R   0.073740 0.869713 0.077405 0.151010
C40   C     C_1   0.886757 0.181979 0.081589 0.005114
C41   C     C_1   0.491449 0.418034 0.731812 0.088006
C42   C     C_1   0.305903 0.424173 0.725980 0.090280
C43   C     C_1   0.473314 0.544492 0.129803 0.093482
C44   C     C_1   0.356484 0.817632 0.553337 0.032552
C45   C     C_R   0.988917 0.589770 0.294926 -0.139229
C46   C     C_1   0.884501 0.603724 0.432663 0.043873
C47   C     C_1   0.237234 0.231062 0.116514 0.065538
C48   C     C_1   0.946499 0.997282 0.977679 0.086270
C49   C     C_R   0.210236 0.407796 0.906933 -0.139860
C50   C     C_R   0.312411 0.749175 0.224290 0.045657
C51   C     C_R   0.951861 0.224028 0.037835 0.075942
C52   C     C_R   0.046852 0.229369 0.949619 -0.144596
H1    H     H_    0.986317 0.833900 0.163647 0.092626
H2    H     H_    0.551468 0.397931 0.013667 0.150262
H3    H     H_    0.394430 0.387033 0.995165 0.107603
H4    H     H_    0.652270 0.680753 0.040041 0.155057
H5    H     H_    0.594982 0.632903 0.895924 0.172107
H6    H     H_    0.442611 0.634958 0.894701 0.167525
H7    H     H_    0.504805 0.678853 0.038001 0.156993
H8    H     H_    0.628684 0.542169 0.107721 0.180802
H9    H     H_    0.077555 0.678263 0.799720 0.102536
H10   H     H_    0.495979 0.845574 0.415585 0.138776
H11   H     H_    0.560879 0.982759 0.702760 0.131759
H12   H     H_    0.182846 0.322707 0.854447 0.083099
H13   H     H_    0.588979 0.019811 0.520055 0.135876
H14   H     H_    0.787405 0.362177 0.486471 0.130528
H15   H     H_    0.003014 0.566771 0.572502 0.144050
H16   H     H_    0.200798 0.008633 0.037758 0.125720
H17   H     H_    0.621935 0.324277 0.885623 0.091236
H18   H     H_    0.089607 0.024813 0.177721 0.140858
H19   H     H_    0.900872 0.324190 0.620615 0.092937
H20   H     H_    0.800648 0.677985 0.060070 0.098037
H21   H     H_    0.642173 0.173657 0.816087 0.087762
H22   H     H_    0.160400 0.832610 0.989531 0.082152
H23   H     H_    0.090688 0.210611 0.908269 0.106924
H24   H     H_    0.009541 0.673317 0.344609 0.102116
H25   H     H_    0.435722 0.752744 0.195935 0.108918
H26   H     H_    0.373372 0.816331 0.145695 0.093665
H27   H     H_    0.834689 0.270665 0.322584 0.120468
H28   H     H_    0.708178 0.254641 0.275899 0.102219
H29   H     H_    0.194043 0.753479 0.373853 0.122347
H30   H     H_    0.828771 0.327972 0.160424 0.121967
H31   H     H_    0.343273 0.670939 0.006640 0.083237
H32   H     H_    0.462184 0.327601 0.809086 0.090925
H33   H     H_    0.814402 0.174070 0.638527 0.095591
H34   H     H_    0.311406 0.327814 0.798952 0.085437
N1    N     N_R   0.993980 0.704500 0.053430 -0.039444
N2    N     N_R   0.053690 0.556380 0.849240 -0.043486
N3    N     N_R   0.790390 0.443640 0.997160 -0.039755
N4    N     N_R   0.998260 0.443670 0.792970 -0.042328
N5    N     N_R   0.845830 0.556350 0.053430 -0.038462
N6    N     N_R   0.792820 0.295510 0.849240 -0.043290
N7    N     N_R   0.051260 0.704510 0.997160 -0.043696
N8    N     N_R   0.001740 0.556330 0.207030 -0.041857
N9    N     N_3   0.401707 0.802888 0.211225 -0.229106
N10   N     N_1   0.834443 0.146418 0.116111 -0.103342
N11   N     N_1   0.506147 0.425213 0.662574 -0.080061
N12   N     N_R   0.154170 0.443650 0.946570 -0.031786
N13   N     N_1   0.257813 0.435327 0.655892 -0.087305
N14   N     N_1   0.490669 0.600482 0.216193 -0.092636
N15   N     N_1   0.290152 0.781387 0.574136 -0.100339
N16   N     N_3   0.786791 0.302152 0.292143 -0.222840
N17   N     N_1   0.894307 0.686596 0.487479 -0.090454
N18   N     N_1   0.310854 0.314541 0.148292 -0.087485
N19   N     N_1   0.871593 0.912037 0.938603 -0.088421
N20   N     N_R   0.207180 0.704490 0.150760 -0.059747
N21   N     N_R   0.948740 0.295490 0.002840 -0.064605
N22   N     N_R   0.006020 0.295500 0.946570 -0.049493
N23   N     N_R   0.149890 0.704480 0.207030 -0.053997
N24   N     N_R   0.946310 0.443620 0.150760 -0.047418
N25   N     N_R   0.209610 0.556360 0.002840 -0.037746
N26   N     N_R   0.850110 0.295520 0.792970 -0.039965
Ni1   Ni    Ni4+2 0.997880 0.629240 0.129060 0.207243
Ni2   Ni    Ni4+2 0.002120 0.370760 0.870940 0.214242
Ni3   Ni    Ni4+2 0.129260 0.629260 0.000000 0.205188
Ni4   Ni    Ni4+2 0.870740 0.370740 0.000000 0.212348

loop_
_geom_bond_atom_site_label_1
_geom_bond_atom_site_label_2
_ccdc_geom_bond_type
C1    N1    A    
C14   H4    S    
C2    N23   A    
C6    C45   A    
N24   Ni4   S    
C27   C29   D    
C28   H17   S    
C9    C51   A    
C52   H23   S    
N26   Ni2   S    
C13   H8    S    
C33   C39   S    
C13   C18   S    
C45   H24   S    
C26   H15   S    
C10   C15   S    
C30   C31   D    
C5    H31   S    
C50   N9    S    
N12   Ni2   S    
C11   H34   S    
C49   N12   A    
C11   C42   S    
N7    Ni3   S    
C23   C26   S    
N22   Ni2   S    
C12   C37   A    
C1    H1    S    
C22   H11   S    
C7    C17   S    
C29   C46   S    
N21   N22   A    
H27   N16   S    
C28   N3    A    
C47   N18   T    
C4    C12   A    
C15   C34   S    
C34   C36   A    
N23   Ni1   S    
C32   H16   S    
C3    C6    A    
C4    N26   A    
N3    Ni4   S    
C28   C34   A    
C49   H12   S    
C10   C41   S    
C9    C52   A    
C40   N10   T    
C45   N8    A    
C20   C44   S    
N8    Ni1   S    
C8    C21   S    
C19   H6    S    
C30   C47   S    
C43   N14   T    
C7    C49   A    
C5    C7    A    
C1    C39   A    
N6    N26   A    
C4    H33   S    
C5    N25   A    
C19   H7    S    
C25   C26   D    
N8    N24   A    
N5    Ni1   S    
H28   N16   S    
C48   N19   T    
H26   N9    S    
C3    H30   S    
C17   C18   S    
N6    Ni4   S    
C21   H10   S    
C33   H18   S    
C24   H13   S    
C36   N5    A    
C20   C22   S    
C16   C23   A    
C23   C35   A    
C31   C48   S    
C13   C15   S    
C22   C24   D    
N3    N5    A    
C16   H9    S    
C8    C50   A    
C16   N2    A    
C13   H2    S    
C38   H22   S    
C14   H5    S    
C37   H21   S    
C11   C17   S    
N12   N25   A    
C37   N6    A    
C14   C19   S    
C2    C8    A    
C25   H14   S    
N2    N4    A    
C44   N15   T    
C25   C27   S    
C40   C51   S    
C46   N17   T    
C12   C24   S    
C27   N16   S    
N20   Ni3   S    
C32   C33   D    
N2    Ni3   S    
C42   N13   T    
C30   C32   S    
C38   C39   A    
C18   H3    S    
N1    N7    A    
C38   N7    A    
C10   H32   S    
C17   C19   S    
H25   N9    S    
C41   N11   T    
N4    Ni2   S    
N21   Ni4   S    
N1    Ni1   S    
C10   C11   S    
C9    C31   S    
C35   H19   S    
C35   N4    A    
C6    C29   S    
C20   C21   D    
C52   N22   A    
C51   N21   A    
C50   N20   A    
C14   C15   S    
C2    H29   S    
N25   Ni3   S    
C3    N24   A    
C18   C43   S    
C36   H20   S    
N20   N23   A    
