data_mof_unit_57972.cif
_audit_creation_date              2012-12-10T19:25:53-0500
_audit_creation_method            fapswitch 2.2
_symmetry_space_group_name_H-M    P1
_symmetry_Int_Tables_number       1
_space_group_crystal_system       triclinic
_cell_length_a                    9.812527
_cell_length_b                    10.462834
_cell_length_c                    16.486779
_cell_angle_alpha                 90.221143
_cell_angle_beta                  82.198751
_cell_angle_gamma                 90.633813
_cell_volume                      1676.87252973

loop_
_atom_site_label
_atom_site_type_symbol
_atom_type_description
_atom_site_fract_x
_atom_site_fract_y
_atom_site_fract_z
_atom_type_partial_charge
C1    C     C_R   0.500597 0.742069 0.498981 0.974902
C2    C     C_3   0.597338 0.960147 0.438495 -0.303094
C3    C     C_3   0.945234 0.599869 0.536604 0.126648
C4    C     C_3   0.054821 0.400080 0.463355 0.129838
C5    C     C_3   0.059019 0.599885 0.462824 -0.158194
C6    C     C_3   0.941003 0.400023 0.537186 -0.161366
C7    C     C_3   0.030600 0.500433 0.573635 0.148918
C8    C     C_3   0.969418 0.499557 0.426352 0.148612
C9    C     C_R   0.477512 0.498107 0.653479 0.867462
C10   C     C_R   0.522481 0.506221 0.346680 0.945615
C11   C     C_R   0.457127 0.498846 0.741997 -0.161140
C12   C     C_R   0.499445 0.257946 0.500878 0.920533
C13   C     C_R   0.543555 0.548340 0.262259 -0.092348
C14   C     C_R   0.526906 0.412221 0.787182 0.377391
C15   C     C_R   0.476710 0.659156 0.240212 0.380444
C16   C     C_R   0.523024 0.431367 0.871915 0.104894
C17   C     C_R   0.497862 0.699881 0.157331 0.035165
C18   C     C_R   0.448161 0.536128 0.909140 0.067540
C19   C     C_R   0.586377 0.627034 0.100437 0.102937
C20   C     C_R   0.370360 0.613245 0.864715 -0.195441
C21   C     C_R   0.664030 0.527690 0.126292 -0.189260
C22   C     C_R   0.374951 0.594839 0.781360 -0.233597
C23   C     C_3   0.373904 0.957309 0.486677 -0.247974
C24   C     C_R   0.642082 0.487939 0.206833 -0.304264
C25   C     C_2   0.455949 0.571642 0.993562 -0.202731
C26   C     C_2   0.570254 0.626118 0.014038 -0.224250
C27   C     C_3   0.881862 0.724470 0.572426 -0.354197
C28   C     C_3   0.986713 0.806411 0.611341 -0.406827
C29   C     C_3   0.937855 0.943554 0.625602 -0.856624
C30   C     C_3   0.118848 0.275989 0.426965 -0.355822
C31   C     C_3   0.014854 0.194106 0.387327 -0.403801
C32   C     C_3   0.067629 0.059107 0.368716 -0.863190
C33   C     C_3   0.068098 0.492649 0.660458 -0.406865
C34   C     C_3   0.626256 0.042770 0.512792 -0.274680
C35   C     C_3   0.939903 0.483166 0.724805 -0.358768
C36   C     C_3   0.979167 0.481624 0.811218 -0.879729
C37   C     C_3   0.932486 0.508783 0.339437 -0.394827
C38   C     C_3   0.061396 0.518130 0.275592 -0.370893
C39   C     C_3   0.023448 0.526325 0.189070 -0.902888
C40   C     C_3   0.431776 0.820083 0.129116 -0.437966
C41   C     C_3   0.276044 0.803979 0.128418 -0.341258
C42   C     C_3   0.210234 0.931268 0.112418 -0.896506
C43   C     C_3   0.597385 0.339909 0.922007 -0.376378
C44   C     C_3   0.495175 0.253376 0.975783 -0.335759
C45   C     C_3   0.471655 0.042106 0.429095 0.509595
C46   C     C_3   0.569119 0.165752 0.028942 -0.890009
C47   C     C_3   0.528505 0.958046 0.570403 0.486482
C48   C     C_3   0.499648 0.123152 0.501585 -0.064606
C49   C     C_3   0.500502 0.876881 0.497962 -0.063458
C50   C     C_3   0.402822 0.039899 0.560985 -0.327392
H1    H     H_    0.697811 0.406556 0.225261 0.164564
H2    H     H_    0.673870 0.923532 0.388210 0.155235
H3    H     H_    0.113034 0.684028 0.432034 0.149661
H4    H     H_    0.886984 0.315973 0.568077 0.135569
H5    H     H_    0.569291 0.291087 0.696804 0.322231
H6    H     H_    0.367477 0.807589 0.282297 0.324364
H7    H     H_    0.929198 0.990346 0.566260 0.251906
H8    H     H_    0.836671 0.945150 0.664950 0.289002
H9    H     H_    0.013575 0.998497 0.656509 0.244699
H10   H     H_    0.002493 0.765049 0.671163 0.227260
H11   H     H_    0.087239 0.808564 0.571150 0.229751
H12   H     H_    0.320635 0.660436 0.746736 0.168656
H13   H     H_    0.846538 0.778894 0.521590 0.226103
H14   H     H_    0.791578 0.702728 0.618708 0.238832
H15   H     H_    0.167916 0.062132 0.328419 0.284387
H16   H     H_    0.079415 0.008833 0.426421 0.254492
H17   H     H_    0.992580 0.004531 0.337071 0.245614
H18   H     H_    0.915679 0.187511 0.428642 0.230034
H19   H     H_    0.995610 0.238351 0.329015 0.227404
H20   H     H_    0.209190 0.298705 0.380948 0.236499
H21   H     H_    0.154124 0.220854 0.477515 0.226325
H22   H     H_    0.045395 0.398357 0.819041 0.264751
H23   H     H_    0.658521 0.645146 0.968130 0.156056
H24   H     H_    0.035158 0.571075 0.823304 0.259910
H25   H     H_    0.884668 0.474340 0.856462 0.246967
H26   H     H_    0.871537 0.565605 0.719490 0.233475
H27   H     H_    0.881581 0.394068 0.714998 0.256307
H28   H     H_    0.131414 0.406182 0.664709 0.217500
H29   H     H_    0.129669 0.578499 0.672316 0.211951
H30   H     H_    0.964780 0.439606 0.174803 0.262774
H31   H     H_    0.960519 0.612434 0.182763 0.271873
H32   H     H_    0.118638 0.532915 0.144347 0.243613
H33   H     H_    0.122387 0.604539 0.287585 0.243932
H34   H     H_    0.371217 0.544187 0.039905 0.149769
H35   H     H_    0.126991 0.433238 0.279308 0.233552
H36   H     H_    0.870301 0.423697 0.326840 0.210775
H37   H     H_    0.869924 0.595850 0.335515 0.219471
H38   H     H_    0.224664 0.000911 0.161665 0.264073
H39   H     H_    0.256786 0.970815 0.052428 0.264881
H40   H     H_    0.098233 0.916680 0.111318 0.251670
H41   H     H_    0.256518 0.735742 0.079552 0.222392
H42   H     H_    0.224915 0.765538 0.187524 0.236796
H43   H     H_    0.454292 0.901887 0.168544 0.186989
H44   H     H_    0.479427 0.847555 0.066503 0.219925
H45   H     H_    0.311673 0.691993 0.893980 0.156513
H46   H     H_    0.641171 0.102505 0.989999 0.261390
H47   H     H_    0.627250 0.223234 0.069800 0.265806
H48   H     H_    0.492463 0.105296 0.067469 0.254549
H49   H     H_    0.420657 0.311722 0.016548 0.224485
H50   H     H_    0.436615 0.193840 0.936141 0.227356
H51   H     H_    0.669880 0.278391 0.882095 0.248481
H52   H     H_    0.662150 0.394601 0.960194 0.183196
H53   H     H_    0.438965 0.021153 0.317858 0.317274
H54   H     H_    0.569003 0.981328 0.679903 0.332969
H55   H     H_    0.733303 0.473556 0.082663 0.146256
H56   H     H_    0.273549 0.917835 0.474134 0.159351
H57   H     H_    0.726710 0.081970 0.525401 0.157096
H58   H     H_    0.326188 0.076440 0.611237 0.155064
N1    N     N_3   0.136700 0.499970 0.500060 -0.115410
N2    N     N_3   0.863300 0.500030 0.499940 -0.115297
O1    O     O_R   0.383390 0.686040 0.500000 -0.612834
O2    O     O_3   0.394512 0.723876 0.301661 -0.808687
O3    O     O_3   0.441922 0.094533 0.355716 -0.796998
O4    O     O_3   0.558205 0.906650 0.644070 -0.789128
O5    O     O_R   0.616610 0.313960 0.500000 -0.634841
O6    O     O_R   0.616650 0.686050 0.499970 -0.632741
O7    O     O_R   0.383350 0.313950 0.500030 -0.629229
O8    O     O_R   0.369590 0.500020 0.615820 -0.637589
O9    O     O_R   0.630410 0.499980 0.384180 -0.644606
O10   O     O_R   0.602840 0.500020 0.615790 -0.601653
O11   O     O_R   0.397160 0.499980 0.384210 -0.573713
O12   O     O_3   0.598650 0.309064 0.750850 -0.812680
Zn1   Zn    Zn3+2 0.344250 0.499990 0.500020 0.939157
Zn2   Zn    Zn3+2 0.655750 0.500010 0.499980 0.923596

loop_
_geom_bond_atom_site_label_1
_geom_bond_atom_site_label_2
_ccdc_geom_bond_type
C47   O4    S    
C4    N1    S    
C14   O12   S    
C38   H33   S    
C6    N2    S    
C41   C42   S    
C35   C36   S    
C40   H43   S    
C4    C8    S    
C10   O11   A    
C30   H21   S    
C47   C49   S    
O9    Zn2   S    
C23   C45   S    
C34   H57   S    
C5    H3    S    
C28   C29   S    
C2    C49   S    
C3    C7    S    
C30   C31   S    
C33   C35   S    
C44   H49   S    
C33   H28   S    
C23   C49   S    
C3    N2    S    
C26   H23   S    
C19   C26   S    
C10   O9    A    
N2    Zn2   S    
O10   Zn2   S    
C29   H9    S    
C34   C48   S    
C25   H34   S    
C1    O6    A    
C12   C48   S    
C12   O5    A    
C28   H11   S    
C2    C34   S    
C24   H1    S    
C48   C50   S    
C46   H48   S    
H5    O12   S    
C50   H58   S    
C9    O8    A    
C7    C33   S    
C18   C25   S    
C46   H47   S    
C6    H4    S    
C30   H20   S    
C44   C46   S    
C47   C50   S    
C28   H10   S    
C2    C45   S    
C31   H18   S    
C35   H26   S    
C29   H7    S    
C38   H35   S    
O1    Zn1   S    
C37   H36   S    
C39   H31   S    
C4    C6    S    
N1    Zn1   S    
C23   C50   S    
C25   C26   D    
C23   H56   S    
C35   H27   S    
C7    N1    S    
C13   C24   A    
C42   H40   S    
C17   C40   S    
C43   C44   S    
C43   H51   S    
C37   C38   S    
C2    H2    S    
C36   H25   S    
C8    N2    S    
C22   H12   S    
C31   C32   S    
C9    C11   S    
C16   C43   S    
C27   H13   S    
C32   H17   S    
H54   O4    S    
C40   C41   S    
C41   H41   S    
C20   H45   S    
C20   C22   A    
C13   C15   A    
C14   C16   A    
C42   H38   S    
C8    C37   S    
C17   C19   A    
C32   H16   S    
C45   C48   S    
C15   C17   A    
C36   H24   S    
O5    Zn2   S    
O6    Zn2   S    
H53   O3    S    
C15   O2    S    
C37   H37   S    
C33   H29   S    
C39   H32   S    
C40   H44   S    
C3    C5    S    
C10   C13   S    
C5    C8    S    
C6    C7    S    
C11   C22   A    
C42   H39   S    
C39   H30   S    
C3    C27   S    
O7    Zn1   S    
C43   H52   S    
C1    O1    A    
C44   H50   S    
C38   C39   S    
C5    N1    S    
C11   C14   A    
C18   C20   A    
O8    Zn1   S    
C4    C30   S    
O11   Zn1   S    
C27   H14   S    
C12   O7    A    
C45   O3    S    
C31   H19   S    
C41   H42   S    
C46   H46   S    
C29   H8    S    
C16   C18   A    
C21   C24   A    
C27   C28   S    
C9    O10   A    
C34   C47   S    
C1    C49   S    
H6    O2    S    
C21   H55   S    
C36   H22   S    
C32   H15   S    
C19   C21   A    
