data_mof_unit_34047.cif
_audit_creation_date              2012-10-26T21:20:14-0400
_audit_creation_method            fapswitch 2.2
_symmetry_space_group_name_H-M    P1
_symmetry_Int_Tables_number       1
_space_group_crystal_system       triclinic
_cell_length_a                    12.983775
_cell_length_b                    10.909666
_cell_length_c                    9.500778
_cell_angle_alpha                 88.810469
_cell_angle_beta                  96.014465
_cell_angle_gamma                 88.860985
_cell_volume                      1337.74691578

loop_
_atom_site_label
_atom_site_type_symbol
_atom_type_description
_atom_site_fract_x
_atom_site_fract_y
_atom_site_fract_z
_atom_type_partial_charge
C1    C     C_R   0.501187 0.261968 0.502410 0.579523
C2    C     C_R   0.699229 0.495448 0.526110 0.597369
C3    C     C_R   0.811400 0.482163 0.539200 0.031519
C4    C     C_R   0.188602 0.517814 0.460797 0.031504
C5    C     C_R   0.037194 0.652291 0.434329 -0.077205
C6    C     C_R   0.962802 0.347650 0.565590 -0.077195
C7    C     C_R   0.141977 0.632953 0.424479 0.048015
C8    C     C_R   0.858015 0.367005 0.575441 0.048022
C9    C     C_R   0.129305 0.420495 0.504062 0.043175
C10   C     C_R   0.870706 0.579479 0.495969 0.043169
C11   C     C_R   0.023244 0.441251 0.517256 0.016074
C12   C     C_R   0.498814 0.738032 0.497591 0.579516
C13   C     C_R   0.976760 0.558694 0.482717 0.016080
C14   C     C_R   0.484812 0.070693 0.376066 -0.100743
C15   C     C_R   0.515170 0.929311 0.623932 -0.100739
C16   C     C_R   0.482359 0.944070 0.366122 0.025764
C17   C     C_R   0.517646 0.055932 0.633876 0.025766
C18   C     C_3   0.461837 0.894932 0.217228 -0.248108
C19   C     C_3   0.562519 0.877137 0.149924 -0.419182
C20   C     C_3   0.538232 0.105070 0.782766 -0.248079
C21   C     C_3   0.437590 0.122831 0.850180 -0.419159
C22   C     C_R   0.498327 0.871980 0.493338 0.046316
C23   C     C_R   0.501668 0.128023 0.506660 0.046321
C24   C     C_R   0.424004 0.442736 0.064933 0.016887
C25   C     C_R   0.575992 0.557270 0.935066 0.016886
C26   C     C_R   0.423850 0.443155 0.916065 0.013895
C27   C     C_R   0.576139 0.556861 0.083933 0.013906
C28   C     C_R   0.300772 0.504555 0.473891 0.597366
Cu1   Cu    Cu3+1 0.500000 0.500020 0.640660 0.981134
Cu2   Cu    Cu3+1 0.500000 0.499980 0.359340 0.981127
H1    H     H_    0.004825 0.742376 0.405748 0.188746
H2    H     H_    0.615437 0.812216 0.214784 0.196340
H3    H     H_    0.545536 0.839979 0.042228 0.125319
H4    H     H_    0.416716 0.810109 0.212330 0.206122
H5    H     H_    0.411695 0.961214 0.149165 0.138794
H6    H     H_    0.454608 0.160056 0.957849 0.125318
H7    H     H_    0.384613 0.187697 0.785358 0.196345
H8    H     H_    0.398624 0.033707 0.859445 0.163960
H9    H     H_    0.588422 0.038800 0.850783 0.138829
H10   H     H_    0.583340 0.189903 0.787617 0.206116
H11   H     H_    0.995161 0.257555 0.594107 0.188766
H12   H     H_    0.472620 0.125304 0.278844 0.132949
H13   H     H_    0.527357 0.874700 0.721155 0.132957
H14   H     H_    0.363360 0.396378 0.113355 0.128428
H15   H     H_    0.636631 0.603633 0.886643 0.128431
H16   H     H_    0.362598 0.397967 0.852498 0.129802
H17   H     H_    0.637370 0.602084 0.147497 0.129754
H18   H     H_    0.601540 0.966242 0.140777 0.164033
I1    I     I_    0.797298 0.756876 0.455088 -0.382433
I2    I     I_    0.202720 0.243097 0.545101 -0.382441
I3    I     I_    0.775164 0.213343 0.636602 -0.358158
I4    I     I_    0.224808 0.786638 0.363196 -0.358123
N1    N     N_R   0.500030 0.500030 0.852080 -0.232004
N2    N     N_R   0.499970 0.499970 0.147920 -0.231998
O1    O     O_R   0.499990 0.319660 0.618740 -0.503868
O2    O     O_R   0.500010 0.680340 0.381260 -0.503884
O3    O     O_R   0.499990 0.319630 0.381170 -0.507089
O4    O     O_R   0.500010 0.680370 0.618830 -0.507093
O5    O     O_R   0.349000 0.499990 0.599490 -0.491197
O6    O     O_R   0.651000 0.500010 0.400510 -0.491194
O7    O     O_R   0.348990 0.499960 0.361920 -0.490227
O8    O     O_R   0.651010 0.500040 0.638080 -0.490224

loop_
_geom_bond_atom_site_label_1
_geom_bond_atom_site_label_2
_ccdc_geom_bond_type
C14   C23   A    
C6    C8    A    
Cu2   O3    S    
C15   C17   A    
Cu1   Cu2   S    
C1    O3    A    
C25   C27   A    
C9    C11   A    
C18   H5    S    
C9    I2    S    
C5    C13   A    
C14   H12   S    
C12   O4    A    
C28   O7    A    
C2    C3    S    
C1    O1    A    
C27   N2    A    
C15   H13   S    
C21   H6    S    
C17   C23   A    
Cu1   O4    S    
Cu2   N2    S    
C8    I3    S    
C12   O2    A    
Cu1   N1    S    
C4    C7    A    
C20   H10   S    
C19   H2    S    
C4    C28   S    
C25   N1    A    
C7    I4    S    
C1    C23   S    
C2    O6    A    
C18   H4    S    
C24   H14   S    
C14   C16   A    
Cu2   O7    S    
C26   H16   S    
C25   H15   S    
C24   N2    A    
C26   N1    A    
C12   C22   S    
C11   C13   A    
C17   C20   S    
C21   H7    S    
C20   C21   S    
Cu1   O8    S    
C16   C18   S    
C3    C8    A    
C19   H3    S    
C28   O5    A    
C27   H17   S    
C6    C11   A    
C3    C10   A    
C20   H9    S    
Cu1   O5    S    
C5    C7    A    
C18   C19   S    
C16   C22   A    
Cu1   O1    S    
C4    C9    A    
C19   H18   S    
C10   I1    S    
Cu2   O2    S    
C10   C13   A    
C15   C22   A    
C21   H8    S    
C2    O8    A    
C24   C26   A    
C5    H1    S    
C6    H11   S    
Cu2   O6    S    
