data_mof_unit_11573.cif
_audit_creation_date              2013-03-05T15:41:03-0500
_audit_creation_method            fapswitch 2.2
_symmetry_space_group_name_H-M    P1
_symmetry_Int_Tables_number       1
_space_group_crystal_system       triclinic
_cell_length_a                    10.999439
_cell_length_b                    11.094922
_cell_length_c                    18.630959
_cell_angle_alpha                 89.805714
_cell_angle_beta                  89.925343
_cell_angle_gamma                 59.483651
_cell_volume                      1958.73110122

loop_
_atom_site_label
_atom_site_type_symbol
_atom_site_description
_atom_site_fract_x
_atom_site_fract_y
_atom_site_fract_z
_atom_type_partial_charge
O1    O     O_R   0.507110 0.256280 0.580300 -0.491408
O2    O     O_R   0.280830 0.527190 0.577940 -0.501025
C1    C     C_R   0.237223 0.645204 0.608704 0.562941
O3    O     O_R   0.261360 0.738990 0.584270 -0.552015
O4    O     O_R   0.532590 0.694780 0.574370 -0.524894
C2    C     C_R   0.653547 0.621186 0.601644 0.564057
O5    O     O_R   0.744470 0.503750 0.577000 -0.463813
O6    O     O_R   0.698520 0.277230 0.571620 -0.435763
C3    C     C_R   0.632509 0.220314 0.598696 0.558310
O7    O     O_R   0.498530 0.256920 0.419280 -0.522656
O8    O     O_R   0.272880 0.527780 0.428680 -0.499065
C4    C     C_R   0.213455 0.653717 0.405617 0.521075
O9    O     O_R   0.252780 0.739630 0.423250 -0.555458
O10   O     O_R   0.524640 0.695370 0.425100 -0.464788
C5    C     C_R   0.613401 0.588715 0.387207 0.545297
O11   O     O_R   0.735890 0.504390 0.415980 -0.569162
O12   O     O_R   0.690560 0.277820 0.422350 -0.525493
C6    C     C_R   0.581098 0.290829 0.387534 0.522092
Cr1   Cr    Cr6+3 0.393010 0.398050 0.501480 1.030560
Cr2   Cr    Cr6+3 0.398820 0.707980 0.501630 1.015399
Cr3   Cr    Cr6+3 0.708140 0.393940 0.496850 1.037608
O13   O     O_3   0.499990 0.499990 0.499980 -0.290052
C7    C     C_3   0.591818 0.842799 0.774467 0.209584
H1    H     H_    0.637786 0.911338 0.767609 0.094182
C8    C     C_3   0.552863 0.810547 0.698535 0.001393
H2    H     H_    0.871220 0.751123 0.765784 0.160779
C9    C     C_3   0.847165 0.665346 0.761983 -0.314937
C10   C     C_3   0.683758 0.578139 0.806228 -0.038851
C11   C     C_3   0.715637 0.701328 0.808297 -0.016747
H3    H     H_    0.773209 0.488407 0.831861 0.078359
C12   C     C_3   0.674130 0.654264 0.675789 0.001086
C13   C     C_3   0.824880 0.635944 0.683422 -0.143712
C14   C     C_3   0.673270 0.537949 0.726392 0.478038
H4    H     H_    0.941302 0.573907 0.784592 0.122362
H5    H     H_    0.906374 0.526099 0.671994 0.154384
C15   C     C_2   0.689730 0.127509 0.661146 -0.048849
C16   C     C_2   0.721591 0.091458 0.815577 -0.182721
C17   C     C_2   0.833187 0.042461 0.770483 -0.151075
C18   C     C_2   0.815104 0.085727 0.693109 0.303614
H6    H     H_    0.939001 0.973119 0.790745 0.143324
H7    H     H_    0.616286 0.163830 0.796574 0.070032
H8    H     H_    0.616444 0.104813 0.687433 0.112466
C19   C     C_2   0.179031 0.664195 0.680929 -0.035520
C20   C     C_2   0.186869 0.665262 0.838295 -0.102879
C21   C     C_2   0.184601 0.564244 0.799789 -0.210228
C22   C     C_2   0.204692 0.553551 0.721577 -0.164536
H9    H     H_    0.164290 0.488424 0.825716 0.144727
H10   H     H_    0.246467 0.450638 0.697889 0.148688
H11   H     H_    0.216302 0.734953 0.814289 0.203883
H12   H     H_    0.133091 0.767407 0.704465 0.132412
C23   C     C_2   0.612702 0.619338 0.310659 0.253253
C24   C     C_2   0.623900 0.647142 0.149560 -0.060268
C25   C     C_2   0.694890 0.524214 0.186248 -0.016869
C26   C     C_2   0.672656 0.512268 0.263961 -0.177665
H13   H     H_    0.725011 0.406761 0.285938 0.097739
H14   H     H_    0.523142 0.731105 0.167982 0.168690
C27   C     C_2   0.606136 0.239188 0.315020 0.278554
C28   C     C_2   0.633827 0.209815 0.159989 -0.043605
C29   C     C_2   0.511214 0.261716 0.194070 -0.143777
C30   C     C_2   0.501749 0.311692 0.267294 -0.143473
H15   H     H_    0.423108 0.256165 0.171637 0.157151
H16   H     H_    0.403407 0.402961 0.284084 0.115254
H17   H     H_    0.717241 0.222735 0.182621 0.162735
C31   C     C_2   0.112152 0.690532 0.347591 0.196928
C32   C     C_2   0.120568 0.687356 0.189230 -0.061882
C33   C     C_2   0.040898 0.797744 0.231599 -0.057278
C34   C     C_2   0.079422 0.801549 0.305253 -0.011467
H18   H     H_    0.955666 0.895151 0.209406 0.182057
H19   H     H_    0.207644 0.589021 0.208847 0.122868
O14   O     O_R   0.089190 0.825870 0.932320 -0.493509
O15   O     O_R   0.819070 0.053960 0.931440 -0.476852
C35   C     C_R   0.729101 0.044381 0.889698 0.528044
O16   O     O_R   0.607070 0.076440 0.916460 -0.518358
O17   O     O_R   0.647110 0.806550 0.917690 -0.415960
C36   C     C_R   0.753531 0.712662 0.882958 0.531858
O18   O     O_R   0.837080 0.593860 0.915300 -0.529281
O19   O     O_R   0.064770 0.636080 0.932550 -0.523230
C37   C     C_R   0.117733 0.706763 0.907558 0.539727
O20   O     O_R   0.068250 0.829200 0.092940 -0.492894
O21   O     O_R   0.799650 0.057040 0.080330 -0.478688
C38   C     C_R   0.672339 0.114329 0.100754 0.571107
O22   O     O_R   0.586130 0.079760 0.077080 -0.513629
O23   O     O_R   0.627700 0.809630 0.066580 -0.494928
C39   C     C_R   0.690113 0.684725 0.091923 0.576405
O24   O     O_R   0.816140 0.597180 0.075920 -0.456464
O25   O     O_R   0.045360 0.639170 0.081440 -0.492128
C40   C     C_R   0.090452 0.710804 0.114048 0.530122
Cr4   Cr    Cr6+3 0.937950 0.938450 0.008940 1.075779
Cr5   Cr    Cr6+3 0.626180 0.937030 0.994750 1.070013
Cr6   Cr    Cr6+3 0.937790 0.625760 0.001410 1.042683
O26   O     O_3   0.833980 0.833750 0.001700 -0.313078
O27   O     O_3   0.784601 0.401719 0.702019 -0.520451
C41   C     C_3   0.907731 0.322928 0.744463 -0.104136
H20   H     H_    0.888256 0.265584 0.787597 0.135959
H21   H     H_    0.953100 0.382721 0.766581 0.053847
H22   H     H_    0.994085 0.246507 0.709846 0.199945
O28   O     O_3   0.919350 0.101944 0.660356 -0.559916
C42   C     C_3   0.973959 0.016813 0.598954 -0.061644
H23   H     H_    0.897987 0.050604 0.553955 0.124697
H24   H     H_    0.009350 0.907261 0.611343 0.167181
H25   H     H_    0.066781 0.021933 0.579851 0.130565
O29   O     O_3   0.472679 0.910749 0.820971 -0.455400
C43   C     C_3   0.387219 0.056081 0.807699 -0.030321
H26   H     H_    0.304009 0.076302 0.767917 0.148529
H27   H     H_    0.446364 0.107060 0.789886 0.100382
H28   H     H_    0.332933 0.107657 0.858355 0.133426
C44   C     C_2   0.808929 0.393888 0.152854 0.243724
H29   H     H_    0.894783 0.316471 0.185729 0.134856
O30   O     O_2   0.803468 0.367845 0.089672 -0.483648
O31   O     O_3   0.533860 0.756724 0.287886 -0.561744
C45   C     C_3   0.614662 0.820746 0.297925 -0.106543
H30   H     H_    0.714233 0.767451 0.266209 0.113649
H31   H     H_    0.638279 0.822534 0.355760 0.118729
H32   H     H_    0.552646 0.930449 0.278600 0.169857
O32   O     O_3   0.724085 0.111087 0.297149 -0.582006
C46   C     C_3   0.750885 0.008993 0.350158 -0.108738
H33   H     H_    0.808869 0.904981 0.324979 0.107058
H34   H     H_    0.653060 0.018139 0.372784 0.131720
H35   H     H_    0.816408 0.013429 0.394169 0.129329
C47   C     C_2   0.404406 0.830282 0.697835 0.363983
H36   H     H_    0.335882 0.878218 0.651852 0.143863
O33   O     O_2   0.356746 0.798467 0.748507 -0.468005
C48   C     C_2   0.076446 0.931245 0.329118 0.271521
H37   H     H_    0.064785 0.959849 0.385374 0.110271
O34   O     O_2   0.082175 0.010438 0.285344 -0.478470
O35   O     O_3   0.079952 0.590759 0.324719 -0.587315
C49   C     C_3   0.987170 0.583157 0.374383 -0.094577
H38   H     H_    0.896974 0.688181 0.388408 0.068837
H39   H     H_    0.043742 0.526557 0.423880 0.145169
H40   H     H_    0.942886 0.523122 0.349455 0.172479
C50   C     C_2   0.541076 0.919761 0.644196 0.144646
H41   H     H_    0.606442 0.890536 0.596718 0.153808
O36   O     O_2   0.448288 0.042351 0.649699 -0.570336
C51   C     C_2   0.858463 0.713548 0.627823 0.145864
H42   H     H_    0.882443 0.674410 0.573229 0.110484
O37   O     O_2   0.857018 0.820810 0.642428 -0.594540
C52   C     C_2   0.570201 0.591102 0.858202 0.320128
H43   H     H_    0.579424 0.496249 0.880528 0.070755
O38   O     O_2   0.472804 0.702754 0.878680 -0.392290
O39   O     O_3   0.542139 0.544342 0.714712 -0.516599
C53   C     C_3   0.536231 0.430509 0.744823 -0.065481
H44   H     H_    0.457841 0.468053 0.788418 0.122607
H45   H     H_    0.636875 0.347878 0.767874 0.117887
H46   H     H_    0.497641 0.386744 0.703910 0.139716

loop_
_geom_bond_atom_site_label_1
_geom_bond_atom_site_label_2
_geom_bond_distance
_ccdc_geom_bond_type
C20   H11   1.074342 S    
C8    C12   1.618643 S    
C33   H18   1.089432 S    
O35   C49   1.410388 S    
C9    C11   1.552258 S    
C13   H5    1.107225 S    
C15   H8    1.075804 S    
C45   H30   1.114150 S    
O14   Cr4   2.064224 S    
O20   C40   1.269168 A    
C38   O22   1.269810 A    
C48   H37   1.084554 S    
C27   O32   1.394090 S    
O4    Cr2   1.951425 S    
C21   C22   1.469670 S    
C47   H36   1.084611 S    
C52   O38   1.217450 D    
O8    Cr1   1.928026 S    
H2    C9    1.112188 S    
O11   Cr3   2.056967 S    
O22   Cr5   2.088263 S    
C7    C11   1.593841 S    
O17   Cr5   1.970975 S    
C10   C11   1.574679 S    
C17   H6    1.085748 S    
C53   H45   1.103775 S    
C17   C18   1.499050 S    
C4    C31   1.454341 S    
C48   O34   1.221613 D    
C7    O29   1.426351 S    
O14   C37   1.280672 A    
C14   O39   1.424648 S    
O32   C46   1.413993 S    
O28   C42   1.411016 S    
C46   H33   1.101810 S    
C30   H16   1.087284 S    
C24   C39   1.469953 S    
O31   C45   1.404247 S    
C12   C13   1.571364 S    
O6    C3    1.281773 A    
C3    C15   1.464832 S    
C7    H1    1.113507 S    
C12   C14   1.599517 S    
C14   O27   1.453887 S    
C5    C23   1.464082 S    
Cr5   O26   1.973329 S    
O19   C37   1.277492 A    
C2    C12   1.477433 S    
C9    C13   1.547325 S    
C29   C30   1.457927 S    
C41   H21   1.094327 S    
Cr3   O13   1.973338 S    
C44   O30   1.221830 D    
C45   H32   1.109444 S    
O29   C43   1.415399 S    
O20   Cr4   2.049705 S    
C47   O33   1.214523 D    
C32   C40   1.431999 S    
C21   H9    1.085690 S    
C9    H4    1.100106 S    
O23   Cr5   1.937117 S    
C22   H10   1.086138 S    
O19   Cr6   1.940764 S    
O1    Cr1   2.046950 S    
C29   H15   1.086050 S    
O17   C36   1.279965 A    
C10   C52   1.527708 S    
C31   C34   1.346393 D    
O10   Cr2   1.940990 S    
Cr1   O13   2.003986 S    
O1    C3    1.273013 A    
C39   O24   1.259932 A    
C45   H31   1.111324 S    
O25   Cr6   1.957087 S    
C53   H46   1.099831 S    
O25   C40   1.284968 A    
C35   O16   1.300541 A    
C27   C30   1.347558 D    
C51   O37   1.213894 D    
C28   C29   1.328633 D    
O5    Cr3   2.093374 S    
O12   Cr3   1.972212 S    
C34   C48   1.491935 S    
C36   O18   1.308013 A    
C49   H39   1.110271 S    
C16   C17   1.353085 D    
C25   C44   1.487749 S    
C6    C27   1.439917 S    
O23   C39   1.282543 A    
Cr4   O26   2.006505 S    
O7    Cr1   2.076121 S    
C44   H29   1.085770 S    
C1    C19   1.458608 S    
O12   C6    1.310024 A    
C43   H27   1.106859 S    
C41   H20   1.109500 S    
O39   C53   1.411544 S    
C2    O5    1.260229 A    
Cr2   O13   1.989200 S    
C10   C14   1.575354 S    
C32   C33   1.343812 D    
C41   H22   1.105121 S    
C42   H24   1.095434 S    
C28   C38   1.438972 S    
C49   H38   1.112510 S    
C8    C50   1.530516 S    
C8    C47   1.533479 S    
C24   C25   1.360381 D    
C28   H17   1.084043 S    
C26   H13   1.087348 S    
O9    Cr2   2.065413 S    
O2    Cr1   1.954102 S    
C15   C18   1.349933 D    
C20   C21   1.343635 D    
O21   C38   1.267323 A    
C50   O36   1.221891 D    
O6    Cr3   1.937785 S    
O24   Cr6   2.059409 S    
C19   H12   1.083572 S    
C25   C26   1.484721 S    
C51   H42   1.085662 S    
C11   C36   1.476611 S    
C23   O31   1.381901 S    
C42   H25   1.109111 S    
C52   H43   1.086062 S    
C31   O35   1.390754 S    
C46   H35   1.109973 S    
C23   C26   1.346457 D    
C10   H3    1.091108 S    
O2    C1    1.280454 A    
C49   H40   1.108525 S    
O16   Cr5   2.054134 S    
O15   C35   1.305679 A    
O21   Cr4   1.946346 S    
C53   H44   1.101085 S    
C13   C51   1.505569 S    
Cr6   O26   1.988239 S    
O4    C2    1.261240 A    
O7    C6    1.288512 A    
C32   H19   1.085465 S    
C5    O11   1.302406 A    
C20   C37   1.449627 S    
O27   C41   1.421100 S    
C46   H34   1.110877 S    
C33   C34   1.443761 S    
C43   H28   1.109002 S    
C7    C8    1.572798 S    
C16   H7    1.079976 S    
C50   H41   1.080772 S    
C19   C22   1.342569 D    
C18   O28   1.387972 S    
O15   Cr4   1.930701 S    
O3    Cr2   2.060159 S    
C24   H14   1.080074 S    
C4    O9    1.274684 A    
C42   H23   1.106019 S    
C16   C35   1.462274 S    
C43   H26   1.108815 S    
O10   C5    1.297089 A    
C1    O3    1.279637 A    
O8    C4    1.278028 A    
O18   Cr6   2.081550 S    
