data_mof_unit_42518.cif
_audit_creation_date              2012-10-26T20:13:50-0400
_audit_creation_method            fapswitch 2.2
_symmetry_space_group_name_H-M    P1
_symmetry_Int_Tables_number       1
_space_group_crystal_system       triclinic
_cell_length_a                    8.716868
_cell_length_b                    10.816586
_cell_length_c                    9.585998
_cell_angle_alpha                 89.39633
_cell_angle_beta                  98.070375
_cell_angle_gamma                 90.625923
_cell_volume                      894.791013158

loop_
_atom_site_label
_atom_site_type_symbol
_atom_type_description
_atom_site_fract_x
_atom_site_fract_y
_atom_site_fract_z
_atom_type_partial_charge
C1    C     C_R   0.503957 0.262548 0.501105 0.565023
C2    C     C_R   0.522534 0.607082 0.928179 0.092124
C3    C     C_3   0.655598 0.696862 0.938113 -0.048301
C4    C     C_R   0.203948 0.498537 0.463813 0.526313
C5    C     C_3   0.651493 0.699154 0.097477 0.139705
C6    C     C_R   0.502139 0.737527 0.500143 0.550501
C7    C     C_R   0.796077 0.499749 0.536245 0.569372
C8    C     C_2   0.037865 0.494752 0.444341 -0.155204
C9    C     C_2   0.962228 0.500387 0.555980 -0.134709
C10   C     C_R   0.469123 0.062244 0.615579 -0.028489
C11   C     C_R   0.519238 0.129379 0.505054 0.025718
C12   C     C_R   0.588905 0.936089 0.405355 -0.150478
C13   C     C_R   0.589423 0.066545 0.402147 0.250169
C14   C     C_2   0.802349 0.645668 0.895398 0.651143
C15   C     C_3   0.895629 0.742825 0.215941 -0.110287
C16   C     C_3   0.638914 0.085671 0.170527 -0.122290
C17   C     C_R   0.514658 0.870856 0.503996 -0.027131
C18   C     C_R   0.466672 0.935247 0.614817 0.006218
C19   C     C_3   0.317438 0.927591 0.674077 -0.252765
C20   C     C_3   0.319781 0.068042 0.675059 -0.271641
C21   C     C_R   0.520804 0.607486 0.074439 0.160344
C22   C     C_R   0.461516 0.396740 0.070424 0.006809
C23   C     C_R   0.461644 0.396713 0.922103 0.002725
Cu1   Cu    Cu3+1 0.499990 0.499980 0.640670 0.983533
Cu2   Cu    Cu3+1 0.500010 0.500020 0.359330 1.019662
H1    H     H_    0.977660 0.487005 0.337570 0.184349
H2    H     H_    0.335372 0.106548 0.783180 0.126586
H3    H     H_    0.431525 0.312397 0.121881 0.125007
H4    H     H_    0.956436 0.506519 0.909635 0.317873
H5    H     H_    0.874340 0.788047 0.314596 0.117709
H6    H     H_    0.900061 0.813277 0.130855 0.101406
H7    H     H_    0.011766 0.700091 0.236129 0.146625
H8    H     H_    0.662074 0.159451 0.094775 0.149777
H9    H     H_    0.516760 0.054136 0.140133 0.090878
H10   H     H_    0.721164 0.009822 0.159975 0.105393
H11   H     H_    0.432516 0.312352 0.864868 0.107202
H12   H     H_    0.621022 0.786839 0.886373 0.057248
H13   H     H_    0.611407 0.788532 0.134073 0.043852
H14   H     H_    0.022631 0.506687 0.662847 0.140940
H15   H     H_    0.645316 0.885653 0.331886 0.115428
H16   H     H_    0.221363 0.887714 0.598779 0.143936
H17   H     H_    0.332211 0.885598 0.781434 0.138959
H18   H     H_    0.224885 0.110112 0.600525 0.141319
N1    N     N_R   0.500980 0.500930 0.148050 -0.201814
N2    N     N_R   0.500990 0.500890 0.852140 -0.221019
O1    O     O_R   0.500000 0.319640 0.618810 -0.523378
O2    O     O_R   0.855043 0.528782 0.943001 -0.642187
O3    O     O_3   0.783965 0.648756 0.179598 -0.504898
O4    O     O_3   0.665156 0.134856 0.307834 -0.543154
O5    O     O_R   0.500020 0.319680 0.381230 -0.473230
O6    O     O_R   0.274830 0.499980 0.591380 -0.506912
O7    O     O_R   0.274850 0.500020 0.353800 -0.509552
O8    O     O_R   0.499980 0.680320 0.618770 -0.500081
O9    O     O_R   0.500000 0.680360 0.381190 -0.509959
O10   O     O_R   0.725150 0.499980 0.646200 -0.468706
O11   O     O_R   0.725170 0.500020 0.408620 -0.442519
O12   O     O_2   0.875981 0.707800 0.820151 -0.555142

loop_
_geom_bond_atom_site_label_1
_geom_bond_atom_site_label_2
_ccdc_geom_bond_type
C12   C17   A    
C12   H15   S    
C19   H17   S    
C15   H6    S    
C14   O2    S    
C23   N2    A    
C20   H2    S    
C16   H8    S    
C21   N1    A    
C8    H1    S    
C1    O5    A    
C19   C20   S    
C1    C11   S    
Cu2   O11   S    
C7    O10   A    
C4    C8    S    
Cu1   O1    S    
C2    C21   A    
C2    C3    S    
Cu2   O7    S    
C15   H7    S    
C16   H10   S    
C22   H3    S    
C5    H13   S    
C12   C13   A    
Cu1   O10   S    
C11   C13   A    
C3    C14   S    
C7    O11   A    
H4    O2    S    
C13   O4    S    
Cu1   N2    S    
C15   O3    S    
Cu2   N1    S    
C14   O12   D    
C10   C18   A    
C6    O9    A    
C4    O7    A    
C2    N2    A    
C5    O3    S    
C1    O1    A    
Cu1   O6    S    
Cu2   O9    S    
C4    O6    A    
C16   O4    S    
C23   H11   S    
C9    H14   S    
C20   H18   S    
C5    C21   S    
Cu1   Cu2   S    
C3    H12   S    
C15   H5    S    
C17   C18   A    
C18   C19   S    
C10   C11   A    
C7    C9    S    
C6    C17   S    
C22   C23   A    
C6    O8    A    
C16   H9    S    
Cu1   O8    S    
Cu2   O5    S    
C22   N1    A    
C19   H16   S    
C10   C20   S    
C8    C9    D    
C3    C5    S    
