data_mof_unit_49997.cif
_audit_creation_date              2013-03-05T15:41:43-0500
_audit_creation_method            fapswitch 2.2
_symmetry_space_group_name_H-M    P1
_symmetry_Int_Tables_number       1
_space_group_crystal_system       triclinic
_cell_length_a                    6.944415
_cell_length_b                    13.635261
_cell_length_c                    20.397246
_cell_angle_alpha                 102.133879
_cell_angle_beta                  89.934551
_cell_angle_gamma                 90.454959
_cell_volume                      1888.18418621

loop_
_atom_site_label
_atom_site_type_symbol
_atom_site_description
_atom_site_fract_x
_atom_site_fract_y
_atom_site_fract_z
_atom_type_partial_charge
O1    O     O_R   0.506860 0.599390 0.449240 -0.563891
O2    O     O_R   0.180220 0.594600 0.586780 -0.525350
O3    O     O_R   0.004500 0.400610 0.550760 -0.537872
C1    C     C_R   0.347874 0.613643 0.614426 0.886245
O4    O     O_R   0.177490 0.611290 0.451970 -0.569426
O5    O     O_R   0.001750 0.417420 0.414990 -0.568409
C2    C     C_R   0.346764 0.637907 0.435206 0.814865
O6    O     O_R   0.509610 0.582580 0.585010 -0.542513
O7    O     O_3   0.337420 0.436370 0.488020 -0.287661
V1    V     V_3+5 0.064680 0.511800 0.502220 1.187742
O8    O     O_R   0.671710 0.405400 0.413220 -0.569105
C3    C     C_R   0.839931 0.384171 0.386506 0.827148
O9    O     O_R   0.674440 0.388710 0.548030 -0.568118
C4    C     C_R   0.843006 0.362111 0.564894 0.863216
V2    V     V_3+5 0.564010 0.488200 0.497780 1.163088
O10   O     O_3   0.841140 0.563630 0.511980 -0.264484
C5    C     C_R   0.918961 0.115050 0.614129 -0.069624
H1    H     H_    0.917894 0.165069 0.521181 0.052034
H2    H     H_    0.957080 0.992470 0.698234 0.072733
H3    H     H_    0.953111 0.038658 0.589701 0.065502
C6    C     C_R   0.852778 0.285235 0.605123 -0.083068
C7    C     C_R   0.824136 0.317911 0.930306 0.342779
C8    C     C_R   0.797883 0.391132 0.892494 -0.044732
C9    C     C_R   0.807774 0.367598 0.822874 -0.126407
C10   C     C_R   0.844685 0.268745 0.787633 0.049582
C11   C     C_R   0.872136 0.193211 0.825544 -0.031346
C12   C     C_R   0.856556 0.242572 0.716024 0.051305
C13   C     C_R   0.899714 0.142079 0.684151 0.063866
C14   C     C_R   0.925036 0.069334 0.722260 -0.098195
C15   C     C_R   0.910730 0.094125 0.791633 -0.076107
C16   C     C_R   0.829263 0.312767 0.674689 -0.081514
C17   C     C_R   0.898109 0.186555 0.574977 -0.113127
C18   C     C_R   0.859887 0.217892 0.896716 -0.182158
H4    H     H_    0.787301 0.429330 0.798335 0.121428
H5    H     H_    0.771137 0.468192 0.917240 0.134961
C19   C     C_2   0.005460 0.289675 0.284536 -0.085471
C20   C     C_2   0.842506 0.315888 0.319692 -0.205259
H6    H     H_    0.142525 0.318828 0.306154 0.100888
H7    H     H_    0.703991 0.287315 0.299688 0.071703
C21   C     C_2   0.013573 0.221566 0.216906 -0.057239
C22   C     C_2   0.858296 0.183340 0.180348 -0.159364
H8    H     H_    0.156399 0.202993 0.196509 0.105855
H9    H     H_    0.714113 0.201230 0.199065 0.068116
C23   C     C_2   0.204097 0.777300 0.787649 -0.148459
C24   C     C_2   0.365028 0.812565 0.821055 -0.266322
H10   H     H_    0.065861 0.801977 0.809850 0.142222
C25   C     C_2   0.202791 0.697556 0.724833 0.342174
C26   C     C_2   0.354467 0.682821 0.681277 -0.263304
H11   H     H_    0.485029 0.727162 0.692694 0.082662
C27   C     C_R   0.402550 0.887094 0.386768 -0.075501
H12   H     H_    0.398697 0.837216 0.479741 0.053751
H13   H     H_    0.428964 0.011387 0.303343 0.063650
H14   H     H_    0.425136 0.964776 0.411593 0.064044
C28   C     C_R   0.357949 0.714486 0.394917 -0.071513
C29   C     C_R   0.325243 0.685127 0.070876 -0.142157
C30   C     C_R   0.308340 0.608003 0.106189 0.386788
C31   C     C_R   0.320677 0.631461 0.176471 -0.125572
C32   C     C_R   0.349449 0.731393 0.212506 -0.004583
C33   C     C_R   0.367113 0.808587 0.175384 0.014121
C34   C     C_R   0.360680 0.757358 0.284161 0.063035
C35   C     C_R   0.389898 0.859474 0.316585 0.069524
C36   C     C_R   0.406785 0.933473 0.278927 -0.108553
C37   C     C_R   0.395530 0.908669 0.209536 -0.082644
C38   C     C_R   0.344378 0.685771 0.325095 -0.107412
C39   C     C_R   0.387275 0.814894 0.425672 -0.104627
C40   C     C_R   0.354760 0.784323 0.104597 -0.140507
H15   H     H_    0.322557 0.606974 0.304720 0.055687
H16   H     H_    0.315201 0.668236 0.016639 0.110492
H17   H     H_    0.306396 0.569962 0.201587 0.115328
H18   H     H_    0.409412 0.969109 0.182840 0.062764
O11   O     O_R   0.203230 0.917310 0.915020 -0.568205
O12   O     O_R   0.535500 0.888690 0.048040 -0.565096
O13   O     O_R   0.711080 0.082610 0.085000 -0.561149
C41   C     C_R   0.366208 0.861892 0.064686 0.828138
O14   O     O_R   0.532630 0.905370 0.913230 -0.565420
O15   O     O_R   0.708190 0.099410 0.949230 -0.559156
C42   C     C_R   0.364769 0.883805 0.886630 0.852948
O16   O     O_R   0.206120 0.900510 0.050790 -0.567678
O17   O     O_3   0.375360 0.063570 0.011990 -0.257040
V3    V     V_3+5 0.648170 0.988200 0.997780 1.173783
O18   O     O_R   0.038240 0.111390 0.951940 -0.538998
C43   C     C_R   0.869574 0.138266 0.935363 0.898746
O19   O     O_R   0.041120 0.094710 0.086750 -0.550918
C44   C     C_R   0.872368 0.115582 0.113569 0.891375
V4    V     V_3+5 0.148810 0.011930 0.002180 1.192291
O20   O     O_3   0.871750 0.936430 0.988010 -0.287236
H19   H     H_    0.504358 0.784783 0.801766 0.119960
N1    N     N_R   0.033972 0.634431 0.712544 0.099534
O21   O     O_R   0.864180 0.672576 0.727076 -0.400875
O22   O     O_R   0.052262 0.537369 0.699476 -0.388528
N2    N     N_R   0.277698 0.505873 0.070750 0.131200
O23   O     O_R   0.257579 0.484659 0.005843 -0.335698
O24   O     O_R   0.270534 0.432987 0.102932 -0.300515
H20   H     H_    0.792550 0.389784 0.694753 0.113504
N3    N     N_R   0.813522 0.346668 0.002442 0.105321
O25   O     O_R   0.716195 0.425464 0.030772 -0.309914
O26   O     O_R   0.918123 0.302142 0.040151 -0.331947
H21   H     H_    0.932388 0.034523 0.818463 0.063868

loop_
_geom_bond_atom_site_label_1
_geom_bond_atom_site_label_2
_geom_bond_distance
_ccdc_geom_bond_type
C29   C30   1.398123 A    
C7    N3    1.442842 S    
N3    O25   1.301802 A    
O11   C42   1.303031 A    
C1    O6    1.303867 A    
O18   C43   1.296279 A    
C28   C39   1.394351 A    
V4    O20   2.165621 S    
C6    C16   1.399117 A    
C13   C14   1.395059 A    
C36   C37   1.386507 A    
C4    C6    1.462721 S    
C19   C20   1.348834 D    
C24   H19   1.084792 S    
C33   C40   1.414414 A    
O5    C3    1.299440 A    
C32   C34   1.431732 A    
V2    O10   2.165652 S    
C40   C41   1.465652 S    
C5    H3    1.083965 S    
C30   C31   1.404220 A    
H12   C39   1.083477 S    
C3    C20   1.480281 S    
V3    O20   1.704767 S    
O11   V4    2.002492 S    
O8    V2    2.000190 S    
C30   N2    1.442066 S    
C25   C26   1.365751 D    
C8    C9    1.390259 A    
O1    V2    2.019366 S    
O14   V3    2.015807 S    
O13   C44   1.295983 A    
C23   C25   1.496073 S    
C21   H8    1.086157 S    
O9    C4    1.296247 A    
C22   H9    1.082425 S    
O7    V1    2.152553 S    
C23   H10   1.086227 S    
C29   H16   1.083784 S    
C6    C17   1.395034 A    
C27   H14   1.083967 S    
C12   C16   1.416105 A    
C38   H15   1.076983 S    
C19   C21   1.493533 S    
C9    C10   1.413128 A    
O12   C41   1.294354 A    
O15   C43   1.292109 A    
N2    O23   1.301823 A    
O4    C2    1.294190 A    
C32   C33   1.424448 A    
C22   C44   1.480053 S    
H13   C36   1.084225 S    
C9    H4    1.076301 S    
C34   C35   1.423377 A    
O2    C1    1.294628 A    
C14   C15   1.387633 A    
N2    O24   1.301709 A    
C11   C18   1.422248 A    
O19   C44   1.300747 A    
C37   H18   1.082688 S    
O14   C42   1.291749 A    
O3    C4    1.292263 A    
O16   V4    2.023200 S    
C21   C22   1.349064 D    
O19   V4    2.000209 S    
N1    O22   1.301173 A    
C11   C15   1.409997 A    
O6    V2    2.002038 S    
C8    H5    1.083162 S    
O9    V2    2.020339 S    
H1    C17   1.083465 S    
O2    V1    2.015804 S    
O17   V4    1.713145 S    
C29   C40   1.396190 A    
C23   C24   1.341615 D    
C1    C26   1.486580 S    
C18   C43   1.471665 S    
C27   C35   1.404268 A    
C7    C18   1.415328 A    
C26   H11   1.083715 S    
O1    C2    1.291126 A    
C5    C13   1.404516 A    
O15   V3    2.018439 S    
O5    V1    2.010743 S    
O8    C3    1.297303 A    
N3    O26   1.300936 A    
C10   C12   1.431310 A    
C16   H20   1.076395 S    
C15   H21   1.082446 S    
C33   C37   1.408140 A    
C34   C38   1.415408 A    
C25   N1    1.439448 S    
C19   H6    1.086143 S    
C10   C11   1.425945 A    
O4    V1    2.017517 S    
O12   V3    2.017487 S    
O3    V1    2.018296 S    
V1    O10   1.704832 S    
C31   C32   1.418387 A    
C28   C38   1.398486 A    
O13   V3    2.010746 S    
O7    V2    1.714352 S    
C35   C36   1.394842 A    
C27   C39   1.391642 A    
O17   V3    2.152616 S    
N1    O21   1.301073 A    
C20   H7    1.082435 S    
C41   O16   1.290851 A    
C12   C13   1.421844 A    
C5    C17   1.392545 A    
C7    C8    1.397070 A    
C24   C42   1.478668 S    
C2    C28   1.459778 S    
C31   H17   1.074526 S    
O18   V4    2.020262 S    
H2    C14   1.084279 S    
