data_mof_unit_59165.cif
_audit_creation_date              2012-12-11T14:07:22-0500
_audit_creation_method            fapswitch 2.2
_symmetry_space_group_name_H-M    P1
_symmetry_Int_Tables_number       1
_space_group_crystal_system       triclinic
_cell_length_a                    19.80771
_cell_length_b                    17.238351
_cell_length_c                    15.34285
_cell_angle_alpha                 90.322827
_cell_angle_beta                  53.759518
_cell_angle_gamma                 89.878842
_cell_volume                      4225.19410313

loop_
_atom_site_label
_atom_site_type_symbol
_atom_type_description
_atom_site_fract_x
_atom_site_fract_y
_atom_site_fract_z
_atom_type_partial_charge
C1    C     C_R   0.383132 0.198327 0.986589 0.486557
C2    C     C_R   0.377289 0.802907 0.993963 0.455667
C3    C     C_R   0.883170 0.698353 0.986548 0.486890
C4    C     C_R   0.880993 0.302192 0.989574 0.509391
C5    C     C_R   0.662186 0.909769 0.063846 -0.168837
C6    C     C_R   0.661470 0.090793 0.065173 -0.165462
C7    C     C_R   0.161782 0.409387 0.064550 -0.168186
C8    C     C_R   0.162770 0.589640 0.062753 -0.156754
C9    C     C_R   0.699056 0.156587 0.001193 0.203731
C10   C     C_R   0.700497 0.843977 0.998513 0.200134
C11   C     C_R   0.201201 0.654587 0.997193 0.178930
C12   C     C_R   0.200019 0.343560 0.999321 0.199482
C13   C     C_R   0.621209 0.819671 0.689086 0.029333
C14   C     C_R   0.620842 0.180908 0.692569 -0.091606
C15   C     C_R   0.121373 0.319698 0.689033 0.032204
C16   C     C_R   0.122127 0.680569 0.691858 -0.092519
C17   C     C_3   0.181945 0.128829 0.523694 -0.065716
C18   C     C_3   0.291039 0.831899 0.515407 -0.076703
C19   C     C_3   0.682176 0.628752 0.523805 -0.073474
C20   C     C_3   0.789451 0.332195 0.515811 -0.072361
C21   C     C_3   0.131380 0.184060 0.624126 0.252094
C22   C     C_3   0.218542 0.792488 0.617598 0.229550
C23   C     C_3   0.631574 0.683968 0.624218 0.259915
C24   C     C_3   0.717068 0.292839 0.618089 0.228460
C25   C     C_3   0.310147 0.222576 0.435204 -0.440170
C26   C     C_3   0.337023 0.700897 0.411695 -0.393445
C27   C     C_3   0.810066 0.722924 0.434978 -0.439080
C28   C     C_3   0.834820 0.201415 0.411635 -0.394691
C29   C     C_3   0.696262 0.737503 0.408989 -0.681216
C30   C     C_3   0.726395 0.286949 0.423421 -0.611362
C31   C     C_3   0.196664 0.237810 0.408767 -0.680175
C32   C     C_3   0.229050 0.786101 0.421992 -0.613203
C33   C     C_3   0.249038 0.177198 0.420740 0.200062
C34   C     C_3   0.311590 0.785834 0.414082 0.174769
C35   C     C_3   0.748997 0.677206 0.420767 0.201467
C36   C     C_3   0.809267 0.286397 0.414651 0.176377
C37   C     C_3   0.667963 0.768392 0.591858 -0.042173
C38   C     C_3   0.690554 0.215821 0.589400 -0.007000
C39   C     C_3   0.168095 0.268375 0.591852 -0.033840
C40   C     C_3   0.192231 0.715402 0.588747 -0.006104
C41   C     C_3   0.764145 0.766052 0.544858 0.555381
C42   C     C_3   0.772328 0.160958 0.521612 0.533411
C43   C     C_3   0.264216 0.265644 0.545139 0.556188
C44   C     C_3   0.273989 0.660513 0.521609 0.533120
C45   C     C_R   0.391954 0.804561 0.213834 -0.148332
C46   C     C_R   0.346565 0.165527 0.216889 -0.128089
C47   C     C_R   0.889507 0.305036 0.214240 -0.127131
C48   C     C_R   0.846588 0.665576 0.216912 -0.128607
C49   C     C_3   0.658072 0.796784 0.501963 0.430573
C50   C     C_3   0.659546 0.238082 0.519733 0.362775
C51   C     C_3   0.158536 0.297025 0.501777 0.427929
C52   C     C_3   0.161831 0.737499 0.518364 0.363929
C53   C     C_2   0.264817 0.699766 0.989464 -0.265188
C54   C     C_2   0.265486 0.299293 0.988829 -0.325803
C55   C     C_2   0.763755 0.201307 0.991588 -0.346479
C56   C     C_2   0.766064 0.799776 0.987976 -0.326753
C57   C     C_2   0.810270 0.251466 0.910171 0.535440
C58   C     C_2   0.812488 0.748502 0.906856 0.516408
C59   C     C_2   0.310447 0.751578 0.910312 0.559778
C60   C     C_2   0.312130 0.248327 0.907369 0.516613
C61   C     C_R   0.365565 0.888609 0.896651 -0.174461
C62   C     C_R   0.367564 0.111660 0.894116 -0.152983
C63   C     C_R   0.867411 0.387755 0.894447 -0.145478
C64   C     C_R   0.867692 0.611717 0.893971 -0.152258
C65   C     C_R   0.355485 0.074096 0.311246 -0.154929
C66   C     C_R   0.401718 0.897259 0.307073 -0.158039
C67   C     C_R   0.855546 0.574187 0.311286 -0.154812
C68   C     C_R   0.900489 0.397315 0.307513 -0.154387
C69   C     C_R   0.354534 0.188787 0.924969 -0.228235
C70   C     C_R   0.348815 0.812797 0.932374 -0.140578
C71   C     C_R   0.854648 0.688861 0.924818 -0.227697
C72   C     C_R   0.852621 0.311259 0.927646 -0.209241
C73   C     C_R   0.374469 0.823831 0.312936 0.088398
C74   C     C_R   0.303498 0.131641 0.319174 0.070030
C75   C     C_R   0.871773 0.324399 0.313546 0.064901
C76   C     C_R   0.803530 0.631687 0.319199 0.071827
C77   C     C_R   0.652682 0.183853 0.967689 -0.053163
C78   C     C_R   0.653865 0.816430 0.965314 -0.063299
C79   C     C_R   0.154278 0.682446 0.964784 -0.069149
C80   C     C_R   0.153586 0.316195 0.965767 -0.059871
C81   C     C_R   0.605891 0.803273 0.787625 -0.213705
C82   C     C_R   0.607069 0.196012 0.790173 -0.142216
C83   C     C_R   0.105925 0.303273 0.787629 -0.251345
C84   C     C_R   0.107731 0.695841 0.789799 -0.142112
C85   C     C_R   0.588078 0.108558 0.700211 0.451655
C86   C     C_R   0.597888 0.895979 0.692868 0.506357
C87   C     C_R   0.088904 0.608385 0.699638 0.452251
C88   C     C_R   0.097997 0.396000 0.692819 0.507344
H1    H     H_    0.137420 0.108183 0.506681 0.127620
H2    H     H_    0.266844 0.889207 0.511811 0.136961
H3    H     H_    0.637615 0.607865 0.506976 0.128216
H4    H     H_    0.765429 0.389721 0.512584 0.136126
H5    H     H_    0.134778 0.163078 0.689366 0.112850
H6    H     H_    0.240123 0.778105 0.668338 0.135765
H7    H     H_    0.635228 0.663129 0.689303 0.117017
H8    H     H_    0.738872 0.278385 0.668563 0.135398
H9    H     H_    0.360264 0.185033 0.424201 0.197698
H10   H     H_    0.401921 0.694315 0.386451 0.192957
H11   H     H_    0.860366 0.685592 0.423839 0.196997
H12   H     H_    0.899922 0.194725 0.385606 0.193344
H13   H     H_    0.732260 0.769679 0.332273 0.204123
H14   H     H_    0.735913 0.264887 0.348581 0.199965
H15   H     H_    0.232924 0.270051 0.332115 0.204291
H16   H     H_    0.239034 0.763674 0.347014 0.193272
H17   H     H_    0.645930 0.708273 0.409550 0.184154
H18   H     H_    0.702796 0.347499 0.433709 0.180957
H19   H     H_    0.146336 0.208840 0.409065 0.183843
H20   H     H_    0.205523 0.846606 0.431605 0.180195
H21   H     H_    0.590272 0.801235 0.537786 0.193966
H22   H     H_    0.601724 0.274118 0.569920 0.163834
H23   H     H_    0.090792 0.301679 0.537365 0.194541
H24   H     H_    0.104072 0.773678 0.568055 0.162998
H25   H     H_    0.345399 0.263426 0.366380 0.118080
H26   H     H_    0.337288 0.672320 0.346595 0.126265
H27   H     H_    0.845094 0.763767 0.366115 0.117357
H28   H     H_    0.834525 0.172994 0.346875 0.128177
H29   H     H_    0.384468 0.748704 0.189058 0.107140
H30   H     H_    0.326861 0.212943 0.191596 0.146030
H31   H     H_    0.879397 0.250125 0.189564 0.158565
H32   H     H_    0.826947 0.713080 0.191665 0.146099
H33   H     H_    0.261579 0.699889 0.062338 0.082820
H34   H     H_    0.266034 0.300886 0.059192 0.126809
H35   H     H_    0.763769 0.200769 0.062347 0.133941
H36   H     H_    0.766680 0.801564 0.058278 0.127232
H37   H     H_    0.359883 0.914351 0.837107 0.144485
H38   H     H_    0.360134 0.084368 0.836626 0.152176
H39   H     H_    0.860629 0.414007 0.836118 0.144241
H40   H     H_    0.860391 0.584451 0.836351 0.151769
H41   H     H_    0.346715 0.039502 0.374619 0.141124
H42   H     H_    0.406963 0.928680 0.363709 0.131193
H43   H     H_    0.846907 0.539761 0.374683 0.141137
H44   H     H_    0.905613 0.428457 0.364414 0.131966
H45   H     H_    0.658753 0.237843 0.928347 0.132590
H46   H     H_    0.660725 0.762745 0.924019 0.139883
H47   H     H_    0.160938 0.736262 0.924812 0.131292
H48   H     H_    0.160358 0.262488 0.924559 0.139524
H49   H     H_    0.608207 0.747510 0.817522 0.143954
H50   H     H_    0.612999 0.250001 0.820947 0.164481
H51   H     H_    0.108118 0.247488 0.817584 0.140155
H52   H     H_    0.113694 0.749860 0.820460 0.163878
H53   H     H_    0.678428 0.937271 0.112383 0.114582
H54   H     H_    0.677584 0.063757 0.113882 0.114899
H55   H     H_    0.177708 0.436590 0.113589 0.114400
H56   H     H_    0.179074 0.562762 0.111342 0.111985
N1    N     N_R   0.408680 0.130160 0.995800 -0.067049
N2    N     N_R   0.408680 0.869840 0.995800 -0.069409
N3    N     N_R   0.908680 0.630160 0.995800 -0.066646
N4    N     N_R   0.908680 0.369840 0.995800 -0.066912
N5    N     N_R   0.421680 0.867580 0.153120 -0.039812
N6    N     N_R   0.421680 0.132420 0.153120 -0.033762
N7    N     N_R   0.921680 0.367580 0.153120 -0.035077
N8    N     N_R   0.921680 0.632420 0.153120 -0.033764
N9    N     N_R   0.403730 0.921770 0.935950 -0.056998
N10   N     N_R   0.403730 0.078230 0.935950 -0.058326
N11   N     N_R   0.903730 0.421770 0.935950 -0.063523
N12   N     N_R   0.903730 0.578230 0.935950 -0.058661
N13   N     N_R   0.426630 0.075970 0.212960 -0.049263
N14   N     N_R   0.426630 0.924030 0.212960 -0.045599
N15   N     N_R   0.926630 0.575970 0.212960 -0.049856
N16   N     N_R   0.926630 0.424030 0.212960 -0.046976
N17   N     N_R   0.591320 0.134600 0.004200 -0.060892
N18   N     N_R   0.591320 0.865400 0.004200 -0.057990
N19   N     N_R   0.091320 0.634600 0.004200 -0.057392
N20   N     N_R   0.091320 0.365400 0.004200 -0.057891
N21   N     N_R   0.578320 0.867660 0.846880 -0.066492
N22   N     N_R   0.578320 0.132340 0.846880 -0.077054
N23   N     N_R   0.078320 0.367660 0.846880 -0.065651
N24   N     N_R   0.078320 0.632340 0.846880 -0.076185
N25   N     N_R   0.573370 0.074390 0.787040 -0.094815
N26   N     N_R   0.573370 0.925610 0.787040 -0.099502
N27   N     N_R   0.073370 0.574390 0.787040 -0.094403
N28   N     N_R   0.073370 0.425610 0.787040 -0.099015
N29   N     N_R   0.596270 0.927870 0.064040 -0.045896
N30   N     N_R   0.596270 0.072130 0.064040 -0.048624
N31   N     N_R   0.096270 0.427870 0.064040 -0.046790
N32   N     N_R   0.096270 0.572130 0.064040 -0.048201
Ni1   Ni    Ni4+2 0.500000 0.131190 0.000000 0.251660
Ni2   Ni    Ni4+2 0.500000 0.868810 0.000000 0.245595
Ni3   Ni    Ni4+2 0.000000 0.631190 0.000000 0.252151
Ni4   Ni    Ni4+2 0.000000 0.368810 0.000000 0.247620
Ni5   Ni    Ni4+2 0.488650 0.000000 0.862740 0.262418
Ni6   Ni    Ni4+2 0.988650 0.500000 0.862740 0.259718
Ni7   Ni    Ni4+2 0.511350 0.000000 0.137260 0.212002
Ni8   Ni    Ni4+2 0.011350 0.500000 0.137260 0.211666
O1    O     O_3   0.410556 0.266449 0.003299 -0.788049
H57   H     H_    0.412094 0.307099 0.956788 0.321427
O2    O     O_3   0.410388 0.734005 0.997465 -0.756356
H58   H     H_    0.367064 0.710721 0.067921 0.285356
O3    O     O_3   0.910677 0.766440 0.003207 -0.788679
H59   H     H_    0.912535 0.807025 0.956393 0.320358
O4    O     O_3   0.907134 0.233972 0.007737 -0.800639
H60   H     H_    0.909521 0.192912 0.960534 0.316269
O5    O     O_3   0.546492 0.685044 0.665147 -0.747734
H61   H     H_    0.522600 0.634597 0.701484 0.334180
O6    O     O_3   0.648393 0.344520 0.676292 -0.783158
H62   H     H_    0.662037 0.383050 0.712021 0.312892
O7    O     O_3   0.046359 0.185460 0.664787 -0.761942
H63   H     H_    0.022195 0.135106 0.701264 0.324257
O8    O     O_3   0.149805 0.844124 0.675534 -0.784273
H64   H     H_    0.163235 0.882677 0.711472 0.311893
O9    O     O_3   0.778597 0.721673 0.609606 -0.768309
H65   H     H_    0.749278 0.744828 0.682359 0.340697
O10   O     O_3   0.809817 0.155570 0.575956 -0.770646
H66   H     H_    0.770609 0.128023 0.644948 0.315978
O11   O     O_3   0.278321 0.220995 0.610017 -0.768103
H67   H     H_    0.248985 0.244100 0.682798 0.342257
O12   O     O_3   0.310864 0.655077 0.576716 -0.769620
H68   H     H_    0.271375 0.627480 0.645570 0.316455
O13   O     O_3   0.693295 0.870633 0.461319 -0.749743
H69   H     H_    0.754447 0.865436 0.405905 0.311980
O14   O     O_3   0.638809 0.173006 0.484026 -0.736798
H70   H     H_    0.690779 0.147218 0.423656 0.342147
O15   O     O_3   0.194024 0.370819 0.461272 -0.750570
H71   H     H_    0.255198 0.365492 0.406112 0.312054
O16   O     O_3   0.141197 0.672338 0.482663 -0.738504
H72   H     H_    0.193211 0.646428 0.422564 0.340023
N33   N     N_2   0.799749 0.844465 0.528762 -0.124623
H73   H     H_    0.852690 0.855607 0.452240 0.154172
C89   C     C_3   0.808845 0.878260 0.608208 -0.876117
H74   H     H_    0.829979 0.939219 0.586310 0.247471
H75   H     H_    0.856609 0.845637 0.609637 0.290226
H76   H     H_    0.748943 0.879466 0.689734 0.246516
N34   N     N_2   0.756209 0.081616 0.502216 -0.104187
H77   H     H_    0.721078 0.049660 0.571597 0.154731
C90   C     C_3   0.828372 0.034260 0.423024 -0.891858
H78   H     H_    0.808917 0.973376 0.430395 0.257265
H79   H     H_    0.877819 0.037350 0.436086 0.268594
H80   H     H_    0.854053 0.050913 0.339247 0.240832
N35   N     N_2   0.300124 0.343890 0.529206 -0.125203
H81   H     H_    0.353304 0.354849 0.452808 0.154362
C91   C     C_3   0.309072 0.377408 0.608921 -0.871703
H82   H     H_    0.330568 0.438275 0.587065 0.246952
H83   H     H_    0.356514 0.344464 0.610685 0.290179
H84   H     H_    0.249041 0.378814 0.690297 0.248489
N36   N     N_2   0.257952 0.581213 0.502002 -0.104568
H85   H     H_    0.222077 0.549404 0.571410 0.155141
C92   C     C_3   0.330225 0.533624 0.423696 -0.892658
H86   H     H_    0.310524 0.472878 0.430563 0.257178
H87   H     H_    0.378888 0.536286 0.438197 0.269509
H88   H     H_    0.357039 0.550397 0.339606 0.239235
O17   O     O_3   0.812427 0.249439 0.818372 -0.751826
H89   H     H_    0.852615 0.289009 0.767460 0.330108
O18   O     O_3   0.814000 0.748829 0.815550 -0.766081
H90   H     H_    0.853950 0.708291 0.764984 0.325671
O19   O     O_3   0.314866 0.749768 0.816872 -0.757672
H91   H     H_    0.354170 0.790505 0.767754 0.328181
O20   O     O_3   0.313719 0.248895 0.816008 -0.765940
H92   H     H_    0.353819 0.208520 0.765233 0.325572
O21   O     O_3   0.540021 0.091320 0.665108 -0.722277
H93   H     H_    0.517228 0.140781 0.659529 0.349486
O22   O     O_3   0.567130 0.923509 0.639362 -0.711015
H94   H     H_    0.601412 0.969537 0.600856 0.380085
O23   O     O_3   0.041110 0.591477 0.664044 -0.722364
H95   H     H_    0.018724 0.641084 0.658121 0.349404
O24   O     O_3   0.067288 0.423516 0.639247 -0.713244
H96   H     H_    0.101735 0.469415 0.600512 0.380602
N37   N     N_2   0.210747 0.057367 0.544161 -0.132344
H97   H     H_    0.165989 0.014454 0.578073 0.178915
C93   C     C_3   0.258579 0.057535 0.588171 -0.851613
H98   H     H_    0.276577 0.997351 0.590775 0.208214
H99   H     H_    0.221288 0.079318 0.672518 0.258092
H100  H     H_    0.317711 0.089333 0.536237 0.289967
N38   N     N_2   0.359768 0.850709 0.523025 -0.123285
H101  H     H_    0.341416 0.879660 0.592963 0.163883
C94   C     C_3   0.434701 0.804118 0.476436 -0.819499
H102  H     H_    0.478233 0.834745 0.487915 0.243466
H103  H     H_    0.468330 0.796994 0.388133 0.232728
H104  H     H_    0.420121 0.747775 0.517661 0.303772
N39   N     N_2   0.711248 0.557460 0.544219 -0.132078
H105  H     H_    0.666575 0.514473 0.578350 0.180143
C95   C     C_3   0.759302 0.557920 0.587915 -0.850720
H106  H     H_    0.777692 0.497820 0.590197 0.208220
H107  H     H_    0.722039 0.579592 0.672319 0.259043
H108  H     H_    0.818228 0.590002 0.535937 0.289664
N40   N     N_2   0.858555 0.350371 0.522960 -0.123042
H109  H     H_    0.840646 0.379009 0.592916 0.163409
C96   C     C_3   0.933760 0.303940 0.475049 -0.820667
H110  H     H_    0.977657 0.334515 0.485903 0.242630
H111  H     H_    0.966780 0.297126 0.386829 0.233448
H112  H     H_    0.919718 0.247444 0.515772 0.303302

loop_
_geom_bond_atom_site_label_1
_geom_bond_atom_site_label_2
_ccdc_geom_bond_type
C61   C70   A    
C95   H108  S    
C39   C51   S    
O10   H66   S    
C3    N3    A    
C43   N35   S    
C88   N28   A    
N6    N13   A    
C2    C70   A    
C43   O11   S    
C22   H6    S    
O9    H65   S    
C48   C76   A    
N27   Ni6   S    
C1    N1    A    
N34   H77   S    
C4    C72   A    
C92   H87   S    
C93   H100  S    
C25   C43   S    
C6    C9    A    
C7    H55   S    
C53   C59   D    
N11   Ni6   S    
C26   C44   S    
O22   H94   S    
C48   H32   S    
N18   N29   A    
C29   C49   S    
O11   H67   S    
C68   C75   A    
C81   H49   S    
C20   H4    S    
C27   H11   S    
O21   H93   S    
C17   C33   S    
C37   C41   S    
C56   H36   S    
C40   C52   S    
N40   C96   S    
C38   C42   S    
C3    O3    S    
O18   H90   S    
O23   H95   S    
C58   C71   S    
C14   C38   S    
C52   H24   S    
C5    C10   A    
C95   H106  S    
C4    N4    A    
N10   Ni5   S    
C13   C81   A    
C16   C84   A    
C90   H80   S    
C46   H30   S    
N20   N31   A    
C45   C73   A    
N37   H97   S    
C49   O13   S    
C64   C71   A    
C19   C35   S    
C68   H44   S    
C2    O2    S    
C32   C52   S    
C57   O17   S    
C28   H28   S    
C86   O22   S    
N22   N25   A    
C26   C34   S    
N24   N27   A    
C80   N20   A    
O1    H57   S    
N40   H109  S    
N5    N14   A    
C23   H7    S    
C64   H40   S    
C7    N31   A    
C13   C86   A    
C16   C87   A    
C24   C38   S    
N36   H85   S    
C31   C33   S    
C15   C88   A    
C9    C55   S    
N4    N11   A    
C28   C42   S    
N15   Ni8   S    
C6    H54   S    
C10   C56   S    
C94   H102  S    
C15   C39   S    
C40   C44   S    
C13   C37   S    
N20   Ni4   S    
O2    H58   S    
C51   O15   S    
C47   H31   S    
N23   Ni4   S    
C54   H34   S    
N8    N15   A    
C22   C40   S    
O8    H64   S    
N4    Ni4   S    
C86   N26   A    
C96   H110  S    
C30   H18   S    
C77   N17   A    
N21   Ni2   S    
N36   C92   S    
C4    O4    S    
C29   H17   S    
C42   O10   S    
O7    H63   S    
C77   H45   S    
C26   H10   S    
C50   H22   S    
N19   N32   A    
C83   H51   S    
O13   H69   S    
C88   O24   S    
C59   O19   S    
C10   C78   A    
C7    C12   A    
C55   H35   S    
C35   C76   S    
C68   N16   A    
O12   H68   S    
C18   H2    S    
O15   H71   S    
C20   C24   S    
C22   O8    S    
N38   H101  S    
C28   C36   S    
C17   H1    S    
C65   N13   A    
C44   N36   S    
C31   C51   S    
C89   H74   S    
C62   H38   S    
N12   Ni6   S    
C19   C23   S    
C20   C36   S    
C39   C43   S    
C6    N30   A    
C24   O6    S    
C27   C35   S    
N33   H73   S    
C23   C37   S    
C66   C73   A    
C83   N23   A    
C52   O16   S    
C85   N25   A    
C65   C74   A    
C62   N10   A    
C62   C69   A    
C61   N9    A    
C23   O5    S    
N37   C93   S    
C31   H19   S    
C32   C34   S    
C3    C71   A    
O16   H72   S    
C26   H26   S    
N35   H81   S    
C84   N24   A    
C36   C75   S    
C25   H25   S    
C89   H75   S    
C37   C49   S    
C27   C41   S    
C32   H16   S    
C5    H53   S    
O14   H70   S    
C21   C39   S    
C8    C11   A    
C12   C54   S    
C87   N27   A    
N32   Ni8   S    
C30   H14   S    
C24   H8    S    
N34   C90   S    
C90   H78   S    
C29   H13   S    
O3    H59   S    
C8    H56   S    
C55   C57   D    
C9    C77   A    
C79   N19   A    
N3    N12   A    
C94   H103  S    
C66   N14   A    
N29   Ni7   S    
C11   C79   A    
C16   C40   S    
N6    Ni1   S    
N1    N10   A    
C25   H9    S    
C46   N6    A    
N9    Ni5   S    
C50   O14   S    
C78   N18   A    
N22   Ni1   S    
C96   H111  S    
N26   Ni5   S    
N19   Ni3   S    
N35   C91   S    
C92   H88   S    
N33   C89   S    
C14   C82   A    
C41   O9    S    
O24   H96   S    
C95   H107  S    
C46   C74   A    
C1    C69   A    
C49   H21   S    
C82   N22   A    
C45   H29   S    
N21   N26   A    
N38   C94   S    
N28   Ni6   S    
C64   N12   A    
C61   H37   S    
C51   H23   S    
C25   C33   S    
C19   N39   S    
C18   C22   S    
C5    N29   A    
N25   Ni5   S    
C67   H43   S    
C14   C85   A    
O19   H91   S    
C93   H99   S    
C11   C53   S    
N30   Ni7   S    
C65   H41   S    
O20   H92   S    
C8    N32   A    
N23   N28   A    
C38   C50   S    
C1    O1    S    
C2    N2    A    
N24   Ni3   S    
C79   H47   S    
C29   C35   S    
C85   O21   S    
C80   H48   S    
C30   C36   S    
C42   N34   S    
C54   C60   D    
C17   N37   S    
N7    N16   A    
N8    Ni3   S    
N39   C95   S    
C20   N40   S    
C47   C75   A    
C18   N38   S    
C82   H50   S    
C53   H33   S    
C89   H76   S    
N17   N30   A    
C28   H12   S    
N7    Ni4   S    
N2    N9    A    
C21   H5    S    
C60   C69   S    
C18   C34   S    
O17   H89   S    
C15   C83   A    
C92   H86   S    
C12   C80   A    
C21   O7    S    
N5    Ni2   S    
C90   H79   S    
C56   C58   D    
C91   H84   S    
C45   N5    A    
C44   O12   S    
C57   C72   S    
C30   C50   S    
C58   O18   S    
O4    H60   S    
C94   H104  S    
C17   C21   S    
N18   Ni2   S    
C19   H3    S    
C59   C70   S    
C47   N7    A    
C34   C73   S    
C63   N11   A    
O6    H62   S    
C78   H46   S    
N3    Ni3   S    
C33   C74   S    
C87   O23   S    
C63   C72   A    
C84   H52   S    
C60   O20   S    
C91   H83   S    
O5    H61   S    
C32   H20   S    
C96   H112  S    
N1    Ni1   S    
C91   H82   S    
C81   N21   A    
N31   Ni8   S    
C67   N15   A    
C67   C76   A    
N13   Ni7   S    
N39   H105  S    
N17   Ni1   S    
C48   N8    A    
N16   Ni8   S    
C63   H39   S    
C93   H98   S    
N14   Ni7   S    
C31   H15   S    
C41   N33   S    
C66   H42   S    
N2    Ni2   S    
C27   H27   S    
