data_mof_unit_32750.cif
_audit_creation_date              2013-03-05T16:33:13-0500
_audit_creation_method            fapswitch 2.2
_symmetry_space_group_name_H-M    P1
_symmetry_Int_Tables_number       1
_space_group_crystal_system       triclinic
_cell_length_a                    27.800695
_cell_length_b                    10.834332
_cell_length_c                    9.553486
_cell_angle_alpha                 90.371698
_cell_angle_beta                  90.061344
_cell_angle_gamma                 89.930347
_cell_volume                      2877.46440026

loop_
_atom_site_label
_atom_site_type_symbol
_atom_site_description
_atom_site_fract_x
_atom_site_fract_y
_atom_site_fract_z
_atom_type_partial_charge
O1    O     O_R   0.500000 0.319640 0.618810 -0.518751
O2    O     O_R   0.500010 0.319680 0.381230 -0.545053
C1    C     C_R   0.499611 0.262441 0.499254 0.840102
O3    O     O_R   0.430260 0.500000 0.618780 -0.595920
O4    O     O_R   0.430270 0.500040 0.381190 -0.554367
C2    C     C_R   0.407438 0.499572 0.499895 0.861090
Cu1   Cu    Cu3+1 0.500000 0.499980 0.640670 1.026159
Cu2   Cu    Cu3+1 0.500000 0.500020 0.359330 1.026299
O5    O     O_R   0.499990 0.680320 0.618770 -0.573477
O6    O     O_R   0.500000 0.680360 0.381190 -0.566102
O7    O     O_R   0.569730 0.499960 0.618810 -0.559604
O8    O     O_R   0.569740 0.500000 0.381220 -0.570257
C3    C     C_R   0.500012 0.737388 0.500269 0.837203
C4    C     C_R   0.592387 0.500402 0.500088 0.829005
C5    C     C_R   0.177911 0.391805 0.525550 0.640551
O9    O     O_2   0.203148 0.286442 0.542103 -0.428149
N1    N     N_R   0.201924 0.500599 0.508061 -0.446375
C6    C     C_R   0.177981 0.609628 0.491335 0.621281
C7    C     C_R   0.279396 0.528183 0.627595 0.703594
C8    C     C_R   0.329541 0.527562 0.624976 -0.355531
C9    C     C_R   0.327901 0.471383 0.378434 0.583343
C10   C     C_R   0.277747 0.471667 0.381819 -0.252030
C11   C     C_R   0.253430 0.500181 0.505949 0.132249
C12   C     C_R   0.101757 0.501369 0.508781 -0.124418
C13   C     C_R   0.127246 0.389772 0.526605 -0.168648
C14   C     C_R   0.101534 0.279629 0.543723 0.673565
C15   C     C_R   0.127539 0.612094 0.491087 -0.015199
C16   C     C_R   0.354376 0.499482 0.500502 -0.244516
H1    H     H_    0.257619 0.449668 0.287811 0.202494
C17   C     C_R   0.645090 0.502701 0.500301 -0.051282
C18   C     C_R   0.973908 0.393467 0.537731 0.098211
C19   C     C_R   0.974488 0.614300 0.476180 -0.046994
C20   C     C_R   0.948893 0.504350 0.506180 0.075657
C21   C     C_R   0.946733 0.288545 0.575679 -0.189735
C22   C     C_R   0.896819 0.290947 0.576330 -0.119219
C23   C     C_R   0.871905 0.397900 0.539563 -0.001802
C24   C     C_R   0.897717 0.505176 0.504526 -0.124260
C25   C     C_R   0.872268 0.613015 0.467722 -0.164009
C26   C     C_R   0.821619 0.610419 0.465800 0.625041
N2    N     N_R   0.797480 0.505407 0.501908 -0.457272
C27   C     C_R   0.821463 0.400255 0.538421 0.577253
C28   C     C_R   0.720947 0.438624 0.399067 -0.155383
C29   C     C_R   0.670874 0.437349 0.398058 -0.196675
C30   C     C_R   0.669887 0.570019 0.603296 -0.237514
C31   C     C_R   0.720507 0.573691 0.603711 0.507579
C32   C     C_R   0.745848 0.505645 0.501884 0.261147
O10   O     O_2   0.796500 0.298473 0.574294 -0.512020
C33   C     C_R   0.024997 0.391117 0.531395 -0.046839
C34   C     C_R   0.050580 0.502430 0.508362 0.078936
C35   C     C_R   0.025553 0.614853 0.484687 0.095798
C36   C     C_R   0.051564 0.280521 0.545825 -0.278158
H2    H     H_    0.652309 0.382788 0.319661 0.161758
H3    H     H_    0.740560 0.386901 0.320271 0.177844
H4    H     H_    0.877783 0.207917 0.605966 0.197899
H5    H     H_    0.962888 0.203187 0.608735 0.149626
H6    H     H_    0.034755 0.191536 0.555674 0.169869
O11   O     O_2   0.202990 0.715179 0.474331 -0.494338
C37   C     C_R   0.102595 0.722892 0.474120 -0.105846
H7    H     H_    0.348868 0.549996 0.720253 0.201861
H8    H     H_    0.121608 0.809505 0.462815 0.212508
C38   C     C_R   0.947963 0.720071 0.437031 -0.279342
C39   C     C_R   0.898008 0.719724 0.432923 0.657518
O12   O     O_2   0.796531 0.711432 0.427550 -0.462911
C40   C     C_R   0.052685 0.724560 0.471234 -0.187622
H9    H     H_    0.964804 0.804824 0.405336 0.172584
H10   H     H_    0.649809 0.619702 0.682471 0.158864
H11   H     H_    0.036492 0.814393 0.461203 0.152106
C41   C     C_R   0.519821 0.064571 0.609751 -0.099825
C42   C     C_R   0.501351 0.129068 0.495673 -0.175029
C43   C     C_R   0.487711 0.062000 0.374149 0.444866
C44   C     C_R   0.489368 0.933155 0.375486 -0.257302
H12   H     H_    0.478120 0.883123 0.282494 0.164941
C45   C     C_R   0.501887 0.870260 0.498325 -0.061513
C46   C     C_R   0.519337 0.937894 0.612061 -0.114544
C47   C     C_3   0.510522 0.932485 0.766497 0.171928
C48   C     C_3   0.510594 0.073526 0.763493 1.070784
H13   H     H_    0.541472 0.889531 0.822648 0.080679
C49   C     C_R   0.540411 0.469644 0.073699 0.121491
N3    N     N_R   0.500300 0.500930 0.147930 -0.166068
C50   C     C_R   0.459149 0.525049 0.074140 -0.069985
H14   H     H_    0.426303 0.547965 0.128569 0.196219
C51   C     C_R   0.459086 0.524199 0.925809 -0.043044
H15   H     H_    0.426140 0.545704 0.871380 0.154262
N4    N     N_R   0.500310 0.500890 0.852020 -0.212790
C52   C     C_R   0.540337 0.468604 0.926150 0.229980
C53   C     C_3   0.587765 0.532409 0.920547 0.307764
C54   C     C_3   0.587496 0.535624 0.078661 0.324628
H16   H     H_    0.586449 0.624524 0.869952 0.099340
H17   H     H_    0.616778 0.481165 0.127419 0.130313
F1    F     F_    0.350182 0.441938 0.256417 -0.677742
F2    F     F_    0.256005 0.555831 0.748397 -0.621272
F3    F     F_    0.875257 0.825265 0.394531 -0.614397
O13   O     O_3   0.746423 0.633954 0.707967 -0.566070
C55   C     C_3   0.730299 0.756843 0.725889 0.060808
H18   H     H_    0.698718 0.759213 0.797156 0.160249
H19   H     H_    0.720677 0.801037 0.624391 0.167626
C56   C     C_3   0.770354 0.832567 0.792584 -0.640115
H20   H     H_    0.802504 0.832154 0.723599 0.262949
H21   H     H_    0.758139 0.929320 0.808095 0.215126
H22   H     H_    0.780256 0.793146 0.895732 0.254616
O14   O     O_3   0.472250 0.120912 0.254220 -0.555036
C57   C     C_3   0.421477 0.125025 0.255203 0.028274
H23   H     H_    0.408007 0.176126 0.348987 0.162474
H24   H     H_    0.405957 0.030256 0.253729 0.137933
C58   C     C_3   0.403994 0.191985 0.125396 -0.583656
H25   H     H_    0.415759 0.141640 0.029895 0.266209
H26   H     H_    0.364107 0.197321 0.125960 0.223472
H27   H     H_    0.418883 0.286905 0.123602 0.273577
O15   O     O_3   0.464710 0.883440 0.797582 -0.538171
C59   C     C_3   0.461323 0.864431 0.943362 0.097444
H28   H     H_    0.472694 0.947717 0.004027 0.186780
H29   H     H_    0.484183 0.784766 0.974377 0.154891
C60   C     C_3   0.409381 0.836567 0.981455 -0.731571
H30   H     H_    0.396213 0.755718 0.920733 0.247022
H31   H     H_    0.406786 0.816001 0.094932 0.188392
H32   H     H_    0.386305 0.917524 0.957722 0.266744
F4    F     F_    0.466650 0.127305 0.795108 -0.654626
F5    F     F_    0.548706 0.125425 0.836086 -0.657065
F6    F     F_    0.623227 0.454713 0.869070 -0.633393
F7    F     F_    0.583007 0.654568 0.131195 -0.654259
F8    F     F_    0.124328 0.169466 0.558171 -0.603690

loop_
_geom_bond_atom_site_label_1
_geom_bond_atom_site_label_2
_geom_bond_distance
_ccdc_geom_bond_type
C49   C54   1.492788 S    
O13   C55   1.413754 S    
C10   H1    1.083040 S    
C35   C40   1.415146 A    
C45   C46   1.393676 A    
C30   H10   1.080889 S    
C7    C8    1.394330 A    
C12   C15   1.409405 A    
C31   O13   1.388747 S    
C56   H20   1.111055 S    
C43   O14   1.382988 S    
Cu1   Cu2   2.687780 S    
C52   C53   1.490677 S    
Cu1   O7    1.949981 S    
C58   H26   1.110356 S    
N1    C11   1.432087 S    
C23   C24   1.409061 A    
C1    C42   1.445937 S    
C19   C38   1.414145 A    
C36   H6    1.076593 S    
C28   H3    1.082886 S    
O4    C2    1.300232 A    
O7    C4    1.298001 A    
C53   H16   1.112257 S    
C29   H2    1.082102 S    
C5    C13   1.408794 A    
C41   C46   1.372860 A    
C5    O9    1.349261 S    
C57   C58   1.519846 S    
Cu1   O5    1.966381 S    
C21   C22   1.387865 A    
C28   C32   1.400659 A    
O5    C3    1.293452 A    
C59   H28   1.115162 S    
C33   C36   1.414234 A    
C2    C16   1.475171 S    
C22   C23   1.395956 A    
C41   C42   1.395543 A    
C39   F3    1.358406 S    
Cu2   N3    2.019722 S    
C18   C20   1.421235 A    
C53   F6    1.384215 S    
C14   F8    1.358411 S    
C38   C39   1.389299 A    
C55   H19   1.116337 S    
C60   H32   1.110493 S    
Cu1   N4    2.019100 S    
C21   H5    1.076648 S    
C9    C10   1.394736 A    
C22   H4    1.083631 S    
C17   C30   1.402077 A    
C23   C27   1.402559 A    
C57   H23   1.115028 S    
C4    C17   1.465427 S    
O3    Cu1   1.949846 S    
C56   H21   1.110556 S    
C59   H29   1.112760 S    
C9    F1    1.356667 S    
C37   C40   1.387886 A    
C58   H27   1.109271 S    
C47   O15   1.413198 S    
C46   C47   1.497405 S    
O14   C57   1.412205 S    
N4    C52   1.364824 A    
C50   C51   1.417045 A    
C26   N2    1.367930 A    
C44   C45   1.404130 A    
C53   C54   1.510744 S    
C8    C16   1.407101 A    
C55   C56   1.520863 S    
C13   C14   1.402345 A    
C31   C32   1.406088 A    
O6    C3    1.291052 A    
C48   F5    1.383668 S    
O1    C1    1.295971 A    
N2    C32   1.435393 S    
C47   C48   1.528546 S    
C40   H11   1.076652 S    
C24   C25   1.411406 A    
C6    O11   1.349878 S    
Cu2   O8    1.949841 S    
N1    C6    1.365390 A    
C27   O10   1.349946 S    
C18   C21   1.415057 A    
C55   H18   1.111766 S    
C12   C13   1.411853 A    
C8    H7    1.082906 S    
C57   H24   1.114221 S    
C47   H13   1.116225 S    
C59   C60   1.520662 S    
C19   C35   1.421870 A    
C43   C44   1.396793 A    
C49   C52   1.409580 A    
O3    C2    1.300354 A    
N2    C27   1.366351 A    
C9    C16   1.410135 A    
C3    C45   1.440829 S    
C51   H15   1.078700 S    
C51   N4    1.368532 A    
C18   C33   1.421873 A    
C54   H17   1.108773 S    
C17   C29   1.400190 A    
C28   C29   1.392180 A    
C56   H22   1.110782 S    
C30   C31   1.407888 A    
C7    C11   1.399227 A    
C60   H30   1.109751 S    
C12   C34   1.422785 A    
C5    N1    1.366605 A    
C33   C34   1.419343 A    
O1    Cu1   1.963645 S    
O2    Cu2   1.966383 S    
C6    C15   1.402528 A    
O8    C4    1.297854 A    
C50   H14   1.079185 S    
C15   C37   1.395857 A    
O4    Cu2   1.949984 S    
C41   C48   1.493784 S    
C26   O12   1.349260 S    
C58   H25   1.109347 S    
C48   F4    1.385638 S    
C19   C20   1.419305 A    
O2    C1    1.290412 A    
C54   F7    1.385467 S    
C14   C36   1.389385 A    
C49   N3    1.363439 A    
C25   C26   1.408485 A    
C42   C43   1.417199 A    
C20   C24   1.422817 A    
C7    F2    1.356896 S    
N3    C50   1.368934 A    
C38   H9    1.076570 S    
C44   H12   1.083712 S    
Cu2   O6    1.963644 S    
C34   C35   1.421282 A    
C10   C11   1.398284 A    
C25   C39   1.402400 A    
O15   C59   1.412425 S    
C37   H8    1.083640 S    
C60   H31   1.110614 S    
