data_mof_unit_54027.cif
_audit_creation_date              2013-03-05T16:06:19-0500
_audit_creation_method            fapswitch 2.2
_symmetry_space_group_name_H-M    P1
_symmetry_Int_Tables_number       1
_space_group_crystal_system       triclinic
_cell_length_a                    10.870071
_cell_length_b                    9.505296
_cell_length_c                    27.820717
_cell_angle_alpha                 89.895493
_cell_angle_beta                  89.619513
_cell_angle_gamma                 90.003654
_cell_volume                      2874.45851389

loop_
_atom_site_label
_atom_site_type_symbol
_atom_site_description
_atom_site_fract_x
_atom_site_fract_y
_atom_site_fract_z
_atom_type_partial_charge
O1    O     O_R   0.319640 0.618740 0.500000 -0.588019
O2    O     O_R   0.680360 0.381260 0.500000 -0.587955
O3    O     O_R   0.680360 0.618740 0.500000 -0.588067
O4    O     O_R   0.319640 0.381260 0.500000 -0.587826
C1    C     C_R   0.261973 0.499997 0.499988 0.795225
C2    C     C_R   0.738027 0.500003 0.500012 0.794927
O5    O     O_R   0.500020 0.618770 0.430260 -0.585689
O6    O     O_R   0.499980 0.381230 0.569740 -0.585503
O7    O     O_R   0.499980 0.618770 0.569740 -0.583174
O8    O     O_R   0.500020 0.381230 0.430260 -0.583168
C3    C     C_R   0.500686 0.500108 0.407398 0.816070
C4    C     C_R   0.499379 0.499807 0.592599 0.815997
Cu1   Cu    Cu3+1 0.500000 0.640660 0.500000 0.950781
Cu2   Cu    Cu3+1 0.500000 0.359340 0.500000 0.951324
C5    C     C_R   0.397901 0.515139 0.178946 0.570634
C6    C     C_R   0.598686 0.519559 0.821158 0.570488
O9    O     O_2   0.296900 0.546300 0.205253 -0.460549
O10   O     O_2   0.699128 0.553830 0.794945 -0.458677
N1    N     N_R   0.506716 0.495744 0.201999 -0.470909
N2    N     N_R   0.490613 0.496663 0.798002 -0.470604
C7    C     C_R   0.613781 0.470726 0.177693 0.540965
C8    C     C_R   0.383298 0.472304 0.822255 0.542474
C9    C     C_R   0.496911 0.372755 0.279071 -0.136188
C10   C     C_R   0.479513 0.622917 0.721392 -0.130213
C11   C     C_R   0.494726 0.372986 0.329094 -0.211428
C12   C     C_R   0.482837 0.624657 0.671319 -0.214142
C13   C     C_R   0.514524 0.627260 0.328836 -0.196913
C14   C     C_R   0.508097 0.371062 0.670727 -0.194174
C15   C     C_R   0.517379 0.627788 0.278435 0.209630
C16   C     C_R   0.505464 0.368543 0.721066 0.204952
C17   C     C_R   0.507827 0.499201 0.253573 0.357766
C18   C     C_R   0.490712 0.495719 0.746411 0.357020
C19   C     C_R   0.502709 0.485782 0.102090 -0.116356
C20   C     C_R   0.493807 0.488329 0.897939 -0.116042
C21   C     C_R   0.391851 0.505161 0.128453 -0.135553
C22   C     C_R   0.604616 0.509237 0.871646 -0.136307
C23   C     C_R   0.279527 0.517935 0.103421 0.380802
C24   C     C_R   0.716830 0.522386 0.896720 0.380676
C25   C     C_R   0.615668 0.467019 0.126752 -0.009669
C26   C     C_R   0.381027 0.469158 0.873208 -0.010067
C27   C     C_R   0.503012 0.500196 0.354441 -0.080363
C28   C     C_R   0.497032 0.498748 0.645551 -0.080527
H1    H     H_    0.521659 0.725969 0.348051 0.157947
H2    H     H_    0.519509 0.273307 0.651216 0.156108
C29   C     C_R   0.384951 0.477901 0.975535 0.045159
C30   C     C_R   0.611454 0.477815 0.024463 0.045199
C31   C     C_R   0.609461 0.493405 0.973640 -0.001659
C32   C     C_R   0.386883 0.491873 0.026409 -0.001351
C33   C     C_R   0.496051 0.486585 0.949080 0.074680
C34   C     C_R   0.500355 0.485135 0.050945 0.074585
C35   C     C_R   0.275345 0.451783 0.950534 -0.174834
C36   C     C_R   0.721146 0.451259 0.049375 -0.175464
C37   C     C_R   0.271658 0.445438 0.900382 0.102621
C38   C     C_R   0.724960 0.443850 0.099511 0.101918
O11   O     O_2   0.280067 0.452490 0.796589 -0.531531
O12   O     O_2   0.717285 0.451612 0.203281 -0.530595
C39   C     C_R   0.278599 0.513053 0.053439 -0.270772
C40   C     C_R   0.717662 0.516261 0.946693 -0.270821
H3    H     H_    0.473924 0.724466 0.652820 0.165129
H4    H     H_    0.485935 0.273521 0.347873 0.163367
H5    H     H_    0.468813 0.720681 0.740910 0.149303
H6    H     H_    0.489524 0.274017 0.259926 0.148012
H7    H     H_    0.191122 0.429546 0.969790 0.142774
H8    H     H_    0.805344 0.429642 0.030039 0.142850
H9    H     H_    0.190642 0.528657 0.036499 0.169893
H10   H     H_    0.805480 0.531981 0.963716 0.170461
C41   C     C_R   0.063734 0.372229 0.500017 -0.171383
C42   C     C_R   0.936265 0.627770 0.499984 -0.171458
C43   C     C_R   0.936246 0.372232 0.500053 -0.171491
C44   C     C_R   0.063753 0.627767 0.499949 -0.171453
H11   H     H_    0.111609 0.272286 0.500025 0.150109
H12   H     H_    0.888390 0.727714 0.499976 0.150027
H13   H     H_    0.888356 0.272290 0.500101 0.150075
H14   H     H_    0.111643 0.727710 0.499901 0.150042
C45   C     C_R   0.871864 0.500003 0.500024 -0.020783
C46   C     C_R   0.128135 0.499996 0.499977 -0.020822
C47   C     C_R   0.423729 0.074613 0.470278 -0.022951
C48   C     C_R   0.576275 0.925390 0.529720 -0.023403
C49   C     C_R   0.576264 0.074317 0.529725 -0.023459
C50   C     C_R   0.423731 0.925685 0.470277 -0.024166
H15   H     H_    0.362669 0.130954 0.446483 0.120968
H16   H     H_    0.637344 0.869051 0.553512 0.122891
H17   H     H_    0.637308 0.130423 0.553525 0.120341
H18   H     H_    0.362677 0.869581 0.446482 0.122641
N3    N     N_R   0.500000 0.852070 0.500000 -0.159107
N4    N     N_R   0.500000 0.147930 0.500000 -0.158320
C51   C     C_3   0.530954 0.764413 0.251489 -0.815310
H19   H     H_    0.539423 0.855291 0.276301 0.221189
H20   H     H_    0.614719 0.760793 0.228459 0.247768
H21   H     H_    0.449293 0.782033 0.228506 0.252991
C52   C     C_3   0.519506 0.231205 0.747491 -0.817086
H22   H     H_    0.436296 0.210678 0.769762 0.247567
H23   H     H_    0.531788 0.141550 0.722356 0.222092
H24   H     H_    0.601241 0.235941 0.771162 0.251114
N5    N     N_R   0.163628 0.529614 0.127862 0.148798
O13   O     O_R   0.089304 0.632183 0.117229 -0.364966
O14   O     O_R   0.122913 0.424061 0.153231 -0.330283
N6    N     N_R   0.832803 0.534624 0.872319 0.149565
O15   O     O_R   0.907816 0.635834 0.883569 -0.363531
O16   O     O_R   0.873089 0.430031 0.846527 -0.333547
C53   C     C_3   0.149005 0.412173 0.877892 -0.580009
H25   H     H_    0.118440 0.502271 0.855568 0.298911
H26   H     H_    0.156289 0.315114 0.855918 0.244595
H27   H     H_    0.075851 0.392979 0.905191 0.216008
C54   C     C_3   0.847664 0.410228 0.121916 -0.578887
H28   H     H_    0.840309 0.313146 0.143996 0.246091
H29   H     H_    0.920594 0.390902 0.094562 0.215725
H30   H     H_    0.878531 0.500198 0.144122 0.298284

loop_
_geom_bond_atom_site_label_1
_geom_bond_atom_site_label_2
_geom_bond_distance
_ccdc_geom_bond_type
C16   C18   1.409197 A    
C51   H19   1.110932 S    
C10   H5    1.083036 S    
C36   H8    1.078478 S    
C13   C15   1.402326 A    
N5    O13   1.301139 A    
C24   N6    1.432434 S    
O3    C2    1.291059 A    
N1    C17   1.435379 S    
C32   C39   1.407237 A    
C31   C33   1.414963 A    
C42   C45   1.401734 A    
C5    N1    1.361647 A    
C54   H29   1.110811 S    
C19   C25   1.421611 A    
O1    C1    1.291038 A    
N1    C7    1.363239 A    
C10   C12   1.393369 A    
C29   C32   1.422090 A    
C25   C38   1.422283 A    
C29   C35   1.405885 A    
C30   C36   1.405751 A    
C23   N5    1.432050 S    
C13   C27   1.406241 A    
O7    Cu1   1.950963 S    
C24   C40   1.391509 A    
C40   H10   1.078933 S    
C9    H6    1.083215 S    
C37   C53   1.510221 S    
C44   H14   1.083228 S    
C4    C28   1.473219 S    
C43   H13   1.083227 S    
C11   H4    1.083266 S    
C47   H15   1.081748 S    
C12   H3    1.083142 S    
C41   H11   1.083220 S    
O3    Cu1   1.971580 S    
C6    N2    1.361236 A    
C32   C34   1.415086 A    
C53   H26   1.110204 S    
Cu1   Cu2   2.674030 S    
O2    C2    1.291036 A    
C5    C21   1.410073 A    
C36   C38   1.397375 A    
C54   H30   1.109155 S    
C50   H18   1.081742 S    
C53   H25   1.109230 S    
C2    C45   1.454828 S    
C35   H7    1.078359 S    
Cu2   N4    2.009516 S    
O8    Cu2   1.950963 S    
C11   C27   1.404082 A    
C52   H22   1.110033 S    
C48   C49   1.415599 A    
O4    C1    1.291059 A    
C19   C34   1.423332 A    
C14   H2    1.083679 S    
C42   H12   1.083221 S    
C35   C37   1.397512 A    
C9    C17   1.399150 A    
O5    C3    1.295891 A    
C10   C18   1.399715 A    
C50   N3    1.366676 A    
C52   H23   1.110864 S    
C48   H16   1.081732 S    
C7    C25   1.417752 A    
C29   C33   1.412415 A    
O6    C4    1.295155 A    
C8    C26   1.417855 A    
C48   N3    1.366723 A    
C6    O10   1.348513 S    
N2    C8    1.363302 A    
C47   N4    1.366715 A    
C26   C37   1.422381 A    
C53   H27   1.110803 S    
N6    O16   1.301361 A    
C51   H20   1.110457 S    
C44   C46   1.401747 A    
C20   C26   1.421673 A    
O1    Cu1   1.971553 S    
C43   C45   1.401747 A    
C22   C24   1.414799 A    
C12   C28   1.404179 A    
N2    C18   1.435345 S    
C47   C50   1.415598 A    
C5    O9    1.348675 S    
C30   C31   1.421733 A    
C20   C33   1.423228 A    
O6    Cu2   1.951718 S    
C38   C54   1.509988 S    
C21   C23   1.414749 A    
C39   H9    1.078871 S    
C16   C52   1.505309 S    
C7    O12   1.347511 S    
N5    O14   1.301481 A    
C8    O11   1.347445 S    
C54   H28   1.110198 S    
C30   C34   1.412247 A    
C1    C46   1.454831 S    
C14   C16   1.400736 A    
C15   C17   1.409663 A    
C6    C22   1.409772 A    
C52   H24   1.110375 S    
C49   H17   1.081760 S    
C14   C28   1.405750 A    
C19   C21   1.418727 A    
C3    C27   1.473341 S    
C20   C22   1.418844 A    
C9    C11   1.391726 A    
O4    Cu2   1.971580 S    
O2    Cu2   1.971553 S    
O7    C4    1.296332 A    
C15   C51   1.505073 S    
O8    C3    1.295667 A    
C13   H1    1.083730 S    
O5    Cu1   1.951718 S    
C42   C44   1.385799 A    
N6    O15   1.301050 A    
C51   H21   1.109963 S    
Cu1   N3    2.009515 S    
C41   C46   1.401734 A    
C41   C43   1.385799 A    
C49   N4    1.366669 A    
C23   C39   1.391508 A    
C31   C40   1.407193 A    
