data_mof_unit_59670.cif
_audit_creation_date              2013-03-05T15:53:33-0500
_audit_creation_method            fapswitch 2.2
_symmetry_space_group_name_H-M    P1
_symmetry_Int_Tables_number       1
_space_group_crystal_system       triclinic
_cell_length_a                    30.490003
_cell_length_b                    7.245171
_cell_length_c                    25.983371
_cell_angle_alpha                 90.575018
_cell_angle_beta                  112.133361
_cell_angle_gamma                 90.400851
_cell_volume                      5316.26240236

loop_
_atom_site_label
_atom_site_type_symbol
_atom_site_description
_atom_site_fract_x
_atom_site_fract_y
_atom_site_fract_z
_atom_type_partial_charge
O1    O     O_R   0.295360 0.592990 0.320420 -0.588752
O2    O     O_R   0.704640 0.407010 0.679580 -0.588630
O3    O     O_R   0.204640 0.092990 0.179580 -0.578920
O4    O     O_R   0.795360 0.907010 0.820420 -0.578914
O5    O     O_R   0.294060 0.265620 0.213230 -0.571342
O6    O     O_R   0.705940 0.734380 0.786770 -0.571121
O7    O     O_R   0.205940 0.765620 0.286770 -0.576907
O8    O     O_R   0.794060 0.234380 0.713230 -0.576936
C1    C     C_R   0.304976 0.432356 0.200589 0.978336
C2    C     C_R   0.695026 0.567646 0.799425 0.977162
C3    C     C_R   0.194889 0.932612 0.299267 0.990881
C4    C     C_R   0.805112 0.067388 0.700734 0.990794
O9    O     O_R   0.300850 0.263360 0.322080 -0.560996
O10   O     O_R   0.699150 0.736640 0.677920 -0.561261
O11   O     O_R   0.199150 0.763360 0.177920 -0.581399
O12   O     O_R   0.800850 0.236640 0.822080 -0.581415
O13   O     O_R   0.211480 0.091820 0.289210 -0.578004
O14   O     O_R   0.788520 0.908180 0.710790 -0.578003
O15   O     O_R   0.288520 0.591820 0.210790 -0.590041
O16   O     O_R   0.711480 0.408180 0.789210 -0.589768
C5    C     C_R   0.313239 0.433373 0.343274 0.929655
C6    C     C_R   0.686757 0.566627 0.656732 0.928685
C7    C     C_R   0.186599 0.930150 0.156681 0.939854
C8    C     C_R   0.813401 0.069850 0.843319 0.939860
O17   O     O_3   0.220670 0.426670 0.239090 -0.260281
O18   O     O_3   0.779330 0.573330 0.760910 -0.260252
O19   O     O_3   0.279330 0.926670 0.260910 -0.266636
O20   O     O_3   0.720670 0.073330 0.739090 -0.266234
V1    V     V_3+5 0.255440 0.152290 0.252020 1.270065
V2    V     V_3+5 0.744560 0.847710 0.747980 1.270332
V3    V     V_3+5 0.244560 0.652290 0.247980 1.248583
V4    V     V_3+5 0.755440 0.347710 0.752020 1.248813
C9    C     C_R   0.850524 0.069565 0.899804 -0.145507
C10   C     C_R   0.149477 0.930434 0.100196 -0.145473
C11   C     C_R   0.650300 0.549640 0.600137 -0.142564
C12   C     C_R   0.349685 0.450365 0.399879 -0.142824
C13   C     C_R   0.874958 0.146814 0.997371 -0.016093
C14   C     C_R   0.125042 0.853178 0.002629 -0.016109
C15   C     C_R   0.630178 0.442120 0.505609 0.004316
C16   C     C_R   0.369785 0.557877 0.494407 0.004388
C17   C     C_R   0.840499 0.143833 0.943820 -0.171707
C18   C     C_R   0.159501 0.856161 0.056181 -0.171730
C19   C     C_R   0.664027 0.496621 0.556738 -0.163544
C20   C     C_R   0.335944 0.503398 0.443267 -0.163761
C21   C     C_R   0.896808 0.011522 0.909357 -0.083827
C22   C     C_R   0.103192 0.988478 0.090643 -0.083823
C23   C     C_R   0.601850 0.561234 0.590447 -0.059004
C24   C     C_R   0.398139 0.438756 0.409591 -0.058705
C25   C     C_R   0.934119 0.036564 0.962242 0.133102
C26   C     C_R   0.065882 0.963434 0.037758 0.133092
C27   C     C_R   0.566509 0.521485 0.537098 0.142812
C28   C     C_R   0.433468 0.478474 0.462948 0.142472
C29   C     C_R   0.921258 0.085252 0.007636 -0.085623
C30   C     C_R   0.078743 0.914743 0.992364 -0.085611
C31   C     C_R   0.581572 0.441429 0.496556 -0.077818
C32   C     C_R   0.418396 0.558530 0.503482 -0.077698
C33   C     C_R   0.983201 0.007996 0.971979 -0.160129
C34   C     C_R   0.016800 0.992001 0.028020 -0.160130
C35   C     C_R   0.516800 0.544967 0.524219 -0.139354
C36   C     C_R   0.483176 0.454964 0.475838 -0.139558
C37   C     C_R   0.999655 0.999073 0.071929 0.379687
C38   C     C_R   0.000345 0.000922 0.928070 0.379685
C39   C     C_R   0.500594 0.341168 0.443026 0.380812
C40   C     C_R   0.499378 0.658728 0.557037 0.380614
C41   C     C_R   0.953990 0.063688 0.062403 0.212673
C42   C     C_R   0.046010 0.936306 0.937597 0.212675
C43   C     C_R   0.548457 0.350160 0.449791 0.224837
C44   C     C_R   0.451511 0.649749 0.550259 0.224994
H1    H     H_    0.097205 0.055443 0.124603 0.193966
H2    H     H_    0.902795 0.944559 0.875396 0.193966
H3    H     H_    0.407621 0.413211 0.374131 0.180455
H4    H     H_    0.592386 0.586795 0.625922 0.179504
H5    H     H_    0.194633 0.805997 0.062994 0.119637
H6    H     H_    0.805367 0.193994 0.937007 0.119741
H7    H     H_    0.298733 0.513207 0.436509 0.120433
H8    H     H_    0.701236 0.486832 0.563481 0.120433
H9    H     H_    0.864954 0.197764 0.030641 0.171260
H10   H     H_    0.135047 0.802225 0.969359 0.171237
H11   H     H_    0.642591 0.393523 0.474034 0.170924
H12   H     H_    0.357363 0.606480 0.525972 0.170921
C45   C     C_R   0.093563 0.992315 0.480194 0.532496
C46   C     C_R   0.906443 0.007703 0.519813 0.532493
C47   C     C_R   0.425157 0.331622 0.039620 0.555354
C48   C     C_R   0.574891 0.668119 0.960518 0.555355
N1    N     N_R   0.073273 0.968532 0.423629 -0.189492
N2    N     N_R   0.926733 0.031484 0.576378 -0.189491
N3    N     N_R   0.426242 0.472324 0.075842 -0.189673
N4    N     N_R   0.573745 0.527588 0.924213 -0.189455
C49   C     C_R   0.025148 0.956292 0.396814 0.532563
C50   C     C_R   0.974857 0.043726 0.603193 0.532564
C51   C     C_R   0.455521 0.622414 0.082666 0.565360
C52   C     C_R   0.544399 0.377649 0.917318 0.565292
C53   C     C_R   0.995260 0.969049 0.426761 -0.111472
C54   C     C_R   0.004746 0.030970 0.573246 -0.111466
C55   C     C_R   0.485294 0.635729 0.052615 -0.065475
C56   C     C_R   0.514660 0.364261 0.947409 -0.065379
C57   C     C_R   0.015121 0.993504 0.484857 -0.037744
C58   C     C_R   0.984885 0.006516 0.515151 -0.037746
C59   C     C_R   0.484931 0.493223 0.015225 -0.020382
C60   C     C_R   0.515051 0.506694 0.984831 -0.020341
C61   C     C_R   0.065053 0.004962 0.512567 -0.206577
C62   C     C_R   0.934953 0.995057 0.487441 -0.206580
C63   C     C_R   0.454520 0.337829 0.008210 -0.185106
C64   C     C_R   0.545484 0.662021 0.991873 -0.185006
C65   C     C_R   0.945936 0.957870 0.399510 -0.173371
C66   C     C_R   0.054070 0.042149 0.600497 -0.173379
C67   C     C_R   0.515444 0.788844 0.059543 -0.143465
C68   C     C_R   0.484506 0.211153 0.940477 -0.143535
C69   C     C_R   0.915858 0.970562 0.428752 0.527651
C70   C     C_R   0.084147 0.029457 0.571255 0.527649
C71   C     C_R   0.545245 0.803636 0.030031 0.513714
C72   C     C_R   0.454739 0.196266 0.970030 0.513701
O21   O     O_2   0.141078 0.005681 0.504494 -0.461519
O22   O     O_2   0.858928 0.994337 0.495513 -0.461515
O23   O     O_2   0.395377 0.187816 0.033960 -0.465227
O24   O     O_2   0.604788 0.811632 0.966331 -0.465627
O25   O     O_2   0.006203 0.930679 0.341179 -0.474595
O26   O     O_2   0.993802 0.069338 0.658828 -0.474599
O27   O     O_2   0.456228 0.758008 0.118991 -0.496377
O28   O     O_2   0.543590 0.242279 0.880886 -0.496764
H13   H     H_    0.930265 0.939259 0.354788 0.225355
H14   H     H_    0.069741 0.060760 0.645219 0.225350
H15   H     H_    0.515942 0.899503 0.088139 0.205343
H16   H     H_    0.483981 0.100551 0.911852 0.205306
C73   C     C_R   0.898303 0.900648 0.645768 -0.141442
C74   C     C_R   0.101701 0.099362 0.354236 -0.141436
C75   C     C_R   0.597582 0.679676 0.853834 -0.121985
C76   C     C_R   0.402797 0.321599 0.146701 -0.121872
H17   H     H_    0.922257 0.786619 0.650572 0.173918
H18   H     H_    0.077746 0.213390 0.349433 0.173916
H19   H     H_    0.569734 0.778999 0.847767 0.189185
H20   H     H_    0.430940 0.223383 0.153124 0.188949
C77   C     C_R   0.870137 0.908519 0.677944 0.345755
C78   C     C_R   0.129866 0.091483 0.322058 0.345757
C79   C     C_R   0.625742 0.690100 0.821684 0.320395
C80   C     C_R   0.374667 0.311302 0.178897 0.320036
C81   C     C_R   0.838610 0.058213 0.671293 -0.290191
C82   C     C_R   0.161392 0.941790 0.328710 -0.290225
C83   C     C_R   0.661896 0.558148 0.829347 -0.288356
C84   C     C_R   0.338112 0.441885 0.170692 -0.286798
C85   C     C_R   0.837892 0.198934 0.633984 -0.120528
C86   C     C_R   0.162113 0.801076 0.366023 -0.120539
C87   C     C_R   0.667436 0.416247 0.867893 -0.150961
C88   C     C_R   0.332197 0.582463 0.131663 -0.154677
H21   H     H_    0.814263 0.314745 0.627963 0.151034
H22   H     H_    0.185742 0.685267 0.372044 0.151018
H23   H     H_    0.694704 0.313742 0.874812 0.146084
H24   H     H_    0.304634 0.683895 0.124369 0.145306
C89   C     C_R   0.866730 0.190442 0.603012 -0.016791
C90   C     C_R   0.133277 0.809574 0.396996 -0.016789
C91   C     C_R   0.638738 0.406512 0.898950 0.002263
C92   C     C_R   0.360907 0.592185 0.100625 0.001468
H25   H     H_    0.865461 0.300303 0.574557 0.135223
H26   H     H_    0.134546 0.699717 0.425453 0.135223
H27   H     H_    0.644010 0.296695 0.928587 0.159728
H28   H     H_    0.355358 0.700999 0.070619 0.159237
C93   C     C_R   0.896927 0.040794 0.608419 0.127177
C94   C     C_R   0.103079 0.959219 0.391588 0.127173
C95   C     C_R   0.603715 0.538415 0.892366 0.113325
C96   C     C_R   0.396280 0.461506 0.107683 0.114305
N5    N     N_R   0.939723 0.089272 0.108754 0.266593
O29   O     O_R   0.905198 0.990624 0.112383 -0.320267
O30   O     O_R   0.964860 0.194399 0.150504 -0.257320
N6    N     N_R   0.060277 0.910718 0.891246 0.266591
O31   O     O_R   0.094803 0.009361 0.887616 -0.320304
O32   O     O_R   0.035140 0.805591 0.849496 -0.257328
N7    N     N_R   0.563875 0.247392 0.412225 0.264645
O33   O     O_R   0.592833 0.110476 0.430324 -0.339412
O34   O     O_R   0.544061 0.274150 0.358997 -0.270508
N8    N     N_R   0.436087 0.752477 0.587826 0.264632
O35   O     O_R   0.407140 0.889431 0.569736 -0.339396
O36   O     O_R   0.455881 0.725630 0.641050 -0.270820
Cl1   Cl    Cl    0.028720 0.886304 0.136033 -0.495551
Cl2   Cl    Cl    0.971282 0.113691 0.863967 -0.495557
Cl3   Cl    Cl    0.467199 0.151993 0.402987 -0.499275
Cl4   Cl    Cl    0.532775 0.847839 0.597113 -0.500053
Cl5   Cl    Cl    0.854701 0.954809 0.388107 -0.454665
Cl6   Cl    Cl    0.145305 0.045210 0.611901 -0.454692
Cl7   Cl    Cl    0.581138 0.004628 0.043922 -0.549383
Cl8   Cl    Cl    0.418822 0.995337 0.956117 -0.549363
N9    N     N_R   0.875666 0.768225 0.718570 0.253040
O37   O     O_R   0.880139 0.814126 0.768856 -0.359590
O38   O     O_R   0.884182 0.598903 0.708303 -0.367908
N10   N     N_R   0.124335 0.231777 0.281432 0.253042
O39   O     O_R   0.119861 0.185873 0.231146 -0.359570
O40   O     O_R   0.115824 0.401100 0.291700 -0.367909
N11   N     N_R   0.615538 0.829604 0.779985 0.251341
O41   O     O_R   0.611927 0.785776 0.729849 -0.350084
O42   O     O_R   0.602184 0.992558 0.789312 -0.333207
N12   N     N_R   0.385325 0.173743 0.221214 0.251511
O43   O     O_R   0.388076 0.218881 0.270935 -0.352887
O44   O     O_R   0.400030 0.012061 0.212975 -0.329671

loop_
_geom_bond_atom_site_label_1
_geom_bond_atom_site_label_2
_geom_bond_distance
_ccdc_geom_bond_type
O17   V3    1.762102 S    
C59   C63   1.419321 A    
C92   C96   1.400703 A    
O1    C5    1.328847 A    
N12   O43   1.300967 A    
N3    C51   1.368993 A    
O19   V1    1.775805 S    
C9    C21   1.405858 A    
C86   H22   1.083376 S    
O3    C7    1.333694 A    
C10   C18   1.394389 A    
C67   H15   1.083742 S    
C88   H24   1.083366 S    
O15   V3    1.974316 S    
N5    O29   1.301337 A    
C25   C33   1.437525 A    
C33   C38   1.423429 A    
N7    O34   1.301075 A    
C5    C12   1.475175 S    
C45   C61   1.422019 A    
N9    O37   1.301047 A    
N3    C96   1.447443 S    
C77   C81   1.422423 A    
C6    C11   1.475111 S    
C35   C40   1.421955 A    
C26   C30   1.418276 A    
C47   C63   1.421388 A    
C36   C39   1.421920 A    
C50   O26   1.349707 S    
O9    V1    1.983481 S    
N6    O31   1.301340 A    
C3    C82   1.490466 S    
C75   C79   1.407702 A    
C14   C18   1.392098 A    
C76   C80   1.407826 A    
C66   C70   1.396991 A    
O4    C8    1.333693 A    
C1    C84   1.490133 S    
C73   C93   1.401519 A    
N8    O35   1.301327 A    
C54   C58   1.407491 A    
C55   C59   1.407690 A    
C73   C77   1.407302 A    
C38   Cl2   1.775484 S    
C57   C58   1.422985 A    
C52   C56   1.406215 A    
O13   V1    1.974457 S    
N10   O39   1.301072 A    
O2    V4    1.988767 S    
N4    C95   1.447749 S    
O3    V1    1.975879 S    
C89   H25   1.082783 S    
C22   H1    1.077657 S    
C65   C69   1.396989 A    
C28   C36   1.435433 A    
C53   C65   1.401552 A    
C17   H6    1.083813 S    
C83   C87   1.408634 A    
C80   C84   1.422156 A    
C1    O15   1.326271 A    
C60   C64   1.419255 A    
C15   C31   1.410272 A    
C92   H28   1.082978 S    
C2    O16   1.326376 A    
C16   C32   1.410301 A    
O2    C6    1.328838 A    
C90   H26   1.082787 S    
C16   H12   1.081794 S    
C10   C22   1.405855 A    
C91   H27   1.082907 S    
C40   Cl4   1.775196 S    
C11   C19   1.394096 A    
C16   C20   1.391670 A    
C85   H21   1.083385 S    
C72   Cl8   1.765796 S    
C13   C29   1.410817 A    
C34   C37   1.423425 A    
O11   C7    1.331159 A    
C56   C68   1.401838 A    
C11   C23   1.405210 A    
C35   C36   1.435133 A    
O12   C8    1.331161 A    
C13   C17   1.392098 A    
C71   Cl7   1.765781 S    
C44   N8    1.436705 S    
C68   H16   1.083726 S    
C76   H20   1.083299 S    
C79   N11   1.436880 S    
N5    O30   1.301186 A    
C45   N1    1.371433 A    
C50   C54   1.406624 A    
O5    V1    1.993489 S    
N9    O38   1.301399 A    
O1    V3    1.988767 S    
C39   C43   1.403551 A    
O7    V3    1.991940 S    
C38   C42   1.403828 A    
C65   H13   1.083680 S    
C26   C34   1.437525 A    
C47   O23   1.347119 S    
C37   Cl1   1.775484 S    
C46   O22   1.346999 S    
C82   C86   1.408509 A    
N7    O33   1.301342 A    
C74   H18   1.083227 S    
N1    C49   1.368555 A    
O18   V4    1.762103 S    
C15   C19   1.391627 A    
C14   H10   1.081912 S    
C61   C70   1.421265 A    
C32   C44   1.408298 A    
C13   H9    1.081909 S    
C68   C72   1.396588 A    
C80   N12   1.437066 S    
C63   C72   1.421567 A    
C15   H11   1.081810 S    
C20   H7    1.083693 S    
C87   H23   1.083417 S    
O5    C1    1.327664 A    
C58   C62   1.419198 A    
C45   O21   1.346995 S    
C74   C94   1.401529 A    
O7    C3    1.327799 A    
C59   C60   1.422448 A    
C14   C30   1.410817 A    
C21   C25   1.424595 A    
O8    C4    1.327796 A    
C7    C10   1.477677 S    
C57   C61   1.419198 A    
C66   H14   1.083683 S    
C48   N4    1.372267 A    
C46   C62   1.422014 A    
C42   N6    1.437181 S    
N4    C52   1.369130 A    
C39   Cl3   1.775184 S    
C55   C67   1.401833 A    
O14   V2    1.974463 S    
C77   N9    1.437257 S    
O6    V2    1.993489 S    
C49   O25   1.349712 S    
N2    C50   1.368551 A    
C48   C64   1.421371 A    
C51   O27   1.349889 S    
C12   C20   1.394114 A    
C27   C35   1.435487 A    
N1    C94   1.446857 S    
C24   H3    1.079270 S    
C41   N5    1.437180 S    
C40   C44   1.403601 A    
C53   C57   1.407494 A    
C29   C41   1.407804 A    
C76   C96   1.402305 A    
O16   V4    1.974314 S    
C43   N7    1.436729 S    
C19   H8    1.083694 S    
C81   C85   1.408508 A    
C3    O13   1.323704 A    
C18   H5    1.083810 S    
N12   O44   1.301421 A    
C87   C91   1.397915 A    
C90   C94   1.400912 A    
C21   H2    1.077655 S    
C75   C95   1.402481 A    
C67   C71   1.396601 A    
C84   C88   1.408481 A    
C78   N10   1.437254 S    
C47   N3    1.372177 A    
C78   C82   1.422418 A    
C64   C71   1.421586 A    
C23   C27   1.423975 A    
O11   V3    2.006032 S    
C30   C42   1.407807 A    
O12   V4    2.006034 S    
C22   C26   1.424592 A    
C8    C9    1.477676 S    
C79   C83   1.421931 A    
C9    C17   1.394385 A    
C86   C90   1.399077 A    
N6    O32   1.301187 A    
C52   O28   1.349852 S    
O10   V2    1.983481 S    
C31   C43   1.408289 A    
C88   C92   1.397802 A    
C46   N2    1.371434 A    
O9    C5    1.336539 A    
O10   C6    1.336505 A    
C33   C34   1.436750 A    
C85   C89   1.399070 A    
O8    V4    1.991946 S    
N8    O36   1.301058 A    
C25   C29   1.418277 A    
C56   C60   1.407651 A    
O20   V2    1.775805 S    
N10   O40   1.301371 A    
C12   C24   1.405203 A    
C27   C31   1.418839 A    
C37   C41   1.403829 A    
C49   C53   1.406624 A    
N2    C93   1.446857 S    
C75   H19   1.083344 S    
C23   H4    1.079323 S    
N11   O42   1.301433 A    
C54   C66   1.401554 A    
O6    C2    1.327764 A    
C51   C55   1.406216 A    
C73   H17   1.083220 S    
C24   C28   1.423938 A    
C74   C78   1.407310 A    
C48   O24   1.347095 S    
C2    C83   1.490460 S    
C4    O14   1.323705 A    
C69   Cl5   1.765254 S    
C70   Cl6   1.765257 S    
C4    C81   1.490476 S    
C62   C69   1.421270 A    
N11   O41   1.301217 A    
C89   C93   1.400906 A    
O4    V2    1.975882 S    
C28   C32   1.418791 A    
C91   C95   1.400996 A    
