data_mof_unit_32009.cif
_audit_creation_date              2013-03-05T15:45:43-0500
_audit_creation_method            fapswitch 2.2
_symmetry_space_group_name_H-M    P1
_symmetry_Int_Tables_number       1
_space_group_crystal_system       triclinic
_cell_length_a                    6.951779
_cell_length_b                    16.733006
_cell_length_c                    17.111431
_cell_angle_alpha                 101.009115
_cell_angle_beta                  92.282545
_cell_angle_gamma                 90.030999
_cell_volume                      1952.22422203

loop_
_atom_site_label
_atom_site_type_symbol
_atom_site_description
_atom_site_fract_x
_atom_site_fract_y
_atom_site_fract_z
_atom_type_partial_charge
O1    O     O_R   0.506340 0.439070 0.579550 -0.593039
O2    O     O_R   0.170010 0.404890 0.412100 -0.559187
O3    O     O_R   0.005010 0.560930 0.420450 -0.568670
C1    C     C_R   0.337830 0.381961 0.383236 1.131349
O4    O     O_R   0.176280 0.429360 0.578400 -0.552127
O5    O     O_R   0.011320 0.585570 0.587940 -0.570365
C2    C     C_R   0.349275 0.414364 0.605759 1.100597
O6    O     O_R   0.500030 0.414430 0.412060 -0.616825
O7    O     O_3   0.340950 0.551220 0.502940 -0.247973
V1    V     V_3+5 0.064020 0.490500 0.499460 1.374377
O8    O     O_R   0.681910 0.595110 0.587900 -0.572563
C3    C     C_R   0.854508 0.618342 0.615910 1.166370
O9    O     O_R   0.675640 0.570640 0.421600 -0.596846
C4    C     C_R   0.841481 0.586321 0.394838 1.002211
V2    V     V_3+5 0.564670 0.509500 0.500540 1.334256
O10   O     O_3   0.837610 0.448780 0.497060 -0.260528
C5    C     C_R   0.923385 0.862242 0.168201 -0.434976
C6    C     C_R   0.840366 0.638600 0.332982 -0.282646
C7    C     C_R   0.670089 0.681561 0.220880 -0.005012
C8    C     C_R   0.687088 0.630250 0.276205 -0.056305
C9    C     C_R   0.984518 0.697926 0.330692 0.339970
C10   C     C_R   0.962905 0.752780 0.276712 -0.058171
C11   C     C_R   0.802951 0.745437 0.221839 -0.008587
C12   C     C_R   0.780231 0.801111 0.168557 0.320321
C13   C     C_R   0.073142 0.872984 0.228224 0.382425
C14   C     C_R   0.092705 0.817720 0.280008 -0.125576
H1    H     H_    0.550625 0.670588 0.177699 0.187859
H2    H     H_    0.207534 0.828149 0.325393 0.219159
H3    H     H_    0.578725 0.583298 0.274531 0.175360
C15   C     C_3   0.793800 0.813564 0.732117 0.258616
C16   C     C_3   0.968826 0.772614 0.689550 0.126520
C17   C     C_3   0.876422 0.687489 0.686089 -0.595235
C18   C     C_3   0.702690 0.728917 0.730106 0.419073
C19   C     C_3   0.802812 0.725499 0.811753 0.162885
C20   C     C_3   0.977109 0.684621 0.768255 0.175366
C21   C     C_3   0.067086 0.769282 0.771298 0.233331
C22   C     C_3   0.892847 0.811123 0.814769 -0.619061
C23   C     C_3   0.551626 0.281693 0.278439 0.373492
C24   C     C_3   0.483914 0.192621 0.270884 0.430338
C25   C     C_3   0.411091 0.190813 0.183822 -0.519543
C26   C     C_3   0.477322 0.280554 0.192151 0.098929
C27   C     C_3   0.281331 0.311657 0.224461 0.215125
C28   C     C_3   0.213017 0.222738 0.216600 0.403029
C29   C     C_3   0.287127 0.223414 0.302895 0.099382
C30   C     C_3   0.353350 0.313258 0.311785 -0.604799
C31   C     C_R   0.388738 0.132479 0.828755 -0.309245
C32   C     C_R   0.376639 0.361707 0.667407 -0.432507
C33   C     C_R   0.576911 0.320273 0.773477 -0.141214
C34   C     C_R   0.536950 0.375252 0.722940 0.400507
C35   C     C_R   0.257422 0.292496 0.665704 0.319881
C36   C     C_R   0.300673 0.236199 0.717312 -0.151085
C37   C     C_R   0.461765 0.251731 0.771822 0.087605
C38   C     C_R   0.506033 0.199620 0.825771 -0.090113
C39   C     C_R   0.230956 0.115071 0.773088 0.259543
C40   C     C_R   0.189890 0.164639 0.716710 0.244622
H4    H     H_    0.627183 0.213566 0.868164 0.171462
H5    H     H_    0.698667 0.332107 0.815790 0.178778
O11   O     O_R   0.266070 0.085680 0.087850 -0.594663
O12   O     O_R   0.590090 0.070660 0.921580 -0.560819
O13   O     O_R   0.754780 0.914400 0.912080 -0.565020
C41   C     C_R   0.417181 0.084528 0.893546 1.047947
O14   O     O_R   0.596110 0.095130 0.087880 -0.576663
O15   O     O_R   0.760850 0.939050 0.079570 -0.575311
C42   C     C_R   0.427797 0.119482 0.115217 1.149830
O16   O     O_R   0.260010 0.061030 0.920360 -0.597063
O17   O     O_3   0.425070 0.948840 0.997010 -0.240266
V3    V     V_3+5 0.702100 0.009490 0.000550 1.373966
O18   O     O_R   0.090200 0.929250 0.078500 -0.577685
C43   C     C_R   0.923742 0.913360 0.105071 1.075488
O19   O     O_R   0.084180 0.904770 0.912200 -0.567947
C44   C     C_R   0.912018 0.881047 0.884555 1.195687
V4    V     V_3+5 0.201420 0.990350 0.999580 1.371435
O20   O     O_3   0.928580 0.051150 0.002990 -0.268033
N1    N     N_R   0.607750 0.797902 0.118567 0.247292
O21   O     O_R   0.439956 0.802010 0.149903 -0.387066
O22   O     O_R   0.616027 0.790644 0.041903 -0.309315
N2    N     N_R   0.726452 0.696271 0.879168 0.305166
O23   O     O_R   0.576811 0.648269 0.868808 -0.228793
O24   O     O_R   0.836730 0.699811 0.942927 -0.301305
N3    N     N_R   0.081015 0.614076 0.786252 0.297574
O25   O     O_R   0.045560 0.584964 0.849414 -0.222000
O26   O     O_R   0.199595 0.575830 0.735639 -0.354465
N4    N     N_R   0.261791 0.794270 0.798842 0.283998
O27   O     O_R   0.332827 0.858910 0.778846 -0.294679
O28   O     O_R   0.331835 0.771829 0.862721 -0.305408
O29   O     O_3   0.593447 0.131327 0.295768 -0.621629
H6    H     H_    0.626193 0.151801 0.352989 0.388939
O30   O     O_3   0.734009 0.309785 0.309081 -0.624880
H7    H     H_    0.746689 0.365272 0.297415 0.350241
N5    N     N_R   0.581890 0.315277 0.134301 0.294127
O31   O     O_R   0.627077 0.392263 0.149148 -0.321548
O32   O     O_R   0.627377 0.270106 0.067114 -0.349892
N6    N     N_R   0.167985 0.373897 0.195300 0.288689
O33   O     O_R   0.113173 0.363208 0.120463 -0.262899
O34   O     O_R   0.121458 0.440273 0.243512 -0.393587
O35   O     O_3   0.030232 0.196824 0.184268 -0.630623
H8    H     H_    0.000045 0.147292 0.205194 0.373238
N7    N     N_R   0.179334 0.189327 0.360126 0.288537
O36   O     O_R   0.252395 0.131606 0.392928 -0.241343
O37   O     O_R   0.004149 0.212891 0.374678 -0.262272
N8    N     N_R   0.199880 0.942897 0.240924 0.264962
O38   O     O_R   0.372272 0.939036 0.272523 -0.297462
O39   O     O_R   0.132396 0.013942 0.234669 -0.403002
N9    N     N_R   0.108952 0.046273 0.773065 0.251629
O40   O     O_R   0.955993 0.055723 0.815090 -0.348962
O41   O     O_R   0.124481 0.981634 0.717999 -0.266790
N10   N     N_R   0.036953 0.139579 0.658507 0.278133
O42   O     O_R   0.077824 0.101265 0.587628 -0.216266
O43   O     O_R   0.859686 0.140481 0.680439 -0.294499
N11   N     N_R   0.659800 0.445647 0.730434 0.254595
O44   O     O_R   0.585234 0.517006 0.732116 -0.377451
O45   O     O_R   0.842282 0.440868 0.748894 -0.322562
N12   N     N_R   0.097181 0.278770 0.609576 0.256922
O46   O     O_R   0.924619 0.298505 0.632547 -0.336691
O47   O     O_R   0.127100 0.257331 0.534026 -0.311568
N13   N     N_R   0.148889 0.704431 0.384691 0.237681
O48   O     O_R   0.126302 0.719353 0.460945 -0.321199
O49   O     O_R   0.321239 0.694490 0.357814 -0.393443
N14   N     N_R   0.068381 0.798803 0.625494 0.299434
O50   O     O_R   0.990991 0.851608 0.587316 -0.231130
O51   O     O_R   0.243211 0.774663 0.611053 -0.212908
N15   N     N_R   0.688860 0.880653 0.707518 0.314434
O52   O     O_R   0.606758 0.870748 0.636682 -0.207009
O53   O     O_R   0.666417 0.948758 0.757188 -0.297706
O54   O     O_3   0.512551 0.709254 0.705456 -0.625641
H9    H     H_    0.490308 0.654861 0.717600 0.388976

loop_
_geom_bond_atom_site_label_1
_geom_bond_atom_site_label_2
_geom_bond_distance
_ccdc_geom_bond_type
C5    C43   1.500550 S    
N6    O33   1.300237 A    
C19   C22   1.554149 S    
C26   C27   1.543946 S    
C4    C6    1.496197 S    
O2    C1    1.313854 A    
C7    C8    1.396066 A    
C1    O6    1.289404 A    
C13   N8    1.441727 S    
N9    O41   1.299363 A    
C33   H5    1.084488 S    
C32   C34   1.424589 A    
N2    O23   1.299532 A    
C29   C30   1.549672 S    
N8    O38   1.301765 A    
N1    O22   1.297739 A    
O14   V3    2.024961 S    
C39   N9    1.429459 S    
C21   C22   1.544163 S    
C16   C21   1.542765 S    
C19   N2    1.454530 S    
O5    C3    1.288450 A    
C23   C24   1.542894 S    
C21   N4    1.449960 S    
V2    O10   2.150357 S    
C6    C9    1.417085 A    
C20   N3    1.460158 S    
N13   O48   1.296714 A    
C19   C20   1.538934 S    
N11   O44   1.297696 A    
C23   C30   1.566144 S    
O14   C42   1.313485 A    
O12   V3    1.981234 S    
O8    V2    2.008673 S    
C25   C28   1.563293 S    
O17   V4    1.701949 S    
O15   C43   1.300126 A    
O13   V3    2.020496 S    
O18   C43   1.305461 A    
N10   O42   1.301300 A    
O19   C44   1.302468 A    
V3    O20   1.717266 S    
C7    H1    1.080976 S    
O7    V1    2.169730 S    
C36   C40   1.421505 A    
C8    H3    1.083790 S    
N14   O51   1.299118 A    
O17   V3    2.169705 S    
N8    O39   1.299995 A    
O9    C4    1.302045 A    
C3    C17   1.502857 S    
N10   O43   1.301681 A    
C29   N7    1.455068 S    
C9    N13   1.431319 S    
N9    O40   1.300171 A    
C28   O35   1.400189 S    
C32   C35   1.418827 A    
C1    C30   1.517203 S    
N2    O24   1.300064 A    
O11   C42   1.288196 A    
O15   V3    1.987360 S    
O12   C41   1.313664 A    
C5    C12   1.427765 A    
N1    O21   1.299504 A    
C31   C41   1.494806 S    
C36   C37   1.419704 A    
C17   C20   1.554489 S    
C15   N15   1.458253 S    
C23   C26   1.541345 S    
N3    O26   1.298048 A    
C24   C25   1.548964 S    
O4    C2    1.314829 A    
O29   H6    0.990938 S    
V4    O20   2.150402 S    
O13   C44   1.292061 A    
C35   C36   1.433360 A    
C13   C14   1.400818 A    
C15   C22   1.555803 S    
C40   N10   1.433101 S    
C20   C21   1.539192 S    
C2    C32   1.504850 S    
C7    C11   1.409537 A    
C28   C29   1.542402 S    
N5    O32   1.300144 A    
N4    O27   1.298102 A    
O18   V4    2.019005 S    
O35   H8    0.989113 S    
C31   C39   1.416251 A    
C18   O54   1.391207 S    
C18   C19   1.546846 S    
C16   N14   1.454644 S    
O3    C4    1.302647 A    
O1    V2    2.008188 S    
C27   N6    1.456907 S    
C33   C34   1.398665 A    
N4    O28   1.299024 A    
O6    V2    2.012462 S    
N7    O37   1.299152 A    
C22   C44   1.505404 S    
O54   H9    0.984939 S    
C27   C28   1.541147 S    
N15   O53   1.298544 A    
O2    V1    2.024994 S    
C37   C38   1.411516 A    
N12   O46   1.300398 A    
C38   H4    1.084636 S    
C39   C40   1.408558 A    
C25   C26   1.549022 S    
C15   C18   1.545055 S    
O1    C2    1.293659 A    
C16   C17   1.552047 S    
N3    O25   1.299353 A    
O5    V1    2.020411 S    
N14   O50   1.299960 A    
C12   N1    1.439797 S    
C24   C29   1.545852 S    
O16   V4    2.014445 S    
C14   H2    1.081432 S    
C25   C42   1.513972 S    
C35   N12   1.430502 S    
C5    C13   1.419571 A    
C17   C18   1.542874 S    
O9    V2    2.018987 S    
O7    V2    1.703864 S    
O4    V1    1.981152 S    
O3    V1    1.987430 S    
V1    O10   1.717286 S    
O11   V4    2.013168 S    
N5    O31   1.300352 A    
C15   C16   1.536685 S    
C31   C38   1.397824 A    
N13   O49   1.299850 A    
C26   N5    1.456858 S    
C6    C8    1.401556 A    
N11   O45   1.301263 A    
C11   C12   1.427290 A    
C41   O16   1.291249 A    
C33   C37   1.393466 A    
O30   H7    0.990841 S    
N6    O34   1.300174 A    
N7    O36   1.300283 A    
C10   C14   1.403442 A    
C23   O30   1.398454 S    
C10   C11   1.416282 A    
O19   V4    2.008592 S    
C24   O29   1.398153 S    
N15   O52   1.300195 A    
C9    C10   1.425178 A    
C27   C30   1.552173 S    
O8    C3    1.305006 A    
C34   N11   1.437294 S    
N12   O47   1.299077 A    
