data_mof_unit_67822.cif
_audit_creation_date              2012-12-10T16:54:54-0500
_audit_creation_method            fapswitch 2.2
_symmetry_space_group_name_H-M    P1
_symmetry_Int_Tables_number       1
_space_group_crystal_system       triclinic
_cell_length_a                    8.263763
_cell_length_b                    9.003172
_cell_length_c                    15.96209
_cell_angle_alpha                 93.19903
_cell_angle_beta                  87.861742
_cell_angle_gamma                 94.497497
_cell_volume                      1181.43175462

loop_
_atom_site_label
_atom_site_type_symbol
_atom_type_description
_atom_site_fract_x
_atom_site_fract_y
_atom_site_fract_z
_atom_type_partial_charge
C1    C     C_R   0.544796 0.792505 0.497327 0.775143
C2    C     C_3   0.378520 0.619831 0.060628 0.507258
C3    C     C_3   0.519799 0.528887 0.091401 -0.031977
C4    C     C_3   0.508276 0.363517 0.050141 -0.075491
C5    C     C_3   0.527879 0.352986 0.950613 0.577325
C6    C     C_1   0.494907 0.517035 0.180708 0.042567
C7    C     C_1   0.540984 0.530179 0.828685 0.033553
C8    C     C_1   0.524910 0.521950 0.752478 -0.237501
C9    C     C_2   0.567579 0.957469 0.494319 0.260721
C10   C     C_2   0.436772 0.044605 0.501427 -0.080121
C11   C     C_R   0.506093 0.506503 0.661330 0.838651
C12   C     C_R   0.456212 0.208140 0.500398 0.874150
C13   C     C_R   0.495610 0.499235 0.341064 0.869013
C14   C     C_3   0.419088 0.632711 0.965270 0.212347
C15   C     C_3   0.715562 0.586092 0.965152 -0.174905
C16   C     C_3   0.694833 0.612129 0.067041 0.359260
C17   C     C_1   0.487020 0.506544 0.254432 -0.235340
C18   C     C_3   0.548623 0.524397 0.923003 -0.153592
H1    H     H_    0.003690 0.373939 0.442868 0.166871
H2    H     H_    0.496100 0.736541 0.967375 0.232330
H3    H     H_    0.798145 0.495126 0.957817 0.175466
H4    H     H_    0.389219 0.313454 0.066705 0.190871
N1    N     N_2   0.950340 0.457950 0.477370 -0.184777
N2    N     N_2   0.049660 0.542050 0.522630 -0.024081
O1    O     O_R   0.389240 0.738570 0.505550 -0.575800
O2    O     O_R   0.678400 0.711630 0.491050 -0.621259
O3    O     O_R   0.355360 0.513470 0.630110 -0.603588
O4    O     O_R   0.644510 0.486530 0.615610 -0.645738
O5    O     O_R   0.321600 0.288370 0.508950 -0.640633
O6    O     O_R   0.610760 0.261430 0.494450 -0.581818
O7    O     O_R   0.355490 0.513470 0.384390 -0.621989
O8    O     O_R   0.644640 0.486530 0.369890 -0.609232
Zn1   Zn    Zn3+2 0.306930 0.517990 0.509680 0.949792
Zn2   Zn    Zn3+2 0.693070 0.482010 0.490320 0.931740
O9    O     O_3   0.393676 0.772971 0.094034 -0.641750
C19   C     C_3   0.324418 0.813874 0.174010 0.107538
H5    H     H_    0.416193 0.886867 0.208379 0.170692
H6    H     H_    0.292926 0.723021 0.216725 0.115310
C20   C     C_3   0.182975 0.909139 0.162772 -0.348641
H7    H     H_    0.223638 0.002622 0.122611 0.232764
H8    H     H_    0.085571 0.841090 0.129658 0.223431
C21   C     C_3   0.119936 0.974277 0.247146 -0.987630
H9    H     H_    0.077243 0.883474 0.288875 0.274545
H10   H     H_    0.017403 0.043187 0.236995 0.272722
H11   H     H_    0.217371 0.046649 0.278486 0.263053
O10   O     O_3   0.302634 0.695119 0.918562 -0.640034
C22   C     C_3   0.188420 0.589553 0.886019 0.146845
H12   H     H_    0.076849 0.590435 0.925774 0.174389
H13   H     H_    0.230892 0.477961 0.882787 0.139769
C23   C     C_3   0.156311 0.628091 0.797829 -0.320727
H14   H     H_    0.081068 0.724609 0.798995 0.194620
H15   H     H_    0.270324 0.664325 0.764008 0.252679
C24   C     C_3   0.075746 0.490611 0.753520 -1.014002
H16   H     H_    0.128138 0.387201 0.770618 0.258295
H17   H     H_    0.094419 0.494675 0.685445 0.327283
H18   H     H_    0.945185 0.483383 0.770146 0.236395
N3    N     N_2   0.211651 0.553177 0.079049 -0.304527
H19   H     H_    0.173972 0.568684 0.140152 0.232326
C25   C     C_3   0.137850 0.409471 0.048156 -0.984629
H20   H     H_    0.015254 0.415187 0.025951 0.268568
H21   H     H_    0.132285 0.326192 0.097309 0.254134
H22   H     H_    0.195770 0.369685 0.992454 0.263347
N4    N     N_2   0.618416 0.271135 0.089136 -0.254794
H23   H     H_    0.739319 0.269712 0.070963 0.294478
C26   C     C_3   0.552750 0.163800 0.147853 -0.845540
H24   H     H_    0.636592 0.162078 0.200191 0.232659
H25   H     H_    0.536612 0.053428 0.113998 0.290980
H26   H     H_    0.434546 0.193643 0.176768 0.242975
O11   O     O_3   0.724191 0.021929 0.480692 -0.623047
C27   C     C_3   0.812833 0.021064 0.554822 0.081157
H27   H     H_    0.905704 0.943138 0.542537 0.163909
H28   H     H_    0.739671 0.986318 0.611061 0.114503
C28   C     C_3   0.906458 0.170688 0.574336 -0.264005
H29   H     H_    0.005838 0.186677 0.526826 0.209542
H30   H     H_    0.829940 0.264068 0.572419 0.276667
C29   C     C_3   0.975337 0.181990 0.661393 -1.053571
H31   H     H_    0.099788 0.235812 0.657381 0.296303
H32   H     H_    0.974232 0.074061 0.691328 0.257796
H33   H     H_    0.901615 0.253188 0.702682 0.274294
N5    N     N_2   0.278438 0.981589 0.520150 -0.283461
H34   H     H_    0.187682 0.028215 0.490750 0.233661
C30   C     C_3   0.249651 0.965545 0.608836 -0.755469
H35   H     H_    0.123561 0.929158 0.619378 0.251420
H36   H     H_    0.274729 0.072981 0.643883 0.231435
H37   H     H_    0.324239 0.881406 0.633253 0.246076
N6    N     N_2   0.000762 0.680853 0.544981 -0.188766
H38   H     H_    0.960208 0.733337 0.495234 0.248349
C31   C     C_3   0.914851 0.693058 0.625700 -0.686442
H39   H     H_    0.800907 0.747727 0.622657 0.213972
H40   H     H_    0.989990 0.755473 0.672843 0.193489
H41   H     H_    0.885172 0.583918 0.650228 0.270960
N7    N     N_2   0.807728 0.703894 0.919809 -0.311504
H42   H     H_    0.857706 0.657434 0.865794 0.243042
C32   C     C_3   0.744196 0.841260 0.898093 -0.823940
H43   H     H_    0.653842 0.817600 0.848527 0.245558
H44   H     H_    0.846961 0.914534 0.873175 0.236307
H45   H     H_    0.690481 0.904996 0.951884 0.261970
N8    N     N_2   0.705921 0.773192 0.091336 -0.262348
H46   H     H_    0.797584 0.830680 0.058518 0.253265
C33   C     C_3   0.727692 0.821667 0.178839 -0.781759
H47   H     H_    0.721374 0.942489 0.187044 0.232367
H48   H     H_    0.850349 0.803501 0.198272 0.240499
H49   H     H_    0.637204 0.767961 0.221784 0.249413
N9    N     N_2   0.832599 0.549383 0.104542 -0.319839
H50   H     H_    0.934571 0.616892 0.090382 0.250847
C34   C     C_3   0.841763 0.498236 0.189751 -0.736081
H51   H     H_    0.761363 0.398897 0.201338 0.272551
H52   H     H_    0.819615 0.584375 0.239494 0.254758
H53   H     H_    0.963354 0.461374 0.199941 0.218370
N10   N     N_2   0.387740 0.267015 0.913944 -0.349456
H54   H     H_    0.361408 0.284358 0.853407 0.216008
C35   C     C_3   0.337505 0.118257 0.941703 -0.750766
H55   H     H_    0.292149 0.045093 0.887877 0.246452
H56   H     H_    0.236323 0.123114 0.988947 0.229545
H57   H     H_    0.438928 0.066395 0.969594 0.287668
O12   O     O_3   0.666873 0.268434 0.931686 -0.653531
C36   C     C_3   0.725388 0.251129 0.847526 0.120818
H58   H     H_    0.855453 0.230175 0.851992 0.128332
H59   H     H_    0.732974 0.351862 0.813042 0.137018
C37   C     C_3   0.645015 0.115566 0.797887 -0.357318
H60   H     H_    0.740505 0.042800 0.774290 0.183116
H61   H     H_    0.561305 0.047171 0.837550 0.261681
C38   C     C_3   0.557295 0.154470 0.721034 -0.931740
H62   H     H_    0.443983 0.207519 0.736344 0.250754
H63   H     H_    0.526061 0.049334 0.684735 0.239980
H64   H     H_    0.634741 0.228311 0.680991 0.282450

loop_
_geom_bond_atom_site_label_1
_geom_bond_atom_site_label_2
_ccdc_geom_bond_type
C2    O9    S    
C15   C18   S    
N4    C26   S    
C12   O5    A    
C28   H29   S    
C14   C18   S    
C13   O8    A    
O9    C19   S    
C29   H33   S    
C3    C6    S    
C35   H56   S    
C2    N3    S    
C38   H62   S    
C14   O10   S    
C24   H16   S    
O3    Zn1   S    
C4    N4    S    
C19   H5    S    
C9    O11   S    
C36   H59   S    
N6    C31   S    
N3    C25   S    
C34   H51   S    
C15   C16   S    
O5    Zn1   S    
O12   C36   S    
N10   H54   S    
N9    H50   S    
C15   N7    S    
C16   N9    S    
C37   H61   S    
C26   H25   S    
C23   H15   S    
N1    N2    D    
O7    Zn1   S    
C27   H27   S    
C22   C23   S    
C9    C10   D    
C37   C38   S    
N1    Zn2   S    
O4    Zn2   S    
C25   H20   S    
C1    O1    A    
C28   H30   S    
C32   H43   S    
C21   H10   S    
C33   H48   S    
C35   H55   S    
O2    Zn2   S    
C20   C21   S    
C24   H17   S    
C25   H21   S    
C23   C24   S    
O6    Zn2   S    
C14   H2    S    
C7    C8    T    
C26   H26   S    
C1    C9    S    
C29   H31   S    
N5    C30   S    
C36   C37   S    
C20   H7    S    
C10   N5    S    
N6    H38   S    
N5    H34   S    
C38   H64   S    
C5    C18   S    
C32   H45   S    
C33   H49   S    
C21   H11   S    
O8    Zn2   S    
H1    N1    S    
C4    H4    S    
C22   H12   S    
C31   H41   S    
C11   O3    A    
C7    C18   S    
C27   C28   S    
N7    C32   S    
C23   H14   S    
C32   H44   S    
C10   C12   S    
C31   H40   S    
N8    H46   S    
N8    C33   S    
C5    O12   S    
C1    O2    A    
C28   C29   S    
C21   H9    S    
C3    C4    S    
C37   H60   S    
C24   H18   S    
C6    C17   T    
O10   C22   S    
C25   H22   S    
C12   O6    A    
C13   O7    A    
C19   C20   S    
C29   H32   S    
C4    C5    S    
C27   H28   S    
N9    C34   S    
C22   H13   S    
C30   H37   S    
C30   H36   S    
N2    Zn1   S    
C13   C17   S    
C19   H6    S    
C2    C3    S    
C36   H58   S    
C16   N8    S    
N3    H19   S    
C34   H52   S    
C11   O4    A    
C8    C11   S    
N7    H42   S    
C26   H24   S    
O11   C27   S    
C2    C14   S    
N10   C35   S    
C38   H63   S    
N4    H23   S    
C15   H3    S    
C31   H39   S    
C20   H8    S    
C30   H35   S    
C5    N10   S    
C33   H47   S    
N2    N6    S    
C35   H57   S    
C3    C16   S    
O1    Zn1   S    
C34   H53   S    
