data_mof_unit_59783.cif
_audit_creation_date              2013-03-05T15:45:09-0500
_audit_creation_method            fapswitch 2.2
_symmetry_space_group_name_H-M    P1
_symmetry_Int_Tables_number       1
_space_group_crystal_system       triclinic
_cell_length_a                    10.761823
_cell_length_b                    11.043155
_cell_length_c                    9.866724
_cell_angle_alpha                 111.376121
_cell_angle_beta                  97.727086
_cell_angle_gamma                 91.766263
_cell_volume                      1077.96772603

loop_
_atom_site_label
_atom_site_type_symbol
_atom_site_description
_atom_site_fract_x
_atom_site_fract_y
_atom_site_fract_z
_atom_type_partial_charge
O1    O     O_R   0.511700 0.332330 0.577400 -0.602617
O2    O     O_R   0.474680 0.295500 0.332650 -0.514322
C1    C     C_R   0.489937 0.253822 0.439972 0.805629
O3    O     O_R   0.338160 0.518420 0.622400 -0.576683
O4    O     O_R   0.301140 0.481590 0.377650 -0.552408
C2    C     C_R   0.262878 0.500997 0.501768 0.853706
Cu1   Cu    Cu3+1 0.521920 0.521810 0.644910 1.009615
Cu2   Cu    Cu3+1 0.478080 0.478190 0.355090 1.085782
O5    O     O_R   0.525320 0.704500 0.667350 -0.567704
O6    O     O_R   0.488300 0.667670 0.422600 -0.553394
O7    O     O_R   0.698860 0.518410 0.622350 -0.581540
O8    O     O_R   0.661840 0.481580 0.377600 -0.528631
C3    C     C_R   0.508930 0.745921 0.559778 0.819742
C4    C     C_R   0.737164 0.503490 0.499290 0.799050
C5    C     C_R   0.158741 0.738983 0.667853 -0.218387
H1    H     H_    0.259319 0.740923 0.669462 0.172397
C6    C     C_R   0.108391 0.855284 0.746182 0.390471
C7    C     C_R   0.977975 0.855244 0.743367 -0.165540
H2    H     H_    0.936300 0.943494 0.802118 0.197081
C8    C     C_R   0.899262 0.742020 0.663027 -0.187079
C9    C     C_R   0.949091 0.624728 0.583883 0.108299
C10   C     C_R   0.080328 0.622577 0.586893 -0.010718
C11   C     C_R   0.129295 0.504723 0.505486 -0.186328
C12   C     C_R   0.048896 0.392004 0.418209 0.317219
C13   C     C_R   0.919956 0.397101 0.413829 -0.212141
C14   C     C_R   0.870743 0.510193 0.498066 -0.100232
H3    H     H_    0.527049 0.134920 0.626930 0.175708
C15   C     C_2   0.481296 0.113062 0.403617 0.197125
C16   C     C_2   0.500698 0.067917 0.513180 -0.247000
C17   C     C_2   0.516594 0.885637 0.593463 -0.294781
C18   C     C_2   0.484007 0.929387 0.485700 -0.038707
N1    N     N_2   0.445130 0.445430 0.137370 -0.328394
C19   C     C_2   0.517239 0.503819 0.078739 0.406739
N2    N     N_2   0.554930 0.554500 0.862630 -0.257751
C20   C     C_2   0.489033 0.488983 0.918816 -0.104102
N3    N     N_R   0.096808 0.270723 0.337060 0.144426
O9    O     O_R   0.033109 0.191856 0.212588 -0.281950
O10   O     O_R   0.193636 0.230016 0.396782 -0.356754
N4    N     N_R   0.451271 0.026565 0.251547 0.128413
O11   O     O_R   0.357674 0.046666 0.166352 -0.226431
O12   O     O_R   0.528444 0.941098 0.193212 -0.309489
H4    H     H_    0.411571 0.420353 0.847781 0.157248
N5    N     N_R   0.629659 0.580919 0.165479 0.148384
O13   O     O_R   0.737526 0.533168 0.144059 -0.347761
O14   O     O_R   0.627379 0.706533 0.228601 -0.327833
H5    H     H_    0.628643 0.618966 0.930477 0.266767
H6    H     H_    0.365553 0.390587 0.070197 0.207474
N6    N     N_R   0.189322 0.973190 0.826916 0.153325
O15   O     O_R   0.310313 0.974488 0.827079 -0.335409
O16   O     O_R   0.142681 0.080773 0.900174 -0.290912
H7    H     H_    0.798990 0.748086 0.661631 0.155078
H8    H     H_    0.857484 0.310237 0.349480 0.184307
H9    H     H_    0.445223 0.861654 0.375721 0.231745
H10   H     H_    0.551804 0.952464 0.705269 0.189268

loop_
_geom_bond_atom_site_label_1
_geom_bond_atom_site_label_2
_geom_bond_distance
_ccdc_geom_bond_type
O4    Cu2   1.946591 S    
C9    C14   1.410399 A    
C5    C6    1.404400 A    
N2    H5    1.029184 S    
H3    C16   1.087963 S    
C17   H10   1.087222 S    
C6    N6    1.440808 S    
C17   C18   1.331012 D    
Cu2   O8    1.957772 S    
N1    C19   1.309365 D    
C8    C9    1.411801 A    
N6    O16   1.301610 A    
C6    C7    1.400029 A    
C13   H8    1.084782 S    
Cu1   Cu2   2.692741 S    
C16   C18   1.453860 S    
C9    C10   1.409782 A    
C18   H9    1.085580 S    
Cu1   O7    1.946591 S    
N5    O14   1.299674 A    
C15   C16   1.341394 D    
C12   N3    1.439653 S    
C4    C14   1.439078 S    
O3    Cu1   1.957772 S    
C2    C11   1.444459 S    
Cu2   O6    1.945311 S    
N3    O9    1.301478 A    
C19   C20   1.512769 S    
O8    C4    1.292937 A    
C7    H2    1.082573 S    
C8    H7    1.081795 S    
C7    C8    1.393174 A    
N5    O13   1.301066 A    
O4    C2    1.290326 A    
O7    C4    1.290078 A    
O3    C2    1.293910 A    
C1    C15   1.459189 S    
C11   C12   1.411201 A    
N3    O10   1.300776 A    
Cu2   N1    2.022878 S    
C3    C17   1.452162 S    
N1    H6    1.030663 S    
C12   C13   1.386012 A    
N4    O12   1.301043 A    
N2    C20   1.303918 D    
Cu1   N2    2.023061 S    
N4    O11   1.300996 A    
Cu1   O5    1.946332 S    
C20   H4    1.085033 S    
O5    C3    1.294381 A    
C10   C11   1.418011 A    
N6    O15   1.301503 A    
O2    C1    1.293556 A    
C15   N4    1.440120 S    
C13   C14   1.390504 A    
O1    Cu1   1.945311 S    
C5    C10   1.416332 A    
O2    Cu2   1.946332 S    
C5    H1    1.079822 S    
O1    C1    1.300097 A    
O6    C3    1.297206 A    
C19   N5    1.431076 S    
