data_mof_unit_23227.cif
_audit_creation_date              2012-12-11T15:28:46-0500
_audit_creation_method            fapswitch 2.2
_symmetry_space_group_name_H-M    P1
_symmetry_Int_Tables_number       1
_space_group_crystal_system       triclinic
_cell_length_a                    6.957833
_cell_length_b                    19.569856
_cell_length_c                    23.399507
_cell_angle_alpha                 96.054761
_cell_angle_beta                  90.943464
_cell_angle_gamma                 88.916455
_cell_volume                      3167.4895254

loop_
_atom_site_label
_atom_site_type_symbol
_atom_type_description
_atom_site_fract_x
_atom_site_fract_y
_atom_site_fract_z
_atom_type_partial_charge
O1    O     O_R   0.617180 0.809390 0.808140 -0.523199
O2    O     O_R   0.382820 0.190610 0.191860 -0.523131
O3    O     O_R   0.293300 0.672410 0.795490 -0.526576
O4    O     O_R   0.706700 0.327590 0.204510 -0.534312
O5    O     O_R   0.117220 0.690610 0.691850 -0.523291
O6    O     O_R   0.882780 0.309390 0.308150 -0.523552
C1    C     C_R   0.464594 0.647540 0.805023 0.757761
C2    C     C_R   0.535723 0.352101 0.194700 0.763150
O7    O     O_R   0.287840 0.807750 0.814460 -0.521494
O8    O     O_R   0.712160 0.192250 0.185540 -0.521843
O9    O     O_R   0.111720 0.826910 0.710960 -0.532268
O10   O     O_R   0.888280 0.173090 0.289040 -0.533139
C3    C     C_R   0.456512 0.830712 0.833213 0.731891
C4    C     C_R   0.543540 0.169190 0.166854 0.738711
O11   O     O_R   0.622680 0.673080 0.789040 -0.540652
O12   O     O_R   0.377320 0.326920 0.210960 -0.540227
O13   O     O_3   0.448820 0.756130 0.716020 -0.363927
O14   O     O_3   0.551180 0.243870 0.283980 -0.363733
V1    V     V_3+5 0.176220 0.748860 0.756300 1.421838
V2    V     V_3+5 0.823780 0.251140 0.243700 1.422388
O15   O     O_R   0.781670 0.827580 0.704500 -0.536206
O16   O     O_R   0.218330 0.172420 0.295500 -0.535536
C5    C     C_R   0.948998 0.851734 0.693978 0.694218
C6    C     C_R   0.051381 0.148240 0.306025 0.693791
O17   O     O_R   0.787130 0.692240 0.685530 -0.527174
O18   O     O_R   0.212870 0.307760 0.314470 -0.527021
C7    C     C_R   0.956123 0.669278 0.666771 0.711302
C8    C     C_R   0.043873 0.330734 0.333223 0.714038
V3    V     V_3+5 0.675510 0.751130 0.743690 1.399017
V4    V     V_3+5 0.324490 0.248870 0.256310 1.407333
O19   O     O_3   0.952780 0.743870 0.783980 -0.359920
O20   O     O_3   0.047220 0.256130 0.216020 -0.360067
C9    C     C_1   0.966683 0.617265 0.614688 -0.215897
C10   C     C_1   0.033295 0.382774 0.385292 -0.214876
C11   C     C_1   0.978224 0.573757 0.571867 0.001399
C12   C     C_1   0.021734 0.426300 0.428103 0.000861
C13   C     C_1   0.993411 0.521917 0.521284 -0.001966
C14   C     C_1   0.006535 0.478150 0.478680 -0.001941
C15   C     C_R   0.956605 0.914039 0.663559 -0.066991
C16   C     C_R   0.050297 0.085644 0.336242 -0.068685
C17   C     C_R   0.977934 0.037487 0.668503 -0.142615
C18   C     C_R   0.100899 0.962875 0.332983 -0.141765
C19   C     C_R   0.955613 0.978250 0.695569 -0.158283
C20   C     C_R   0.089306 0.022265 0.305187 -0.156550
C21   C     C_R   0.979645 0.909591 0.603620 -0.212202
C22   C     C_R   0.024077 0.089094 0.396038 -0.207014
C23   C     C_R   0.013413 0.969152 0.574963 0.092293
C24   C     C_R   0.053078 0.029996 0.426381 0.088351
C25   C     C_R   0.007109 0.033551 0.608979 0.073316
C26   C     C_R   0.083585 0.966170 0.392925 0.071473
C27   C     C_R   0.048994 0.967789 0.514168 -0.111412
C28   C     C_R   0.051079 0.031484 0.488177 -0.110827
C29   C     C_R   0.064453 0.093784 0.525473 0.410799
C30   C     C_R   0.093363 0.905975 0.478567 0.410235
C31   C     C_R   0.035546 0.094005 0.584144 -0.266860
C32   C     C_R   0.103476 0.905892 0.419225 -0.258526
H1    H     H_    0.039426 0.142738 0.610902 0.138905
H2    H     H_    0.132598 0.857572 0.393413 0.135517
H3    H     H_    0.978935 0.138139 0.417208 0.158254
H4    H     H_    0.966074 0.859157 0.581092 0.160417
H5    H     H_    0.110041 0.018744 0.259169 0.103526
H6    H     H_    0.938922 0.982473 0.741772 0.102731
H7    H     H_    0.975656 0.086741 0.694485 0.110073
H8    H     H_    0.128160 0.914180 0.307570 0.110645
C33   C     C_R   0.487463 0.585056 0.834919 -0.129729
C34   C     C_R   0.519438 0.413621 0.163610 -0.122026
C35   C     C_R   0.637734 0.472753 0.835878 -0.179011
C36   C     C_R   0.468632 0.536484 0.167337 -0.159208
C37   C     C_R   0.593040 0.529940 0.807605 -0.248746
C38   C     C_R   0.498018 0.477769 0.195227 -0.250385
C39   C     C_R   0.425706 0.582600 0.891853 0.311649
C40   C     C_R   0.512217 0.408133 0.102989 0.322212
C41   C     C_R   0.496561 0.528838 0.924360 -0.028641
C42   C     C_R   0.504777 0.468989 0.073726 -0.022200
C43   C     C_R   0.592682 0.471905 0.893855 0.103086
C44   C     C_R   0.470218 0.532671 0.107179 0.100684
C45   C     C_R   0.481592 0.529819 0.985644 0.054486
C46   C     C_R   0.529005 0.469267 0.012942 0.057943
C47   C     C_R   0.617417 0.413484 0.979741 -0.163927
C48   C     C_R   0.441736 0.591070 0.021124 -0.166315
C49   C     C_R   0.650422 0.415266 0.921697 -0.214167
C50   C     C_R   0.439705 0.592529 0.080567 -0.202598
H9    H     H_    0.725599 0.372146 0.898519 0.123461
H10   H     H_    0.414793 0.641344 0.106069 0.123650
H11   H     H_    0.498554 0.482098 0.241781 0.126349
H12   H     H_    0.640295 0.531104 0.763817 0.131665
H13   H     H_    0.715537 0.430125 0.812937 0.124999
H14   H     H_    0.446191 0.585323 0.193002 0.123969
H15   H     H_    0.678063 0.369863 0.998551 0.183258
H16   H     H_    0.427218 0.640150 0.004466 0.184949
C51   C     C_1   0.467216 0.882737 0.885295 -0.211601
C52   C     C_1   0.533012 0.117002 0.114884 -0.221629
C53   C     C_1   0.478672 0.926232 0.928134 -0.000339
C54   C     C_1   0.521567 0.073490 0.072061 -0.003242
C55   C     C_1   0.493639 0.978023 0.978765 -0.003022
C56   C     C_1   0.506562 0.021724 0.021422 -0.000692
O21   O     O_3   0.109640 0.156094 0.506592 -0.583512
C57   C     C_3   0.308154 0.157541 0.494361 0.075884
H17   H     H_    0.325207 0.192592 0.460455 0.142827
H18   H     H_    0.369020 0.106656 0.476617 0.114394
C58   C     C_3   0.423124 0.185716 0.547769 -0.347152
H19   H     H_    0.359057 0.235634 0.565907 0.207948
H20   H     H_    0.417858 0.149005 0.580816 0.191669
C59   C     C_3   0.632466 0.196149 0.533047 -0.770702
H21   H     H_    0.696065 0.147194 0.512927 0.239904
H22   H     H_    0.715369 0.213104 0.572804 0.234284
H23   H     H_    0.642724 0.235946 0.502765 0.230072
O22   O     O_3   0.138831 0.844720 0.500476 -0.584997
C60   C     C_3   0.332577 0.845025 0.520116 0.078932
H24   H     H_    0.339258 0.818566 0.559872 0.141887
H25   H     H_    0.390356 0.897590 0.532151 0.113124
C61   C     C_3   0.460242 0.805154 0.475001 -0.336305
H26   H     H_    0.407491 0.751817 0.465714 0.205834
H27   H     H_    0.453860 0.830252 0.434590 0.192202
C62   C     C_3   0.668713 0.802874 0.495760 -0.781071
H28   H     H_    0.723470 0.855944 0.503776 0.238448
H29   H     H_    0.758133 0.773693 0.462348 0.245396
H30   H     H_    0.680780 0.777392 0.535940 0.222341
O23   O     O_3   0.499326 0.343127 0.073754 -0.575640
C63   C     C_3   0.304260 0.330468 0.059331 0.073498
H31   H     H_    0.244654 0.368760 0.031456 0.127969
H32   H     H_    0.216024 0.331793 0.098759 0.135011
C64   C     C_3   0.288034 0.259576 0.026370 -0.696253
H33   H     H_    0.341583 0.219855 0.053468 0.221591
H34   H     H_    0.135355 0.249298 0.014450 0.178764
H35   H     H_    0.374120 0.256724 0.986606 0.220706
O24   O     O_3   0.295874 0.632332 0.914133 -0.571913
C65   C     C_3   0.110008 0.604148 0.909894 0.101948
H36   H     H_    0.099520 0.560649 0.936740 0.125069
H37   H     H_    0.072134 0.585825 0.864426 0.128406
C66   C     C_3   0.963494 0.659180 0.931330 -0.671311
H38   H     H_    0.967703 0.702878 0.904722 0.226908
H39   H     H_    0.817011 0.637444 0.928382 0.175374
H40   H     H_    0.995691 0.678063 0.976850 0.213034

loop_
_geom_bond_atom_site_label_1
_geom_bond_atom_site_label_2
_ccdc_geom_bond_type
C21   H4    S    
C2    C34   S    
C58   H19   S    
O6    C8    A    
C22   H3    S    
O13   V3    S    
C55   C56   T    
O4    C2    A    
C66   H40   S    
V1    O19   S    
C65   H36   S    
C59   H22   S    
O21   C57   S    
C64   H33   S    
C23   C25   A    
C45   C46   A    
C28   C29   A    
C16   C22   A    
O9    V1    S    
C42   C44   A    
C11   C13   S    
O3    C1    A    
C60   H25   S    
C9    C11   T    
C33   C37   A    
C64   H34   S    
C1    C33   S    
O12   V4    S    
C62   H28   S    
O22   C60   S    
C2    O12   A    
C21   C23   A    
C17   C25   A    
O7    C3    A    
C61   H26   S    
O13   V1    S    
O5    C7    A    
O7    V1    S    
C34   C40   A    
O8    V2    S    
C62   H29   S    
O3    V1    S    
O14   V4    S    
C10   C12   T    
C63   C64   S    
C15   C21   A    
C24   C26   A    
C8    C10   S    
C53   C55   S    
C3    C51   S    
C17   C19   A    
C39   O24   S    
C18   C20   A    
C61   H27   S    
C59   H21   S    
C49   H9    S    
C63   H32   S    
O11   V3    S    
C30   C32   A    
C29   C31   A    
O17   V3    S    
C22   C24   A    
C27   C28   A    
C40   C42   A    
O8    C4    A    
C60   C61   S    
C44   C50   A    
C39   C41   A    
C46   C47   A    
C43   C49   A    
C64   H35   S    
C15   C19   A    
C1    O11   A    
C29   O21   S    
C25   C31   A    
O15   V3    S    
C26   C32   A    
C35   C37   A    
C13   C14   T    
C51   C53   T    
C24   C28   A    
C62   H30   S    
O10   V2    S    
O1    V3    S    
C36   C44   A    
C54   C56   S    
C4    C52   S    
C18   C26   A    
C36   C38   A    
O18   V4    S    
C58   C59   S    
C50   H10   S    
O15   C5    A    
C36   H14   S    
O16   C6    A    
O1    C3    A    
C41   C43   A    
C66   H38   S    
C65   C66   S    
C18   H8    S    
C63   H31   S    
C47   C49   A    
V2    O20   S    
C45   C48   A    
C41   C45   A    
O16   V4    S    
C35   H13   S    
C66   H39   S    
C65   H37   S    
C23   C27   A    
O23   C63   S    
O5    V1    S    
C20   H5    S    
O17   C7    A    
C57   C58   S    
O6    V2    S    
O10   C6    A    
O18   C8    A    
C30   O22   S    
O2    V4    S    
C27   C30   A    
C31   H1    S    
V3    O19   S    
C33   C39   A    
C60   H24   S    
C12   C14   S    
V4    O20   S    
C52   C54   T    
C34   C38   A    
C5    C15   S    
C40   O23   S    
O9    C5    A    
C6    C16   S    
C48   C50   A    
C32   H2    S    
O14   V2    S    
C61   C62   S    
C48   H16   S    
O2    C4    A    
C57   H18   S    
C47   H15   S    
O4    V2    S    
C16   C20   A    
C35   C43   A    
C58   H20   S    
C57   H17   S    
C42   C46   A    
C7    C9    S    
C17   H7    S    
C38   H11   S    
C59   H23   S    
C37   H12   S    
O24   C65   S    
C19   H6    S    
