data_mof_unit_61508.cif
_audit_creation_date              2012-12-10T18:16:18-0500
_audit_creation_method            fapswitch 2.2
_symmetry_space_group_name_H-M    P1
_symmetry_Int_Tables_number       1
_space_group_crystal_system       triclinic
_cell_length_a                    42.433676
_cell_length_b                    29.207539
_cell_length_c                    29.202088
_cell_angle_alpha                 89.999872
_cell_angle_beta                  133.913831
_cell_angle_gamma                 90.001101
_cell_volume                      26072.5439163

loop_
_atom_site_label
_atom_site_type_symbol
_atom_type_description
_atom_site_fract_x
_atom_site_fract_y
_atom_site_fract_z
_atom_type_partial_charge
C1    C     C_R   0.499981 0.586679 0.500001 0.907197
C2    C     C_1   0.834589 0.000041 0.333005 0.037557
C3    C     C_3   0.761830 0.962121 0.234724 -0.265020
C4    C     C_1   0.372592 0.500019 0.372494 -0.189456
C5    C     C_1   0.872592 0.000018 0.372494 -0.189456
C6    C     C_1   0.121094 0.500006 0.118427 -0.170586
C7    C     C_1   0.621094 0.000006 0.118427 -0.170586
C8    C     C_3   0.260123 0.499779 0.298289 0.336250
C9    C     C_3   0.760123 0.999779 0.298289 0.336250
C10   C     C_3   0.289141 0.500052 0.285159 0.037859
C11   C     C_3   0.789141 0.000052 0.285159 0.037859
C12   C     C_1   0.159010 0.500020 0.153659 0.071902
C13   C     C_1   0.659010 0.000020 0.153659 0.071902
C14   C     C_1   0.499967 0.637262 0.499962 -0.216732
C15   C     C_1   0.499968 0.362738 0.499962 -0.216693
C16   C     C_1   0.999967 0.137262 0.499962 -0.216732
C17   C     C_1   0.999968 0.862738 0.499962 -0.216693
C18   C     C_1   0.499958 0.679400 0.499947 0.008566
C19   C     C_1   0.499960 0.320599 0.499948 0.008585
C20   C     C_1   0.999958 0.179400 0.499947 0.008566
C21   C     C_R   0.499981 0.413321 0.500001 0.907183
C22   C     C_1   0.999960 0.820599 0.499948 0.008585
C23   C     C_1   0.499952 0.729136 0.499943 0.010957
C24   C     C_1   0.499954 0.270863 0.499945 0.010972
C25   C     C_1   0.999952 0.229137 0.499943 0.010957
C26   C     C_1   0.999954 0.770863 0.499945 0.010972
C27   C     C_1   0.499949 0.771274 0.499947 0.010460
C28   C     C_1   0.499952 0.228726 0.499949 0.010471
C29   C     C_1   0.999949 0.271274 0.499947 0.010460
C30   C     C_1   0.999952 0.728726 0.499949 0.010471
C31   C     C_1   0.499949 0.821010 0.499956 0.008189
C32   C     C_R   0.999981 0.086679 0.500001 0.907198
C33   C     C_1   0.499951 0.178990 0.499959 0.008196
C34   C     C_1   0.999949 0.321010 0.499956 0.008189
C35   C     C_1   0.999951 0.678990 0.499959 0.008196
C36   C     C_1   0.499951 0.863148 0.499967 -0.209941
C37   C     C_1   0.499953 0.136852 0.499970 -0.209936
C38   C     C_1   0.999951 0.363148 0.499967 -0.209941
C39   C     C_1   0.999953 0.636852 0.499970 -0.209936
C40   C     C_R   0.417126 0.499991 0.417226 0.943667
C41   C     C_R   0.917126 0.999991 0.417226 0.943667
C42   C     C_1   0.635844 0.500000 0.635621 -0.217757
C43   C     C_R   0.999981 0.913321 0.500001 0.907183
C44   C     C_1   0.135844 1.000000 0.635621 -0.217757
C45   C     C_1   0.677114 0.499999 0.676877 0.019538
C46   C     C_1   0.177114 0.999999 0.676877 0.019538
C47   C     C_1   0.726261 0.499999 0.726067 0.006259
C48   C     C_1   0.226261 0.999999 0.726067 0.006259
C49   C     C_1   0.767532 0.499999 0.767396 0.006236
C50   C     C_1   0.267532 0.999999 0.767396 0.006236
C51   C     C_1   0.816679 0.499999 0.816620 0.019438
C52   C     C_1   0.316679 0.999999 0.816620 0.019438
C53   C     C_1   0.857949 0.499999 0.857955 -0.217546
C54   C     C_3   0.204490 0.500039 0.197965 0.069135
C55   C     C_1   0.357949 0.999999 0.857955 -0.217546
C56   C     C_R   0.994865 0.500000 0.081683 0.908782
C57   C     C_R   0.494865 1.000000 0.081683 0.908782
C58   C     C_R   0.076699 0.500001 0.077471 0.944111
C59   C     C_R   0.576699 0.000001 0.077471 0.944111
C60   C     C_R   0.992983 0.500000 0.906351 0.906262
C61   C     C_R   0.492983 0.000000 0.906351 0.906262
C62   C     C_R   0.907985 0.499999 0.908062 0.887519
C63   C     C_R   0.407985 1.000000 0.908062 0.887519
C64   C     C_R   0.585810 0.500000 0.585749 0.888812
C65   C     C_3   0.704490 0.000039 0.197965 0.069135
C66   C     C_R   0.085810 1.000000 0.585749 0.888812
C67   C     C_R   0.499022 0.000000 0.412835 0.896824
C68   C     C_R   0.999022 0.500000 0.412835 0.896824
C69   C     C_R   0.499957 0.913731 0.499983 0.896527
C70   C     C_R   0.499958 0.086269 0.499984 0.896526
C71   C     C_R   0.999957 0.413731 0.499983 0.896527
C72   C     C_R   0.999958 0.586268 0.499984 0.896526
C73   C     C_R   0.500824 0.000000 0.587113 0.896245
C74   C     C_R   0.000824 0.500000 0.587113 0.896245
C75   C     C_1   0.995581 0.500000 0.132971 -0.211085
C76   C     C_3   0.233214 0.500316 0.183715 -0.243707
C77   C     C_1   0.495581 1.000000 0.132971 -0.211086
C78   C     C_1   0.996184 0.500000 0.175708 0.011836
C79   C     C_1   0.496184 1.000000 0.175708 0.011836
C80   C     C_1   0.996889 0.500000 0.226138 0.013360
C81   C     C_1   0.496889 1.000000 0.226138 0.013360
C82   C     C_1   0.497468 1.000000 0.268849 0.012087
C83   C     C_1   0.997468 0.500000 0.268849 0.012087
C84   C     C_1   0.498110 1.000000 0.319216 0.008965
C85   C     C_1   0.998110 0.500000 0.319216 0.008965
C86   C     C_1   0.498588 1.000000 0.361828 -0.209501
C87   C     C_3   0.733214 0.000316 0.183715 -0.243707
C88   C     C_1   0.998588 0.500000 0.361828 -0.209501
C89   C     C_1   0.994081 0.500000 0.856851 -0.217000
C90   C     C_1   0.494081 1.000000 0.856851 -0.217000
C91   C     C_3   0.232477 0.537025 0.248418 0.362629
C92   C     C_3   0.232493 0.462795 0.247973 0.362733
C93   C     C_3   0.732477 0.037025 0.248418 0.362629
C94   C     C_3   0.732493 0.962795 0.247973 0.362733
C95   C     C_1   0.995348 0.500000 0.815988 0.008224
C96   C     C_1   0.495348 1.000000 0.815988 0.008224
C97   C     C_1   0.997020 0.500000 0.767933 0.010332
C98   C     C_1   0.334589 0.500041 0.333005 0.037557
C99   C     C_1   0.497020 0.000000 0.767933 0.010332
C100  C     C_1   0.498419 0.000000 0.727207 0.009895
C101  C     C_1   0.998419 0.500000 0.727207 0.009895
C102  C     C_1   0.499877 0.000000 0.678929 0.007984
C103  C     C_1   0.999877 0.500000 0.678929 0.007984
C104  C     C_1   0.500713 0.000000 0.637619 -0.210547
C105  C     C_1   0.000713 0.500000 0.637619 -0.210547
C106  C     C_3   0.261814 0.538248 0.235181 -0.264542
C107  C     C_3   0.261830 0.462121 0.234724 -0.265020
C108  C     C_3   0.761814 0.038248 0.235181 -0.264542
H1    H     H_    0.275293 0.569283 0.231951 0.169095
H2    H     H_    0.741295 0.906352 0.288903 0.346442
H3    H     H_    0.249189 0.499373 0.351836 0.355014
H4    H     H_    0.749189 0.999373 0.351836 0.355014
H5    H     H_    0.275322 0.431306 0.231122 0.169094
H6    H     H_    0.775293 0.069283 0.231951 0.169095
H7    H     H_    0.775322 0.931306 0.231122 0.169094
H8    H     H_    0.220541 0.500533 0.135320 0.174182
H9    H     H_    0.720541 0.000533 0.135320 0.174182
H10   H     H_    0.241246 0.592983 0.290166 0.346540
H11   H     H_    0.241295 0.406352 0.288903 0.346442
H12   H     H_    0.741246 0.092983 0.290166 0.346540
O1    O     O_R   0.500400 0.563130 0.536080 -0.594935
O2    O     O_R   0.963990 0.500000 0.400890 -0.593331
O3    O     O_R   0.534410 1.000000 0.471310 -0.592350
O4    O     O_R   0.034410 0.500000 0.471310 -0.592350
O5    O     O_R   0.464750 0.936830 0.464780 -0.593000
O6    O     O_R   0.464750 0.063170 0.464780 -0.592994
O7    O     O_R   0.964750 0.436830 0.464780 -0.593000
O8    O     O_R   0.964750 0.563170 0.464780 -0.592994
O9    O     O_R   0.535170 0.936820 0.535200 -0.592986
O10   O     O_R   0.535170 0.063180 0.535200 -0.592990
O11   O     O_R   0.035170 0.436820 0.535200 -0.592986
O12   O     O_R   0.500400 0.436870 0.536080 -0.594919
O13   O     O_R   0.035170 0.563180 0.535200 -0.592990
O14   O     O_R   0.465520 1.000000 0.528690 -0.592751
O15   O     O_R   0.965520 0.500000 0.528690 -0.592751
O16   O     O_R   0.535930 1.000000 0.599110 -0.593179
O17   O     O_R   0.035930 0.500000 0.599110 -0.593179
O18   O     O_R   0.499540 0.563080 0.463930 -0.597196
O19   O     O_R   0.499540 0.436920 0.463930 -0.597218
O20   O     O_R   0.999540 0.063080 0.463930 -0.597196
O21   O     O_R   0.999540 0.936920 0.463930 -0.597218
O22   O     O_R   0.438030 0.500000 0.473700 -0.601384
O23   O     O_R   0.000400 0.063130 0.536080 -0.594935
O24   O     O_R   0.938030 1.000000 0.473700 -0.601384
O25   O     O_R   0.437170 0.500000 0.401550 -0.617386
O26   O     O_R   0.937170 1.000000 0.401550 -0.617386
O27   O     O_R   0.562760 0.500000 0.598450 -0.591745
O28   O     O_R   0.062760 1.000000 0.598450 -0.591745
O29   O     O_R   0.561900 0.500000 0.526300 -0.591464
O30   O     O_R   0.061900 1.000000 0.526300 -0.591464
O31   O     O_R   0.994600 0.535610 0.057840 -0.595620
O32   O     O_R   0.994600 0.464390 0.057840 -0.595635
O33   O     O_R   0.494600 0.035610 0.057840 -0.595620
O34   O     O_R   0.000400 0.936870 0.536080 -0.594919
O35   O     O_R   0.494600 0.964390 0.057840 -0.595634
O36   O     O_R   0.056200 0.535620 0.056290 -0.607087
O37   O     O_R   0.056200 0.464380 0.056290 -0.607000
O38   O     O_R   0.556200 0.035620 0.056290 -0.607087
O39   O     O_R   0.556200 0.964380 0.056290 -0.607000
O40   O     O_R   0.993060 0.535640 0.930020 -0.596087
O41   O     O_R   0.993060 0.464360 0.930020 -0.596058
O42   O     O_R   0.493060 0.035640 0.930020 -0.596087
O43   O     O_R   0.493060 0.964360 0.930020 -0.596058
O44   O     O_3   0.215418 0.575275 0.253783 -0.744480
O45   O     O_R   0.931470 0.535630 0.931560 -0.592080
O46   O     O_3   0.215451 0.424261 0.252883 -0.744358
O47   O     O_3   0.715418 0.075275 0.253783 -0.744480
O48   O     O_3   0.715451 0.924261 0.252883 -0.744358
O49   O     O_3   0.275689 0.499504 0.358989 -0.745142
O50   O     O_3   0.775689 0.999504 0.358989 -0.745142
O51   O     O_R   0.931470 0.464370 0.931560 -0.592081
O52   O     O_R   0.431470 0.035630 0.931560 -0.592080
O53   O     O_R   0.431470 0.964370 0.931560 -0.592081
O54   O     O_R   0.463990 1.000000 0.400890 -0.593331
Zn1   Zn    Zn3+2 0.500540 0.500000 0.548170 0.987774
Zn2   Zn    Zn3+2 0.952950 0.500000 0.452980 0.975985
Zn3   Zn    Zn3+2 0.546980 1.000000 0.547020 0.976278
Zn4   Zn    Zn3+2 0.046980 0.500000 0.547020 0.976278
Zn5   Zn    Zn3+2 0.000540 1.000000 0.548170 0.987774
Zn6   Zn    Zn3+2 0.499390 0.500000 0.451830 0.974080
Zn7   Zn    Zn3+2 0.999390 1.000000 0.451830 0.974080
Zn8   Zn    Zn3+2 0.993830 0.547580 0.993940 0.986342
Zn9   Zn    Zn3+2 0.993830 0.452420 0.993940 0.986413
Zn10  Zn    Zn3+2 0.493830 0.047580 0.993940 0.986342
Zn11  Zn    Zn3+2 0.493830 0.952420 0.993940 0.986413
Zn12  Zn    Zn3+2 0.452950 1.000000 0.452980 0.975985

loop_
_geom_bond_atom_site_label_1
_geom_bond_atom_site_label_2
_ccdc_geom_bond_type
C72   O13   A    
O41   Zn9   S    
C4    C98   T    
C6    C58   S    
C44   C66   S    
C8    O49   S    
O3    Zn3   S    
O18   Zn6   S    
C68   O4    A    
C81   C82   T    
C9    O50   S    
C47   C49   T    
C13   C65   S    
C60   C89   S    
C61   C90   S    
C15   C19   T    
C62   O51   A    
C57   O35   A    
H10   O44   S    
C40   O25   A    
C72   O8    A    
O45   Zn8   S    
O51   Zn9   S    
C84   C86   T    
C32   O20   A    
C40   O22   A    
C93   C108  S    
C6    C12   T    
C59   O38   A    
O27   Zn1   S    
O13   Zn4   S    
C20   C25   S    
C60   O40   A    
C67   O54   A    
C108  H6    S    
C96   C99   S    
C70   O10   A    
C45   C47   S    
O40   Zn8   S    
C10   C98   S    
O14   Zn12  S    
C107  H5    S    
C32   O23   A    
O19   Zn6   S    
C59   O39   A    
C73   C104  S    
H4    O50   S    
C87   C108  S    
C4    C40   S    
C49   C51   S    
C55   C63   S    
O42   Zn10  S    
C50   C52   S    
C39   C72   S    
O24   Zn5   S    
C65   C87   S    
C8    C92   S    
O23   Zn5   S    
C56   O32   A    
C43   O34   A    
O4    Zn4   S    
C52   C55   T    
C70   O6    A    
C48   C50   T    
C69   O5    A    
C101  C103  S    
C56   C75   S    
C34   C38   T    
C37   C70   S    
C91   C106  S    
C71   O7    A    
C10   C107  S    
H2    O48   S    
C80   C83   T    
C2    C11   S    
C7    C59   S    
O11   Zn4   S    
C44   C46   T    
C63   O53   A    
O30   Zn7   S    
C77   C79   T    
C25   C29   T    
C74   O17   A    
C46   C48   S    
O8    Zn2   S    
O17   Zn4   S    
C3    C87   S    
C61   O42   A    
C57   C77   S    
O6    Zn12  S    
C3    C11   S    
C41   O24   A    
O35   Zn11  S    
C94   O48   S    
C79   C81   S    
O36   Zn8   S    
C41   O26   A    
O21   Zn7   S    
C57   O33   A    
O16   Zn3   S    
O29   Zn6   S    
C33   C37   T    
C18   C23   S    
O5    Zn12  S    
C51   C53   T    
C42   C45   T    
C89   C95   T    
C35   C39   T    
C17   C43   S    
C21   O12   A    
C54   C92   S    
O10   Zn3   S    
C53   C62   S    
O52   Zn10  S    
C92   C107  S    
C99   C100  T    
O33   Zn10  S    
C7    C13   T    
C16   C20   T    
O20   Zn7   S    
O53   Zn11  S    
C74   O15   A    
C90   C96   T    
C100  C102  S    
C60   O41   A    
C103  C105  T    
C8    C91   S    
C56   O31   A    
C102  C104  T    
C9    C11   S    
H11   O46   S    
C58   O36   A    
C54   C76   S    
C30   C35   S    
C8    C10   S    
C65   C94   S    
C83   C85   S    
C28   C33   S    
C26   C30   T    
O28   Zn5   S    
C23   C27   T    
C27   C31   S    
C68   C88   S    
C91   O44   S    
C43   O21   A    
C2    C5    T    
C16   C32   S    
C21   O19   A    
C68   O2    A    
C9    C93   S    
C36   C69   S    
O31   Zn8   S    
C85   C88   T    
O7    Zn2   S    
C5    C41   S    
C38   C71   S    
C67   C86   S    
C76   C106  S    
O26   Zn7   S    
C61   O43   A    
C66   O28   A    
C14   C18   T    
C24   C28   T    
C58   O37   A    
C67   O3    A    
C42   C64   S    
C95   C97   S    
C66   O30   A    
O22   Zn1   S    
O32   Zn9   S    
C76   C107  S    
C82   C84   S    
C17   C22   T    
C64   O29   A    
O43   Zn11  S    
O15   Zn2   S    
O39   Zn11  S    
C19   C24   S    
C54   C91   S    
C64   O27   A    
C3    H7    S    
O54   Zn12  S    
C74   C105  S    
C63   O52   A    
O1    Zn1   S    
O9    Zn3   S    
C12   C54   S    
O2    Zn2   S    
C29   C34   S    
O25   Zn6   S    
C65   C93   S    
C76   H8    S    
C3    C94   S    
C78   C80   S    
C87   H9    S    
C75   C78   T    
C1    O1    A    
C10   C106  S    
C71   O11   A    
C92   O46   S    
C15   C21   S    
C62   O45   A    
C73   O14   A    
C93   O47   S    
C69   O9    A    
C22   C26   S    
C73   O16   A    
C11   C108  S    
C31   C36   T    
C1    C14   S    
O37   Zn9   S    
H3    O49   S    
O34   Zn5   S    
O38   Zn10  S    
C9    C94   S    
O12   Zn1   S    
C97   C101  T    
C1    O18   A    
H12   O47   S    
C106  H1    S    
