data_mof_unit_29050.cif
_audit_creation_date              2012-12-11T14:33:58-0500
_audit_creation_method            fapswitch 2.2
_symmetry_space_group_name_H-M    P1
_symmetry_Int_Tables_number       1
_space_group_crystal_system       triclinic
_cell_length_a                    13.82572
_cell_length_b                    13.972588
_cell_length_c                    27.339466
_cell_angle_alpha                 89.8828
_cell_angle_beta                  90.065436
_cell_angle_gamma                 119.690739
_cell_volume                      4588.06264385

loop_
_atom_site_label
_atom_site_type_symbol
_atom_type_description
_atom_site_fract_x
_atom_site_fract_y
_atom_site_fract_z
_atom_type_partial_charge
C1    C     C_R   0.234143 0.787193 0.568815 0.537956
C2    C     C_R   0.212550 0.446895 0.568932 0.541678
C3    C     C_R   0.552333 0.764779 0.569175 0.538360
C4    C     C_3   0.672882 0.729454 0.790202 0.205343
C5    C     C_3   0.263015 0.954342 0.785375 0.209929
C6    C     C_3   0.037051 0.301063 0.784727 0.209615
C7    C     C_3   0.656019 0.718512 0.733197 0.208130
C8    C     C_3   0.275477 0.944838 0.728898 0.206879
C9    C     C_3   0.051090 0.328976 0.728725 0.209500
C10   C     C_1   0.703664 0.855546 0.860744 -0.052624
C11   C     C_1   0.123435 0.883125 0.853408 -0.037164
C12   C     C_1   0.110834 0.234943 0.852805 -0.048387
C13   C     C_1   0.625565 0.807333 0.659678 -0.041631
C14   C     C_1   0.184805 0.822517 0.657048 -0.043271
C15   C     C_1   0.176280 0.362712 0.657232 -0.043286
C16   C     C_1   0.599093 0.793079 0.617213 -0.014664
C17   C     C_1   0.202011 0.806773 0.615606 -0.024607
C18   C     C_1   0.192634 0.395748 0.615808 -0.018209
C19   C     C_R   0.065572 0.151161 0.096275 0.600623
C20   C     C_R   0.776828 0.883957 0.088145 0.562809
C21   C     C_R   0.116428 0.892741 0.087646 0.579753
C22   C     C_R   0.069288 0.160853 0.943213 0.537135
C23   C     C_R   0.779156 0.886712 0.950936 0.526588
C24   C     C_R   0.091539 0.929142 0.943193 0.529915
C25   C     C_R   0.624206 0.898192 0.362029 -0.132822
C26   C     C_R   0.099132 0.734427 0.361961 -0.134247
C27   C     C_R   0.256217 0.344075 0.367053 -0.136061
C28   C     C_R   0.649665 0.913861 0.312263 0.017776
C29   C     C_R   0.083553 0.743031 0.311934 0.016924
C30   C     C_R   0.232105 0.291896 0.321276 0.015616
C31   C     C_R   0.681596 0.931789 0.210221 0.019295
C32   C     C_R   0.060680 0.754203 0.210079 0.019772
C33   C     C_R   0.194976 0.214087 0.223988 0.020686
C34   C     C_R   0.233340 0.788045 0.431331 0.547762
C35   C     C_R   0.211224 0.444027 0.431574 0.550049
C36   C     C_R   0.555694 0.767153 0.431816 0.548255
C37   C     C_R   0.664170 0.009012 0.235981 -0.131640
C38   C     C_R   0.973406 0.672512 0.238157 -0.119907
C39   C     C_R   0.288270 0.226814 0.250378 -0.122666
C40   C     C_R   0.647539 0.999598 0.286507 -0.143575
C41   C     C_R   0.985437 0.666097 0.288555 -0.144138
C42   C     C_R   0.307604 0.267230 0.298245 -0.147503
C43   C     C_R   0.700675 0.940627 0.159218 0.237256
C44   C     C_R   0.048895 0.764565 0.159485 0.247460
C45   C     C_R   0.181787 0.188759 0.173448 0.240515
C46   C     C_R   0.723410 0.863927 0.136026 -0.000261
C47   C     C_R   0.135875 0.853708 0.134011 -0.000636
C48   C     C_R   0.085333 0.175426 0.148901 -0.008385
C49   C     C_R   0.652209 0.739558 0.362618 -0.131400
C50   C     C_R   0.278976 0.902104 0.357527 -0.127568
C51   C     C_R   0.076913 0.336759 0.366460 -0.130963
C52   C     C_R   0.674116 0.751838 0.312883 0.017401
C53   C     C_R   0.267799 0.907848 0.307557 0.017167
C54   C     C_R   0.053344 0.288019 0.320538 0.015116
C55   C     C_R   0.670263 0.837745 0.287225 0.067841
C56   C     C_R   0.170248 0.827444 0.284363 0.066774
C57   C     C_R   0.132537 0.268397 0.297058 0.066470
C58   C     C_R   0.691634 0.674490 0.287928 -0.128441
C59   C     C_R   0.355644 0.989453 0.280245 -0.130192
C60   C     C_R   0.954589 0.264994 0.296578 -0.129667
C61   C     C_R   0.701723 0.679927 0.237411 -0.114936
C62   C     C_R   0.347444 0.990937 0.229725 -0.117075
C63   C     C_R   0.936983 0.228312 0.248451 -0.114028
C64   C     C_R   0.697454 0.764509 0.211675 -0.000612
C65   C     C_R   0.249950 0.912976 0.206373 0.008515
C66   C     C_R   0.017111 0.212832 0.224019 -0.001150
C67   C     C_3   0.549341 0.821831 0.739309 -0.213500
C68   C     C_3   0.151487 0.738126 0.739351 -0.215532
C69   C     C_3   0.259313 0.410261 0.739983 -0.214604
C70   C     C_R   0.683408 0.845032 0.236345 0.022201
C71   C     C_R   0.160361 0.831038 0.233533 0.018799
C72   C     C_R   0.114344 0.230421 0.248479 0.021345
C73   C     C_R   0.712216 0.772010 0.161729 -0.169505
C74   C     C_R   0.238404 0.920593 0.156598 -0.164051
C75   C     C_R   0.002679 0.183661 0.175001 -0.179969
C76   C     C_R   0.618575 0.806839 0.386373 -0.004939
C77   C     C_R   0.199104 0.811337 0.384283 -0.003532
C78   C     C_R   0.180712 0.371120 0.388696 -0.005709
C79   C     C_3   0.755891 0.925294 0.724200 -0.274993
C80   C     C_3   0.068623 0.855868 0.715311 -0.280546
C81   C     C_3   0.141342 0.212812 0.714679 -0.279735
C82   C     C_3   0.776278 0.937029 0.780020 -0.213932
C83   C     C_3   0.055607 0.876772 0.769700 -0.237583
C84   C     C_3   0.117759 0.176637 0.768754 -0.237900
C85   C     C_1   0.732424 0.870536 0.902925 -0.039721
C86   C     C_1   0.107361 0.901116 0.894745 -0.025247
C87   C     C_1   0.094910 0.202146 0.894330 -0.042694
C88   C     C_3   0.646524 0.817793 0.712750 0.053924
C89   C     C_3   0.170890 0.840112 0.708855 0.058098
C90   C     C_3   0.157326 0.329834 0.708868 0.056981
C91   C     C_3   0.570250 0.836375 0.795178 -0.274603
C92   C     C_3   0.128655 0.751476 0.793736 -0.274493
C93   C     C_3   0.243107 0.372913 0.794138 -0.273308
C94   C     C_3   0.680742 0.839310 0.807912 0.056296
C95   C     C_3   0.142781 0.867331 0.801937 0.055433
C96   C     C_3   0.126429 0.270732 0.801459 0.061816
Cr1   Cr    Cr6+3 0.164410 0.584450 0.499910 1.009388
Cr2   Cr    Cr6+3 0.415550 0.579960 0.499910 1.013244
Cr3   Cr    Cr6+3 0.420040 0.835590 0.499910 1.002369
Cr4   Cr    Cr6+3 0.155170 0.075460 0.019960 1.000594
Cr5   Cr    Cr6+3 0.924540 0.079710 0.019960 1.009996
Cr6   Cr    Cr6+3 0.920290 0.844830 0.019960 1.004371
H1    H     H_    0.662702 0.076615 0.217282 0.123989
H2    H     H_    0.895725 0.613055 0.221375 0.129740
H3    H     H_    0.348848 0.209486 0.233661 0.141533
H4    H     H_    0.631875 0.058722 0.305358 0.095013
H5    H     H_    0.917941 0.601148 0.309239 0.099341
H6    H     H_    0.382978 0.281719 0.316786 0.102053
H7    H     H_    0.713610 0.618457 0.218466 0.105241
H8    H     H_    0.416195 0.054529 0.209031 0.091839
H9    H     H_    0.862538 0.215799 0.229770 0.115323
H10   H     H_    0.650486 0.670484 0.381604 0.128293
H11   H     H_    0.355824 0.963364 0.374493 0.131124
H12   H     H_    0.016599 0.354529 0.383312 0.131089
H13   H     H_    0.827389 0.924915 0.705697 0.107747
H14   H     H_    0.078045 0.926597 0.692886 0.106329
H15   H     H_    0.070927 0.153080 0.691561 0.105951
H16   H     H_    0.857390 0.942140 0.788523 0.155133
H17   H     H_    0.064239 0.959185 0.773916 0.133759
H18   H     H_    0.033064 0.103943 0.771959 0.143056
O1    O     O_R   0.137150 0.468200 0.553200 -0.520507
O2    O     O_R   0.531800 0.668950 0.553200 -0.512286
O3    O     O_R   0.331050 0.862850 0.553200 -0.523238
O4    O     O_R   0.179100 0.982980 0.967000 -0.526073
O5    O     O_R   0.017020 0.196120 0.967000 -0.498302
O6    O     O_R   0.803880 0.820900 0.967000 -0.528562
O7    O     O_R   0.173970 0.688730 0.549930 -0.502397
O8    O     O_R   0.311270 0.485240 0.549930 -0.501418
O9    O     O_R   0.514760 0.826030 0.549930 -0.506229
O10   O     O_R   0.140110 0.470540 0.446010 -0.523667
O11   O     O_R   0.529460 0.669570 0.446010 -0.522203
O12   O     O_R   0.330430 0.859890 0.446010 -0.524661
O13   O     O_R   0.176710 0.690910 0.450560 -0.500965
O14   O     O_R   0.309090 0.485800 0.450560 -0.500448
O15   O     O_R   0.514200 0.823290 0.450560 -0.503274
O16   O     O_3   0.333333 0.666667 0.499990 -0.256443
O17   O     O_R   0.176750 0.985260 0.074180 -0.508076
O18   O     O_R   0.014740 0.191490 0.074180 -0.508634
O19   O     O_R   0.808510 0.823250 0.074180 -0.510350
O20   O     O_R   0.146100 0.172630 0.068980 -0.458159
O21   O     O_R   0.827370 0.973470 0.068980 -0.475024
O22   O     O_R   0.026530 0.853900 0.068980 -0.446975
O23   O     O_3   1.000000 0.000000 0.020040 -0.281759
O24   O     O_R   0.148270 0.170520 0.969620 -0.507263
O25   O     O_R   0.829480 0.977750 0.969620 -0.524216
O26   O     O_R   0.022250 0.851730 0.969620 -0.500101
H19   H     H_    0.573670 0.914128 0.807138 0.118591
H20   H     H_    0.042658 0.686839 0.803712 0.118058
H21   H     H_    0.308811 0.352853 0.804770 0.120461
H22   H     H_    0.469075 0.745340 0.732032 0.168587
H23   H     H_    0.225255 0.726357 0.736729 0.167825
H24   H     H_    0.272375 0.495367 0.737400 0.170383
H25   H     H_    0.499708 0.767338 0.814867 0.110313
H26   H     H_    0.187006 0.739304 0.817569 0.109664
H27   H     H_    0.252997 0.441661 0.817982 0.109922
O27   O     O_3   0.773173 0.730291 0.802416 -0.624730
C97   C     C_3   0.755088 0.629033 0.822255 -0.030686
H28   H     H_    0.821338 0.613885 0.807735 0.135512
H29   H     H_    0.674398 0.556516 0.811507 0.098575
C98   C     C_3   0.764752 0.637198 0.877983 -0.237504
H30   H     H_    0.844026 0.711836 0.888274 0.198465
H31   H     H_    0.694232 0.644618 0.893112 0.165466
C99   C     C_3   0.762835 0.536077 0.900239 -0.486543
H32   H     H_    0.684049 0.460271 0.890630 0.134939
H33   H     H_    0.768744 0.544126 0.940696 0.150039
H34   H     H_    0.834686 0.528888 0.886679 0.136323
O28   O     O_3   0.284610 0.061993 0.797209 -0.613463
C100  C     C_3   0.397566 0.132978 0.810024 -0.016713
H35   H     H_    0.423358 0.216223 0.795059 0.130996
H36   H     H_    0.455907 0.108241 0.794125 0.097444
C101  C     C_3   0.411895 0.140640 0.865656 -0.257246
H37   H     H_    0.382117 0.057108 0.881213 0.162183
H38   H     H_    0.501780 0.192145 0.874484 0.099554
C102  C     C_3   0.348676 0.192144 0.889263 -0.368990
H39   H     H_    0.379137 0.276745 0.874945 0.120190
H40   H     H_    0.361484 0.196718 0.929472 0.143942
H41   H     H_    0.258394 0.141100 0.881622 0.191258
O29   O     O_3   0.929061 0.210322 0.793263 -0.624103
C103  C     C_3   0.855930 0.242073 0.814562 -0.032501
H42   H     H_    0.771232 0.186337 0.799929 0.134186
H43   H     H_    0.875499 0.327270 0.804807 0.107356
C104  C     C_3   0.853976 0.228232 0.870159 -0.246184
H44   H     H_    0.841135 0.145087 0.879194 0.185712
H45   H     H_    0.935140 0.291053 0.885669 0.168015
C105  C     C_3   0.760980 0.241177 0.893512 -0.487914
H46   H     H_    0.771078 0.323121 0.884503 0.137962
H47   H     H_    0.763877 0.233852 0.933872 0.150758
H48   H     H_    0.678634 0.175763 0.880190 0.132117
O30   O     O_3   0.707960 0.028994 0.133050 -0.584086
C106  C     C_3   0.599824 0.009537 0.121246 -0.009129
H49   H     H_    0.600486 0.089061 0.124894 0.134419
H50   H     H_    0.532999 0.950172 0.146274 0.118804
C107  C     C_3   0.570980 0.970088 0.068310 -0.253421
H51   H     H_    0.636740 0.030454 0.043541 0.172927
H52   H     H_    0.567529 0.889349 0.064268 0.152044
C108  C     C_3   0.458767 0.957446 0.053392 -0.481033
H53   H     H_    0.391323 0.894997 0.076817 0.145430
H54   H     H_    0.440701 0.929956 0.014737 0.150572
H55   H     H_    0.460200 0.037363 0.056837 0.140858
O31   O     O_3   0.947661 0.698351 0.136681 -0.565190
C109  C     C_3   0.939962 0.597396 0.122383 -0.012713
H56   H     H_    0.853094 0.531079 0.129393 0.136802
H57   H     H_    0.995031 0.575041 0.143669 0.114215
C110  C     C_3   0.963992 0.599377 0.067623 -0.247615
H58   H     H_    0.909495 0.622453 0.046746 0.181142
H59   H     H_    0.052196 0.661878 0.060318 0.154709
C111  C     C_3   0.943260 0.487222 0.049927 -0.482323
H60   H     H_    0.997940 0.462954 0.069814 0.164871
H61   H     H_    0.961798 0.491582 0.010210 0.149526
H62   H     H_    0.854819 0.423607 0.055844 0.140755
O32   O     O_3   0.258885 0.170843 0.148828 -0.560333
C112  C     C_3   0.349896 0.273113 0.134213 0.019025
H63   H     H_    0.391831 0.327028 0.166211 0.112061
H64   H     H_    0.322181 0.317780 0.109170 0.153848
C113  C     C_3   0.434322 0.251611 0.107485 -0.253508
H65   H     H_    0.461413 0.205808 0.132066 0.143979
H66   H     H_    0.394365 0.199984 0.074689 0.176357
C114  C     C_3   0.536304 0.358906 0.091556 -0.496351
H67   H     H_    0.511455 0.405261 0.066257 0.149318
H68   H     H_    0.595641 0.340164 0.072290 0.137815
H69   H     H_    0.578912 0.410898 0.123908 0.142184
H70   H     H_    0.600010 0.951611 0.380586 0.123466
H71   H     H_    0.036716 0.665100 0.382707 0.119012
H72   H     H_    0.335386 0.368108 0.384551 0.120708
H73   H     H_    0.725325 0.710361 0.143558 0.161508
H74   H     H_    0.306072 0.986617 0.136303 0.142889
H75   H     H_    0.927608 0.170497 0.156518 0.173983
H76   H     H_    0.694307 0.608070 0.307299 0.096209
H77   H     H_    0.431331 0.050884 0.297873 0.091882
H78   H     H_    0.892999 0.279462 0.314382 0.097686
H79   H     H_    0.541157 0.891447 0.724778 0.147992
H80   H     H_    0.079309 0.663173 0.724280 0.128303
H81   H     H_    0.335298 0.412427 0.725658 0.134097
H82   H     H_    0.751217 0.997699 0.710062 0.123275
H83   H     H_    0.991978 0.781128 0.702507 0.123266
H84   H     H_    0.217474 0.211651 0.702295 0.125440
H85   H     H_    0.781217 0.014706 0.792433 0.168002
H86   H     H_    0.970703 0.815967 0.781979 0.177690
H87   H     H_    0.178581 0.152411 0.781338 0.181701
O33   O     O_3   0.557554 0.619232 0.721157 -0.605224
C115  C     C_3   0.575213 0.527772 0.718461 -0.018147
H88   H     H_    0.523713 0.468206 0.747344 0.128559
H89   H     H_    0.662773 0.547234 0.724754 0.104805
C116  C     C_3   0.538346 0.473781 0.668173 -0.241323
H90   H     H_    0.457976 0.468066 0.657642 0.189760
H91   H     H_    0.601684 0.525689 0.640478 0.165521
C117  C     C_3   0.524233 0.358292 0.668008 -0.501304
H92   H     H_    0.602529 0.361226 0.679783 0.133401
H93   H     H_    0.503029 0.323476 0.630522 0.149554
H94   H     H_    0.455865 0.303408 0.693158 0.132774
O34   O     O_3   0.372596 0.937254 0.719548 -0.613583
C118  C     C_3   0.462691 0.037083 0.701648 -0.029845
H95   H     H_    0.537759 0.054724 0.723268 0.129059
H96   H     H_    0.452859 0.111092 0.705915 0.106558
C119  C     C_3   0.483252 0.023087 0.647891 -0.236991
H97   H     H_    0.483757 0.944350 0.643021 0.195908
H98   H     H_    0.414785 0.020072 0.625460 0.176698
C120  C     C_3   0.594040 0.117701 0.629970 -0.484405
H99   H     H_    0.594747 0.197129 0.633436 0.137471
H100  H     H_    0.606007 0.104686 0.590893 0.157447
H101  H     H_    0.664068 0.121402 0.651471 0.134547
O35   O     O_3   0.060039 0.433637 0.721001 -0.605773
C121  C     C_3   0.956129 0.425056 0.709203 -0.022772
H102  H     H_    0.944291 0.482226 0.733313 0.128513
H103  H     H_    0.882254 0.342176 0.715674 0.108793
C122  C     C_3   0.957788 0.458772 0.655842 -0.243287
H104  H     H_    0.031075 0.541701 0.649495 0.188049
H105  H     H_    0.965431 0.399007 0.631671 0.177565
C123  C     C_3   0.852011 0.461590 0.642615 -0.490227
H106  H     H_    0.778194 0.378417 0.647097 0.137908
H107  H     H_    0.856434 0.487545 0.603892 0.154532
H108  H     H_    0.842695 0.521095 0.666280 0.134947
H109  H     H_    0.730747 0.722975 0.715217 0.121075
H110  H     H_    0.276580 0.016471 0.710065 0.116389
H111  H     H_    0.979803 0.262080 0.708078 0.121584
H112  H     H_    0.598367 0.661296 0.808667 0.116487
H113  H     H_    0.320725 0.933191 0.805294 0.124506
H114  H     H_    0.053354 0.375930 0.805989 0.121958

loop_
_geom_bond_atom_site_label_1
_geom_bond_atom_site_label_2
_ccdc_geom_bond_type
C15   C18   T    
C101  H37   S    
C119  H98   S    
C8    O34   S    
C106  H49   S    
C82   C94   S    
C79   H13   S    
C92   H20   S    
C33   C45   A    
C109  H56   S    
C93   H21   S    
C99   H32   S    
C48   C75   A    
Cr1   O13   S    
Cr1   O7    S    
C27   C78   A    
C61   H7    S    
C6    C9    S    
C91   H19   S    
O29   C103  S    
C53   C59   A    
C114  H67   S    
O34   C118  S    
C10   C85   T    
C54   C60   A    
C55   C70   A    
C25   C28   A    
C23   O25   A    
Cr5   O25   S    
C67   C88   S    
C45   O32   S    
C121  C122  S    
C31   C43   A    
Cr3   O12   S    
C60   C63   A    
C60   H78   S    
C20   O19   A    
C118  H96   S    
O27   C97   S    
C99   H33   S    
C21   O22   A    
C91   H25   S    
C37   C40   A    
C69   C93   S    
C4    C7    S    
C34   C77   S    
C45   C48   A    
C102  H41   S    
C2    C18   S    
C10   C94   S    
C11   C86   T    
C82   H85   S    
Cr2   O16   S    
C24   O4    A    
C116  H90   S    
C121  H103  S    
C115  H88   S    
C84   C96   S    
C118  H95   S    
C83   H17   S    
C80   C89   S    
C7    C88   S    
C69   H81   S    
C102  H39   S    
Cr1   O1    S    
C36   C76   S    
C106  C107  S    
C104  H44   S    
Cr5   O21   S    
C100  C101  S    
C66   C72   A    
C80   H14   S    
C116  H91   S    
C19   O20   A    
C107  H52   S    
Cr2   O11   S    
C111  H62   S    
Cr5   O5    S    
C64   C73   A    
C112  C113  S    
C32   C38   A    
C39   C42   A    
C51   C54   A    
Cr4   O20   S    
C33   C72   A    
C52   C55   A    
C14   C17   T    
C103  C104  S    
C49   C52   A    
C58   C61   A    
C100  H36   S    
C83   H86   S    
C34   O12   A    
C97   H29   S    
C63   C66   A    
C123  H106  S    
C6    O29   S    
C27   C30   A    
C97   H28   S    
C3    O2    A    
C109  H57   S    
C80   H83   S    
C80   C83   S    
C35   O14   A    
C79   C88   S    
C5    C95   S    
C28   C55   A    
C68   C89   S    
C32   C71   A    
C104  H45   S    
C31   C70   A    
C32   C44   A    
C52   C58   A    
C101  C102  S    
C49   C76   A    
C51   H12   S    
C53   C56   A    
Cr3   O9    S    
C28   C40   A    
C111  H60   S    
C50   C53   A    
C98   C99   S    
C93   H27   S    
C99   H34   S    
C5    H113  S    
C47   C74   A    
C38   C41   A    
C108  H54   S    
Cr4   O24   S    
C113  C114  S    
O28   C100  S    
C37   H1    S    
C21   C47   S    
C19   C48   S    
O31   C109  S    
C22   O5    A    
C34   O13   A    
C7    H109  S    
C65   C71   A    
C122  C123  S    
C92   C95   S    
C21   O17   A    
C31   C37   A    
C30   C57   A    
C115  H89   S    
C104  C105  S    
C4    H112  S    
C61   C64   A    
C120  H100  S    
C113  H65   S    
C1    O3    A    
C14   C89   S    
C2    O1    A    
C101  H38   S    
C114  H68   S    
O32   C112  S    
C62   H8    S    
C110  C111  S    
C84   H18   S    
C107  C108  S    
C83   C95   S    
C9    O35   S    
C67   C91   S    
C26   C77   A    
C27   H72   S    
C81   H84   S    
Cr3   O15   S    
C25   H70   S    
C117  H93   S    
C33   C39   A    
C22   C87   S    
C7    O33   S    
C105  H48   S    
C35   O10   A    
C122  H105  S    
C26   C29   A    
C49   H10   S    
C4    C94   S    
C81   C90   S    
C81   H15   S    
C100  H35   S    
C4    O27   S    
C110  H59   S    
C44   O31   S    
C93   C96   S    
C64   C70   A    
C118  C119  S    
C123  H108  S    
C109  C110  S    
C36   O11   A    
C120  H101  S    
Cr6   O23   S    
C82   H16   S    
C22   O24   A    
C119  H97   S    
C59   H77   S    
C50   C77   A    
C81   C84   S    
C58   H76   S    
C114  H69   S    
C40   H4    S    
C117  H94   S    
C11   C95   S    
C39   H3    S    
C23   O6    A    
C59   C62   A    
C106  H50   S    
C41   H5    S    
C62   C65   A    
C29   C41   A    
C3    O9    A    
C69   H24   S    
C1    C17   S    
C20   O21   A    
C9    H111  S    
C12   C96   S    
C1    O7    A    
C79   H82   S    
C112  H64   S    
C108  H53   S    
Cr6   O6    S    
Cr4   O23   S    
C9    C90   S    
Cr1   O10   S    
C79   C82   S    
C38   H2    S    
C117  H92   S    
C44   C47   A    
O35   C121  S    
C29   C56   A    
Cr3   O3    S    
C97   C98   S    
Cr2   O14   S    
C35   C78   S    
C6    C96   S    
C116  C117  S    
C2    O8    A    
C115  C116  S    
C98   H30   S    
C50   H11   S    
C123  H107  S    
C120  H99   S    
C51   C78   A    
C12   C87   T    
C68   H23   S    
C24   O26   A    
Cr5   O18   S    
Cr6   O26   S    
C91   C94   S    
C73   H73   S    
Cr5   O23   S    
C15   C90   S    
C105  H46   S    
C112  H63   S    
C42   H6    S    
C19   O18   A    
C121  H102  S    
C66   C75   A    
C13   C88   S    
Cr2   O8    S    
O33   C115  S    
C68   C92   S    
C36   O15   A    
Cr3   O16   S    
Cr6   O19   S    
C5    O28   S    
C57   C72   A    
C63   H9    S    
O30   C106  S    
C43   C46   A    
C102  H40   S    
C119  C120  S    
C113  H66   S    
C105  H47   S    
Cr4   O17   S    
C65   C74   A    
C67   H79   S    
C103  H42   S    
C84   H87   S    
C68   H80   S    
C8    H110  S    
C25   C76   A    
C103  H43   S    
C110  H58   S    
C43   O30   S    
Cr2   O2    S    
C74   H74   S    
C107  H51   S    
C23   C85   S    
C13   C16   T    
C122  H104  S    
C26   H71   S    
C111  H61   S    
C5    C8    S    
C30   C42   A    
C92   H26   S    
C8    C89   S    
Cr6   O22   S    
Cr1   O16   S    
Cr4   O4    S    
C24   C86   S    
C75   H75   S    
C46   C73   A    
C20   C46   S    
C3    C16   S    
C69   C90   S    
C56   C71   A    
C98   H31   S    
C108  H55   S    
C67   H22   S    
C54   C57   A    
C6    H114  S    
