data_mof_unit_54712.cif
_audit_creation_date              2012-12-11T17:12:42-0500
_audit_creation_method            fapswitch 2.2
_symmetry_space_group_name_H-M    P1
_symmetry_Int_Tables_number       1
_space_group_crystal_system       triclinic
_cell_length_a                    17.337663
_cell_length_b                    6.874264
_cell_length_c                    14.446531
_cell_angle_alpha                 89.996114
_cell_angle_beta                  110.507982
_cell_angle_gamma                 90.003222
_cell_volume                      1612.66936707

loop_
_atom_site_label
_atom_site_type_symbol
_atom_type_description
_atom_site_fract_x
_atom_site_fract_y
_atom_site_fract_z
_atom_type_partial_charge
O1    O     O_R   0.314130 0.635770 0.168990 -0.540308
O2    O     O_R   0.685870 0.364230 0.831010 -0.541478
O3    O     O_R   0.185870 0.135770 0.331010 -0.540439
O4    O     O_R   0.814130 0.864230 0.668990 -0.541361
O5    O     O_R   0.146800 0.302460 0.139760 -0.537663
O6    O     O_R   0.853200 0.697540 0.860240 -0.538238
O7    O     O_R   0.353200 0.802460 0.360240 -0.537535
O8    O     O_R   0.646800 0.197540 0.639760 -0.538340
C1    C     C_R   0.114003 0.475852 0.112713 0.748230
C2    C     C_R   0.885987 0.524147 0.887304 0.748631
C3    C     C_R   0.385999 0.975851 0.387283 0.748035
C4    C     C_R   0.614014 0.024146 0.612693 0.748719
O9    O     O_R   0.311100 0.305780 0.157130 -0.541185
O10   O     O_R   0.688900 0.694220 0.842870 -0.539926
O11   O     O_R   0.188900 0.805780 0.342870 -0.540998
O12   O     O_R   0.811100 0.194220 0.657130 -0.540044
O13   O     O_R   0.351340 0.139640 0.348510 -0.538765
O14   O     O_R   0.648660 0.860360 0.651490 -0.538082
O15   O     O_R   0.148660 0.639640 0.151490 -0.538670
O16   O     O_R   0.851340 0.360360 0.848510 -0.538206
C5    C     C_R   0.334122 0.475663 0.137434 0.712485
C6    C     C_R   0.666009 0.524349 0.862598 0.713377
C7    C     C_R   0.165899 0.975647 0.362570 0.712690
C8    C     C_R   0.834002 0.024359 0.637398 0.713233
C9    C     C_1   0.533581 0.008895 0.533003 -0.145057
C10   C     C_1   0.466436 0.991101 0.466964 -0.148002
C11   C     C_1   0.966421 0.508895 0.966992 -0.145715
C12   C     C_1   0.033566 0.491102 0.033031 -0.147858
O17   O     O_3   0.263010 0.470920 0.312770 -0.370315
O18   O     O_3   0.736990 0.529080 0.687230 -0.370522
O19   O     O_3   0.236990 0.970920 0.187230 -0.370344
O20   O     O_3   0.763010 0.029080 0.812770 -0.370594
V1    V     V_3+5 0.247590 0.194450 0.238360 1.497084
V2    V     V_3+5 0.752410 0.805550 0.761640 1.497810
V3    V     V_3+5 0.252410 0.694450 0.261640 1.497535
V4    V     V_3+5 0.747590 0.305550 0.738360 1.497543
C13   C     C_R   0.114100 0.994926 0.425195 -0.178702
C14   C     C_R   0.885465 0.005544 0.574493 -0.177646
C15   C     C_R   0.385987 0.495057 0.074859 -0.178815
C16   C     C_R   0.614605 0.505635 0.925550 -0.177452
C17   C     C_R   0.923111 0.794912 0.461964 0.421982
C18   C     C_R   0.074548 0.208788 0.535024 0.418051
C19   C     C_R   0.577535 0.296201 0.038985 0.422268
C20   C     C_R   0.425786 0.709220 0.965307 0.417102
C21   C     C_R   0.871306 0.844097 0.512722 -0.144851
C22   C     C_R   0.126579 0.159718 0.484617 -0.144459
C23   C     C_R   0.629239 0.345226 0.988038 -0.145445
C24   C     C_R   0.373775 0.660332 0.015777 -0.143931
C25   C     C_R   0.952842 0.128403 0.583804 -0.074605
C26   C     C_R   0.047683 0.869645 0.417358 -0.075239
C27   C     C_R   0.546929 0.627736 0.915765 -0.074816
C28   C     C_R   0.452271 0.369456 0.082493 -0.075675
C29   C     C_R   0.006592 0.086650 0.529962 0.001871
C30   C     C_R   0.992525 0.913985 0.469102 0.002840
C31   C     C_R   0.493508 0.586639 0.970089 0.001504
C32   C     C_R   0.507708 0.414327 0.031187 0.003090
H1    H     H_    0.177191 0.256979 0.489715 0.168421
H2    H     H_    0.819493 0.749608 0.506022 0.167935
H3    H     H_    0.323381 0.758052 0.010943 0.168464
H4    H     H_    0.681383 0.251532 0.995221 0.167666
C33   C     C_1   0.036454 0.703598 0.352147 0.467080
N1    N     N_1   0.028624 0.571622 0.299796 -0.318289
C34   C     C_1   0.968062 0.285416 0.654938 0.456386
N2    N     N_1   0.979233 0.409931 0.712159 -0.320545
C35   C     C_1   0.462707 0.201637 0.146434 0.469111
N3    N     N_1   0.469875 0.068171 0.197722 -0.317988
C36   C     C_1   0.530746 0.782418 0.843247 0.453981
N4    N     N_1   0.518762 0.905011 0.784891 -0.320805
Cl1   Cl    Cl    0.894591 0.576038 0.394277 -0.612819
Cl2   Cl    Cl    0.098723 0.435239 0.596456 -0.624216
Cl3   Cl    Cl    0.607183 0.079845 0.108567 -0.611736
Cl4   Cl    Cl    0.402376 0.936704 0.904759 -0.625448

loop_
_geom_bond_atom_site_label_1
_geom_bond_atom_site_label_2
_ccdc_geom_bond_type
C2    C11   S    
C16   C23   A    
C31   C32   A    
O1    C5    A    
C25   C34   S    
O3    C7    A    
C14   C25   A    
C29   C30   A    
O7    C3    A    
C26   C30   A    
O20   V4    S    
C18   C29   A    
O8    V4    S    
O4    C8    A    
O3    V1    S    
O17   V1    S    
C18   Cl2   S    
C18   C22   A    
C14   C21   A    
C23   H4    S    
C1    O15   A    
C2    O16   A    
O5    V1    S    
O2    C6    A    
C8    C14   S    
O19   V1    S    
O11   C7    A    
C15   C28   A    
O12   C8    A    
O9    V1    S    
O13   V1    S    
O11   V3    S    
O4    V2    S    
C21   H2    S    
O18   V2    S    
C36   N4    T    
C3    C10   S    
C9    C10   T    
C7    C13   S    
O6    V2    S    
O20   V2    S    
O5    C1    A    
C5    C15   S    
O8    C4    A    
C6    C16   S    
O9    C5    A    
C27   C36   S    
O14   V2    S    
C22   H1    S    
O19   V3    S    
O1    V3    S    
C24   H3    S    
C17   Cl1   S    
O2    V4    S    
C3    O13   A    
C19   Cl3   S    
O7    V3    S    
O10   V2    S    
C16   C27   A    
O17   V3    S    
O18   V4    S    
C4    C9    S    
O10   C6    A    
O15   V3    S    
O12   V4    S    
C13   C26   A    
C20   C31   A    
C25   C29   A    
C20   Cl4   S    
C27   C31   A    
C33   N1    T    
C17   C30   A    
O6    C2    A    
C34   N2    T    
O16   V4    S    
C20   C24   A    
C19   C32   A    
C35   N3    T    
C4    O14   A    
C11   C12   T    
C26   C33   S    
C17   C21   A    
C13   C22   A    
C19   C23   A    
C28   C35   S    
C28   C32   A    
C1    C12   S    
C15   C24   A    
