data_mof_unit_36169.cif
_audit_creation_date              2012-12-11T14:56:47-0500
_audit_creation_method            fapswitch 2.2
_symmetry_space_group_name_H-M    P1
_symmetry_Int_Tables_number       1
_space_group_crystal_system       triclinic
_cell_length_a                    10.519684
_cell_length_b                    10.760165
_cell_length_c                    17.088163
_cell_angle_alpha                 79.89012
_cell_angle_beta                  89.975392
_cell_angle_gamma                 119.507886
_cell_volume                      1648.68945201

loop_
_atom_site_label
_atom_site_type_symbol
_atom_type_description
_atom_site_fract_x
_atom_site_fract_y
_atom_site_fract_z
_atom_type_partial_charge
C1    C     C_R   0.222370 0.853995 0.128602 0.576377
C2    C     C_1   0.687514 0.402806 0.709841 -0.005296
C3    C     C_R   0.637221 0.697556 0.819070 0.063013
C4    C     C_R   0.637783 0.283778 0.084945 0.580264
C5    C     C_R   0.608136 0.672683 0.741680 -0.082845
C6    C     C_R   0.695883 0.786530 0.677126 -0.064520
C7    C     C_R   0.789434 0.927142 0.690530 -0.085833
C8    C     C_R   0.785988 0.959491 0.764892 -0.023457
C9    C     C_R   0.706915 0.842926 0.830356 -0.018396
C10   C     C_R   0.226148 0.971779 0.754390 0.008460
C11   C     C_R   0.243312 0.964064 0.674542 -0.048947
C12   C     C_R   0.800373 0.418295 0.263541 -0.140351
C13   C     C_R   0.185385 0.825613 0.655411 -0.088925
C14   C     C_R   0.160077 0.704490 0.715235 -0.033146
C15   C     C_R   0.165812 0.718455 0.794832 -0.100933
C16   C     C_R   0.643752 0.855753 0.124197 0.553906
C17   C     C_R   0.193035 0.848490 0.815528 -0.036035
C18   C     C_R   0.711877 0.772760 0.353606 0.548801
C19   C     C_R   0.689480 0.396969 0.394108 0.586559
C20   C     C_R   0.103702 0.810677 0.359224 0.547147
C21   C     C_R   0.701890 0.761243 0.596596 0.511358
C22   C     C_R   0.718137 0.446168 0.625777 0.538138
C23   C     C_R   0.795655 0.417071 0.182803 0.024310
C24   C     C_R   0.105801 0.803752 0.583965 0.517243
C25   C     C_R   0.227241 0.867237 0.897190 0.575399
C26   C     C_R   0.640972 0.290942 0.861909 0.593006
C27   C     C_R   0.650039 0.866443 0.900711 0.547294
C28   C     C_R   0.532397 0.332603 0.199603 -0.044115
C29   C     C_R   0.540847 0.336813 0.280463 -0.136523
C30   C     C_R   0.672642 0.372939 0.313112 -0.023650
C31   C     C_2   0.392040 0.304595 0.167035 0.620081
C32   C     C_2   0.313077 0.097744 0.609303 0.646410
C33   C     C_2   0.132383 0.564524 0.696485 0.329885
C34   C     C_R   0.657674 0.358062 0.152158 -0.029731
C35   C     C_2   0.936284 0.475341 0.132819 0.591495
C36   C     C_2   0.593175 0.575178 0.888997 0.587976
C37   C     C_2   0.476710 0.538732 0.728662 0.290380
C38   C     C_2   0.856131 0.115800 0.769013 0.311546
C39   C     C_2   0.243309 0.108433 0.772460 0.658297
C40   C     C_1   0.685648 0.831532 0.201653 -0.012382
C41   C     C_1   0.704297 0.807408 0.270397 -0.022394
C42   C     C_1   0.180411 0.825468 0.211262 -0.004442
C43   C     C_1   0.151346 0.820496 0.279761 -0.008609
C44   C     C_1   0.664787 0.358970 0.780482 0.046863
Cr1   Cr    Cr6+3 0.402240 0.783890 0.019450 1.095439
Cr2   Cr    Cr6+3 0.382360 0.097900 0.991800 1.109160
Cr3   Cr    Cr6+3 0.715380 0.118170 0.988700 1.092033
Cr4   Cr    Cr6+3 0.936650 0.882420 0.465510 1.084532
Cr5   Cr    Cr6+3 0.605770 0.565620 0.493360 1.082967
Cr6   Cr    Cr6+3 0.921340 0.550490 0.496380 1.054466
H1    H     H_    0.150070 0.627766 0.841175 0.205647
H2    H     H_    0.479121 0.484335 0.682181 0.181445
H3    H     H_    0.905412 0.154668 0.821591 0.185584
H4    H     H_    0.155330 0.205241 0.825563 0.374676
H5    H     H_    0.445670 0.315103 0.317602 0.174138
H6    H     H_    0.906295 0.461060 0.287110 0.179392
H7    H     H_    0.857439 0.016306 0.641525 0.204784
H8    H     H_    0.490805 0.481790 0.077868 0.319555
H9    H     H_    0.446572 0.038604 0.562220 0.299797
H10   H     H_    0.163957 0.559108 0.637315 0.146915
H11   H     H_    0.137804 0.496635 0.124724 0.367902
H12   H     H_    0.433158 0.384501 0.954059 0.363564
O1    O     O_R   0.521780 0.757110 0.108900 -0.504028
O2    O     O_R   0.805020 0.410040 0.421340 -0.502420
O3    O     O_R   0.049240 0.685450 0.403290 -0.512855
O4    O     O_R   0.275160 0.783810 0.101120 -0.486342
O5    O     O_R   0.077520 0.903010 0.551800 -0.484033
O6    O     O_R   0.802980 0.872780 0.546830 -0.483621
O7    O     O_R   0.578090 0.681300 0.569920 -0.520348
O8    O     O_R   0.608530 0.436370 0.586530 -0.470110
O9    O     O_R   0.798770 0.401880 0.597100 -0.428095
O10   O     O_R   0.043450 0.677890 0.566230 -0.542312
O11   O     O_3   0.821250 0.666180 0.485090 -0.343690
O12   O     O_R   0.513330 0.228330 0.898660 -0.480831
O13   O     O_R   0.237900 0.972600 0.090980 -0.475863
O14   O     O_R   0.511190 0.220540 0.061620 -0.508698
O15   O     O_R   0.736920 0.257720 0.063840 -0.469173
O16   O     O_R   0.710450 0.984050 0.081720 -0.484398
O17   O     O_R   0.524090 0.765520 0.933110 -0.479050
O18   O     O_R   0.277300 0.791600 0.938160 -0.487020
O19   O     O_R   0.240210 0.981010 0.915190 -0.474079
O20   O     O_2   0.275955 0.203707 0.201906 -0.444257
O21   O     O_R   0.389820 0.395814 0.098648 -0.658426
O22   O     O_2   0.273093 0.187729 0.603459 -0.431279
O23   O     O_R   0.739230 0.266130 0.888050 -0.495898
O24   O     O_R   0.419498 0.117881 0.551691 -0.638022
O25   O     O_2   0.077324 0.453580 0.748117 -0.448457
O26   O     O_2   0.952793 0.538541 0.063488 -0.478989
O27   O     O_R   0.050098 0.458328 0.165349 -0.675163
O28   O     O_2   0.682555 0.582002 0.936275 -0.532685
O29   O     O_R   0.449781 0.457409 0.903393 -0.614199
O30   O     O_2   0.359229 0.493076 0.766900 -0.419306
O31   O     O_2   0.860143 0.204298 0.712093 -0.457841
O32   O     O_2   0.359315 0.221792 0.752747 -0.506980
O33   O     O_R   0.127607 0.106374 0.813746 -0.684042
O34   O     O_R   0.712580 0.991850 0.918770 -0.533170
O35   O     O_3   0.499990 0.999980 0.999980 -0.294735
O36   O     O_R   0.083770 0.911170 0.376030 -0.475586
O37   O     O_R   0.808770 0.880340 0.383890 -0.464873
O38   O     O_R   0.584340 0.689460 0.394160 -0.490714
O39   O     O_R   0.614320 0.443940 0.423590 -0.484085

loop_
_geom_bond_atom_site_label_1
_geom_bond_atom_site_label_2
_ccdc_geom_bond_type
C5    C37   S    
C25   O18   A    
Cr6   O2    S    
C14   C33   S    
Cr2   O14   S    
C26   C44   S    
C7    C8    A    
C12   C23   A    
C24   O10   A    
C31   O20   D    
C8    C38   S    
Cr3   O23   S    
C28   C29   A    
C27   O17   A    
Cr5   O39   S    
C5    C6    A    
C10   C17   A    
C11   C13   A    
C31   O21   S    
Cr6   O10   S    
C24   O5    A    
C2    C44   T    
C8    C9    A    
C2    C22   S    
Cr3   O34   S    
C16   O1    A    
C15   H1    S    
C28   C34   A    
Cr5   O7    S    
C13   C14   A    
C25   O19   A    
C27   O34   A    
C18   O38   A    
Cr2   O13   S    
H11   O27   S    
C32   O22   D    
C4    C34   S    
C1    O13   A    
C20   O3    A    
Cr6   O11   S    
C37   H2    S    
C29   H5    S    
C6    C21   S    
Cr1   O1    S    
C13   C24   S    
C21   O7    A    
C10   C39   S    
Cr6   O9    S    
C39   O32   D    
C29   C30   A    
C3    C9    A    
Cr2   O19   S    
C35   O26   D    
C19   O2    A    
C23   C34   A    
C32   O24   S    
H12   O29   S    
C1    O4    A    
Cr1   O17   S    
Cr4   O6    S    
C39   O33   S    
H4    O33   S    
C12   H6    S    
C16   C40   S    
C35   O27   S    
C36   O29   S    
C40   C41   T    
Cr2   O35   S    
C11   C32   S    
C33   H10   S    
C23   C35   S    
Cr5   O8    S    
C21   O6    A    
Cr5   O11   S    
C18   C41   S    
C42   C43   T    
Cr3   O15   S    
C22   O9    A    
Cr2   O12   S    
C20   C43   S    
C9    C27   S    
C36   O28   D    
C15   C17   A    
Cr4   O37   S    
C37   O30   D    
C12   C30   A    
Cr4   O11   S    
C28   C31   S    
C3    C5    A    
C6    C7    A    
Cr4   O36   S    
Cr3   O35   S    
C17   C25   S    
C33   O25   D    
H9    O24   S    
C4    O15   A    
Cr1   O35   S    
H8    O21   S    
Cr5   O38   S    
C19   O39   A    
C38   H3    S    
C3    C36   S    
C26   O23   A    
C38   O31   D    
C26   O12   A    
C7    H7    S    
Cr1   O18   S    
C16   O16   A    
Cr4   O5    S    
Cr6   O3    S    
C4    O14   A    
C10   C11   A    
C1    C42   S    
C20   O36   A    
C18   O37   A    
Cr1   O4    S    
C14   C15   A    
Cr3   O16   S    
C19   C30   S    
C22   O8    A    
