data_mof_unit_65992.cif
_audit_creation_date              2012-12-10T16:35:48-0500
_audit_creation_method            fapswitch 2.2
_symmetry_space_group_name_H-M    P1
_symmetry_Int_Tables_number       1
_space_group_crystal_system       triclinic
_cell_length_a                    14.25721
_cell_length_b                    16.480586
_cell_length_c                    13.07252
_cell_angle_alpha                 90.000338
_cell_angle_beta                  106.825717
_cell_angle_gamma                 89.99919
_cell_volume                      2940.11633134

loop_
_atom_site_label
_atom_site_type_symbol
_atom_type_description
_atom_site_fract_x
_atom_site_fract_y
_atom_site_fract_z
_atom_type_partial_charge
C1    C     C_R   0.315442 0.844438 0.476939 0.557074
C2    C     C_R   0.685174 0.843674 0.522787 0.536468
C3    C     C_R   0.185176 0.656325 0.522785 0.536504
C4    C     C_R   0.185138 0.343631 0.522860 0.539780
C5    C     C_R   0.546323 0.002665 0.785699 0.524837
C6    C     C_R   0.046331 0.497361 0.785693 0.524787
C7    C     C_R   0.455308 0.999956 0.214787 0.500380
C8    C     C_R   0.955245 0.500039 0.214792 0.500489
C9    C     C_2   0.446505 0.999695 0.100162 -0.014149
C10   C     C_2   0.946326 0.500245 0.100168 -0.013872
C11   C     C_2   0.509845 0.041973 0.060306 -0.071864
C12   C     C_R   0.315464 0.155595 0.476874 0.555373
C13   C     C_2   0.010058 0.458380 0.060420 -0.071607
C14   C     C_2   0.562968 0.010324 0.901946 -0.090411
C15   C     C_2   0.063027 0.489844 0.901945 -0.090312
C16   C     C_2   0.496602 0.045145 0.944274 -0.058389
C17   C     C_2   0.996750 0.455028 0.944383 -0.058371
C18   C     C_2   0.757508 0.220224 0.530938 0.367156
C19   C     C_2   0.758044 0.780383 0.529902 0.362958
C20   C     C_2   0.258060 0.719598 0.529871 0.362985
C21   C     C_2   0.257484 0.279750 0.530981 0.367214
C22   C     C_1   0.410432 0.087389 0.879643 0.282524
C23   C     C_R   0.815464 0.344406 0.476877 0.555374
C24   C     C_1   0.910681 0.412588 0.879867 0.282400
C25   C     C_1   0.592167 0.085892 0.129356 0.242285
C26   C     C_1   0.093004 0.415216 0.129658 0.241813
C27   C     C_1   0.371359 0.948387 0.032256 0.222912
C28   C     C_1   0.870408 0.550853 0.032116 0.222615
C29   C     C_1   0.652598 0.298021 0.376760 0.202165
C30   C     C_1   0.649962 0.698980 0.381703 0.192873
C31   C     C_1   0.149887 0.801107 0.381857 0.192869
C32   C     C_1   0.152720 0.202113 0.376555 0.201985
C33   C     C_R   0.815443 0.655562 0.476937 0.557063
C34   C     C_2   0.240435 0.784824 0.464715 -0.007305
C35   C     C_2   0.240691 0.215482 0.464207 -0.003455
C36   C     C_2   0.740681 0.284531 0.464227 -0.003485
C37   C     C_2   0.740441 0.715183 0.464701 -0.007293
C38   C     C_R   0.685140 0.156367 0.522857 0.539685
F1    F     F_    0.346406 0.711512 0.605305 -0.595889
F2    F     F_    0.344296 0.286110 0.609310 -0.595866
F3    F     F_    0.844382 0.213794 0.609157 -0.595878
F4    F     F_    0.846349 0.788422 0.605416 -0.595963
H1    H     H_    0.630094 0.985087 0.954562 0.127008
H2    H     H_    0.130113 0.515221 0.954470 0.127111
N1    N     N_1   0.341707 0.121166 0.828294 -0.194874
N2    N     N_1   0.082669 0.191179 0.306442 -0.213038
N3    N     N_1   0.842043 0.378652 0.828614 -0.194890
N4    N     N_1   0.657831 0.120972 0.184465 -0.248479
N5    N     N_1   0.159175 0.380759 0.184922 -0.248701
N6    N     N_1   0.311384 0.907399 0.978040 -0.217528
N7    N     N_1   0.809777 0.591251 0.977772 -0.217441
N8    N     N_1   0.582456 0.309053 0.306797 -0.212681
N9    N     N_1   0.577893 0.685742 0.315334 -0.220031
N10   N     N_1   0.077761 0.814409 0.315603 -0.220169
O1    O     O_3   0.500010 1.000000 0.500000 -0.485242
O2    O     O_R   0.103010 0.337110 0.452470 -0.563708
O3    O     O_R   0.316670 0.095240 0.537470 -0.518093
O4    O     O_R   0.316670 0.904760 0.537470 -0.519932
O5    O     O_R   0.816670 0.595240 0.537470 -0.519870
O6    O     O_R   0.816670 0.404760 0.537470 -0.518161
O7    O     O_R   0.703490 0.904800 0.585920 -0.480313
O8    O     O_R   0.703490 0.095200 0.585920 -0.481870
O9    O     O_R   0.203490 0.404800 0.585920 -0.481823
O10   O     O_R   0.203490 0.595200 0.585920 -0.480285
O11   O     O_R   0.458050 1.000000 0.725250 -0.515435
O12   O     O_3   0.000010 0.500000 0.500000 -0.485255
O13   O     O_R   0.958050 0.500000 0.725250 -0.515423
O14   O     O_R   0.461630 0.932310 0.264690 -0.529276
O15   O     O_R   0.461630 0.067690 0.264690 -0.524351
O16   O     O_R   0.961630 0.432310 0.264690 -0.524370
O17   O     O_R   0.961630 0.567690 0.264690 -0.529287
O18   O     O_R   0.618750 1.000000 0.745380 -0.519210
O19   O     O_R   0.118750 0.500000 0.745380 -0.519231
O20   O     O_R   0.376880 0.837120 0.424150 -0.517150
O21   O     O_R   0.376880 0.162880 0.424150 -0.517968
O22   O     O_R   0.876880 0.337120 0.424150 -0.517929
O23   O     O_R   0.876880 0.662880 0.424150 -0.517242
O24   O     O_R   0.603010 0.162890 0.452470 -0.563697
O25   O     O_R   0.603010 0.837110 0.452470 -0.567492
O26   O     O_R   0.103010 0.662890 0.452470 -0.567488
Zn1   Zn    Zn3+2 0.485630 0.096680 0.411850 0.999765
Zn2   Zn    Zn3+2 0.485630 0.903320 0.411850 0.995033
Zn3   Zn    Zn3+2 0.985630 0.596680 0.411850 0.995024
Zn4   Zn    Zn3+2 0.985630 0.403320 0.411850 0.999826
Zn5   Zn    Zn3+2 0.399590 1.000000 0.573760 1.022205
Zn6   Zn    Zn3+2 0.899590 0.500000 0.573760 1.022207
Zn7   Zn    Zn3+2 0.629190 1.000000 0.602520 1.040593
Zn8   Zn    Zn3+2 0.129190 0.500000 0.602520 1.040703

loop_
_geom_bond_atom_site_label_1
_geom_bond_atom_site_label_2
_ccdc_geom_bond_type
O9    Zn8   S    
O24   Zn1   S    
C23   O22   A    
O22   Zn4   S    
C3    O10   A    
C4    O9    A    
C1    O20   A    
C15   H2    S    
C5    O18   A    
O12   Zn8   S    
C28   N7    T    
O23   Zn3   S    
C15   C17   D    
C2    O25   A    
C19   C37   D    
O12   Zn3   S    
C8    O17   A    
O1    Zn1   S    
O16   Zn4   S    
C2    O7    A    
C20   C34   D    
C7    O14   A    
C33   O5    A    
C4    O2    A    
O20   Zn2   S    
O26   Zn3   S    
C3    O26   A    
C1    C34   S    
O2    Zn4   S    
O17   Zn3   S    
C23   O6    A    
C30   N9    T    
C17   C24   S    
C32   C35   S    
C5    O11   A    
C26   N5    T    
C20   F1    S    
O6    Zn6   S    
O21   Zn1   S    
C38   O24   A    
C33   C37   S    
C30   C37   S    
C12   C35   S    
O1    Zn5   S    
O19   Zn8   S    
O12   Zn6   S    
C11   C16   S    
C29   C36   S    
C6    C15   S    
C31   C34   S    
C3    C20   S    
O1    Zn2   S    
C9    C11   D    
C25   N4    T    
C5    C14   S    
C12   O3    A    
C6    O13   A    
C14   C16   D    
C13   C26   S    
C18   F3    S    
O4    Zn5   S    
O18   Zn7   S    
C9    C27   S    
C6    O19   A    
O7    Zn7   S    
C10   C28   S    
C7    C9    S    
O13   Zn6   S    
C16   C22   S    
C2    C19   S    
C24   N3    T    
C32   N2    T    
C10   C13   D    
C7    O15   A    
O25   Zn2   S    
C27   N6    T    
O11   Zn5   S    
C21   C35   D    
O8    Zn7   S    
C8    O16   A    
C13   C17   S    
O14   Zn2   S    
C18   C38   S    
O5    Zn6   S    
C1    O4    A    
C4    C21   S    
C19   F4    S    
C33   O23   A    
C21   F2    S    
O3    Zn5   S    
C31   N10   T    
O1    Zn7   S    
O15   Zn1   S    
O12   Zn4   S    
C22   N1    T    
C8    C10   S    
C23   C36   S    
C12   O21   A    
C11   C25   S    
C18   C36   D    
O10   Zn8   S    
C14   H1    S    
C38   O8    A    
C29   N8    T    
