data_mof_unit_26939.cif
_audit_creation_date              2012-12-10T16:49:28-0500
_audit_creation_method            fapswitch 2.2
_symmetry_space_group_name_H-M    P1
_symmetry_Int_Tables_number       1
_space_group_crystal_system       triclinic
_cell_length_a                    19.219815
_cell_length_b                    8.66233
_cell_length_c                    7.565307
_cell_angle_alpha                 102.565814
_cell_angle_beta                  95.418968
_cell_angle_gamma                 93.724488
_cell_volume                      1219.12373344

loop_
_atom_site_label
_atom_site_type_symbol
_atom_type_description
_atom_site_fract_x
_atom_site_fract_y
_atom_site_fract_z
_atom_type_partial_charge
C1    C     C_R   0.496650 0.200225 0.453960 0.871135
C2    C     C_R   0.503349 0.799775 0.546040 0.871131
C3    C     C_2   0.490765 0.031968 0.430090 -0.374323
C4    C     C_2   0.509235 0.968032 0.569910 -0.374331
C5    C     C_R   0.368038 0.498557 0.500319 0.815184
C6    C     C_R   0.631962 0.501441 0.499681 0.815191
C7    C     C_R   0.259819 0.635403 0.544644 0.133409
C8    C     C_R   0.740182 0.364607 0.455261 0.133424
C9    C     C_R   0.187396 0.629524 0.548574 -0.192978
C10   C     C_R   0.812604 0.370500 0.451303 -0.192972
C11   C     C_R   0.146523 0.484293 0.513981 -0.025642
C12   C     C_R   0.853476 0.515749 0.485965 -0.025674
C13   C     C_R   0.178623 0.339393 0.478967 0.194822
C14   C     C_R   0.821373 0.660650 0.521072 0.194829
C15   C     C_R   0.251895 0.343856 0.465870 0.125076
C16   C     C_R   0.748101 0.656165 0.534184 0.125064
C17   C     C_R   0.291942 0.492566 0.501568 -0.066412
C18   C     C_R   0.708058 0.507443 0.498429 -0.066443
C19   C     C_R   0.929878 0.510297 0.491308 0.418627
C20   C     C_R   0.070122 0.489752 0.508626 0.418613
Cu1   Cu    Cu3+1 0.507710 0.517380 0.684380 0.937811
Cu2   Cu    Cu3+1 0.492290 0.482620 0.315620 0.937808
H1    H     H_    0.162234 0.739447 0.576007 0.162367
H2    H     H_    0.837767 0.260574 0.423794 0.162371
H3    H     H_    0.469405 0.960780 0.297549 0.164254
H4    H     H_    0.530595 0.039220 0.702451 0.164255
N1    N     N_R   0.026666 0.399382 0.366877 -0.220923
N2    N     N_R   0.973334 0.600670 0.633057 -0.220926
N3    N     N_R   0.957675 0.408577 0.359106 -0.232812
N4    N     N_R   0.042325 0.591476 0.640826 -0.232799
N5    N     N_2   0.480680 0.456420 0.038530 -0.052262
N6    N     N_2   0.519320 0.543580 0.961470 -0.052262
O1    O     O_R   0.505010 0.286130 0.619770 -0.591700
O2    O     O_R   0.494990 0.713870 0.380230 -0.591702
O3    O     O_R   0.491990 0.256780 0.308370 -0.596556
O4    O     O_R   0.508010 0.743220 0.691630 -0.596552
O5    O     O_R   0.406650 0.514660 0.655750 -0.587814
O6    O     O_R   0.593350 0.485340 0.344250 -0.587818
O7    O     O_R   0.393640 0.485310 0.344340 -0.575041
O8    O     O_R   0.606360 0.514690 0.655660 -0.575039
C21   C     C_3   0.302047 0.794592 0.583087 -0.863891
H5    H     H_    0.329219 0.806321 0.462846 0.233495
H6    H     H_    0.268426 0.894542 0.613333 0.228123
H7    H     H_    0.341714 0.805388 0.702736 0.238808
C22   C     C_3   0.697955 0.205404 0.416740 -0.863881
H8    H     H_    0.670785 0.193611 0.536968 0.233465
H9    H     H_    0.658286 0.194654 0.297104 0.238825
H10   H     H_    0.731577 0.105462 0.386435 0.228118
C23   C     C_3   0.136598 0.182347 0.466548 -0.820764
H11   H     H_    0.163399 0.115732 0.558996 0.224932
H12   H     H_    0.083643 0.195857 0.510983 0.240527
H13   H     H_    0.131027 0.110971 0.324258 0.241866
C24   C     C_3   0.863394 0.817730 0.533564 -0.820704
H14   H     H_    0.836587 0.884392 0.441173 0.224905
H15   H     H_    0.868972 0.889055 0.675888 0.241868
H16   H     H_    0.916345 0.804253 0.489094 0.240521
C25   C     C_3   0.288931 0.193044 0.417060 -0.882593
H17   H     H_    0.318555 0.196751 0.298744 0.231611
H18   H     H_    0.326236 0.183241 0.534608 0.217081
H19   H     H_    0.253187 0.082922 0.377438 0.247172
C26   C     C_3   0.711061 0.806968 0.583054 -0.882550
H20   H     H_    0.681447 0.803231 0.701380 0.231617
H21   H     H_    0.746799 0.917101 0.622677 0.247172
H22   H     H_    0.673747 0.816784 0.465530 0.217063
C27   C     C_3   0.446907 0.305723 0.937221 -0.346662
H23   H     H_    0.410336 0.260113 0.022641 0.154905
H24   H     H_    0.413775 0.315378 0.814276 0.186632
H25   H     H_    0.486440 0.218975 0.910435 0.162537
C28   C     C_3   0.553093 0.694277 0.062780 -0.346658
H26   H     H_    0.589663 0.739888 0.977358 0.154900
H27   H     H_    0.513561 0.781025 0.089567 0.162538
H28   H     H_    0.586226 0.684623 0.185723 0.186633

loop_
_geom_bond_atom_site_label_1
_geom_bond_atom_site_label_2
_ccdc_geom_bond_type
C15   C25   S    
C28   H28   S    
C2    C4    S    
C6    O6    A    
C24   H14   S    
N6    C28   S    
Cu2   O3    S    
C20   N1    A    
C5    O5    A    
N1    N3    A    
C9    C11   A    
C21   H5    S    
C4    H4    S    
N5    N6    D    
C13   C15   A    
C3    H3    S    
C5    O7    A    
C23   H13   S    
C2    O2    A    
N2    N4    A    
C1    O1    A    
Cu1   O4    S    
C20   N4    A    
Cu1   Cu2   S    
C26   H22   S    
C19   N2    A    
C21   H6    S    
C25   H17   S    
C28   H26   S    
Cu1   O8    S    
C10   C12   A    
C26   H21   S    
C13   C23   S    
Cu2   O7    S    
C12   C19   S    
C8    C10   A    
Cu1   N6    S    
C12   C14   A    
C27   H23   S    
C6    O8    A    
C24   H15   S    
C26   H20   S    
C6    C18   S    
C21   H7    S    
C14   C16   A    
C11   C20   S    
C25   H18   S    
Cu1   O1    S    
C16   C26   S    
C2    O4    A    
C3    C4    D    
C19   N3    A    
C7    C9    A    
C11   C13   A    
C27   H25   S    
C5    C17   S    
C1    O3    A    
Cu1   O5    S    
C28   H27   S    
C23   H11   S    
Cu2   N5    S    
C22   H9    S    
C24   H16   S    
C1    C3    S    
C15   C17   A    
Cu2   O2    S    
N5    C27   S    
C8    C22   S    
C9    H1    S    
C25   H19   S    
C22   H10   S    
C10   H2    S    
C22   H8    S    
C14   C24   S    
C16   C18   A    
C8    C18   A    
C27   H24   S    
C7    C21   S    
C23   H12   S    
C7    C17   A    
Cu2   O6    S    
