data_mof_unit_44458.cif
_audit_creation_date              2012-12-10T16:56:28-0500
_audit_creation_method            fapswitch 2.2
_symmetry_space_group_name_H-M    P1
_symmetry_Int_Tables_number       1
_space_group_crystal_system       triclinic
_cell_length_a                    7.78041
_cell_length_b                    8.45267
_cell_length_c                    15.730049
_cell_angle_alpha                 91.049136
_cell_angle_beta                  85.391393
_cell_angle_gamma                 93.633809
_cell_volume                      1028.98176787

loop_
_atom_site_label
_atom_site_type_symbol
_atom_type_description
_atom_site_fract_x
_atom_site_fract_y
_atom_site_fract_z
_atom_type_partial_charge
C1    C     C_R   0.546246 0.794193 0.509686 0.949547
C2    C     C_3   0.388164 0.384530 0.030140 -0.039780
C3    C     C_1   0.504693 0.499240 0.750407 -0.057043
C4    C     C_1   0.495353 0.500889 0.249543 -0.070481
C5    C     C_3   0.340823 0.523596 0.975529 -0.323925
C6    C     C_3   0.659404 0.476443 0.024338 -0.326684
C7    C     C_3   0.504977 0.498867 0.916269 0.148226
C8    C     C_3   0.495230 0.501181 0.083613 0.148661
C9    C     C_1   0.505856 0.498742 0.825500 0.098289
C10   C     C_1   0.494258 0.501347 0.174422 0.100894
C11   C     C_2   0.739123 0.746114 0.938084 0.402035
C12   C     C_R   0.455766 0.206689 0.514648 0.837430
C13   C     C_2   0.261056 0.253909 0.061687 0.400695
C14   C     C_2   0.392817 0.798393 0.060905 0.395927
C15   C     C_2   0.607348 0.201688 0.938824 0.391875
C16   C     C_2   0.754285 0.019932 0.549530 0.558226
C17   C     C_2   0.267029 0.993559 0.591451 0.564172
C18   C     C_R   0.501548 0.500090 0.661877 0.844546
C19   C     C_R   0.498481 0.500066 0.338129 0.901822
C20   C     C_2   0.574135 0.956723 0.536434 -0.225714
C21   C     C_2   0.436201 0.047322 0.546515 -0.352800
C22   C     C_3   0.449950 0.639947 0.029841 -0.031140
C23   C     C_3   0.550269 0.360097 0.970014 -0.030288
C24   C     C_3   0.612055 0.615509 0.969719 -0.038063
F1    F     F_    0.029633 0.356546 0.423722 -0.533974
F2    F     F_    0.970112 0.642218 0.576910 -0.515356
H1    H     H_    0.789440 0.457276 0.045203 0.167365
H2    H     H_    0.210801 0.542763 0.954643 0.167849
H3    H     H_    0.806471 0.819900 0.983493 0.062394
H4    H     H_    0.193836 0.180131 0.016227 0.061777
H5    H     H_    0.364425 0.885693 0.015179 0.058968
H6    H     H_    0.635880 0.114313 0.984478 0.060316
H7    H     H_    0.775410 0.117000 0.594441 0.070099
H8    H     H_    0.152682 0.056290 0.582803 0.115689
N1    N     N_2   0.950320 0.457950 0.477300 0.249109
N2    N     N_2   0.049680 0.542050 0.522700 0.268110
O1    O     O_R   0.389250 0.738570 0.505570 -0.586329
O2    O     O_2   0.232630 0.229633 0.137879 -0.505377
O3    O     O_2   0.378095 0.830170 0.136998 -0.524852
O4    O     O_2   0.621852 0.170022 0.862711 -0.541735
O5    O     O_2   0.879212 0.966469 0.509642 -0.511222
O6    O     O_2   0.256504 0.886211 0.642922 -0.501681
O7    O     O_R   0.610750 0.261430 0.494430 -0.616955
O8    O     O_R   0.678390 0.711630 0.491020 -0.553361
O9    O     O_R   0.321610 0.288370 0.508980 -0.591216
O10   O     O_R   0.355460 0.513480 0.630490 -0.596947
O11   O     O_R   0.644540 0.486520 0.369510 -0.596785
O12   O     O_R   0.644600 0.486540 0.615950 -0.595116
O13   O     O_R   0.355400 0.513460 0.384050 -0.557899
O14   O     O_2   0.767366 0.770372 0.861879 -0.509152
Zn1   Zn    Zn3+2 0.306940 0.517990 0.509710 1.162775
Zn2   Zn    Zn3+2 0.693060 0.482010 0.490290 1.147078

loop_
_geom_bond_atom_site_label_1
_geom_bond_atom_site_label_2
_ccdc_geom_bond_type
C8    C22   S    
O11   Zn2   S    
C3    C9    T    
C16   H7    S    
C5    H2    S    
C19   O13   A    
C1    O8    A    
N1    N2    D    
C1    O1    A    
C14   H5    S    
C16   C20   S    
C6    C24   S    
C15   O4    D    
O8    Zn2   S    
C15   C23   S    
C15   H6    S    
C11   O14   D    
C14   C22   S    
C13   O2    D    
N2    Zn1   S    
F1    N1    S    
C7    C23   S    
C6    C23   S    
C18   O10   A    
F2    N2    S    
C12   O7    A    
C22   C24   S    
C2    C23   S    
O1    Zn1   S    
C19   O11   A    
O7    Zn2   S    
C2    C5    S    
C17   H8    S    
O9    Zn1   S    
C16   O5    D    
C4    C10   T    
C7    C24   S    
C12   C21   S    
C7    C9    S    
C11   C24   S    
O12   Zn2   S    
C20   C21   D    
C11   H3    S    
C3    C18   S    
C8    C10   S    
N1    Zn2   S    
C5    C7    S    
C2    C13   S    
C17   O6    D    
C1    C20   S    
C6    C8    S    
C14   O3    D    
C13   H4    S    
C4    C19   S    
O10   Zn1   S    
C2    C8    S    
C5    C22   S    
C6    H1    S    
C18   O12   A    
C12   O9    A    
O13   Zn1   S    
C17   C21   S    
