data_mof_unit_6886.cif
_audit_creation_date              2012-10-26T20:51:14-0400
_audit_creation_method            fapswitch 2.2
_symmetry_space_group_name_H-M    P1
_symmetry_Int_Tables_number       1
_space_group_crystal_system       triclinic
_cell_length_a                    12.978333
_cell_length_b                    10.852747
_cell_length_c                    9.559776
_cell_angle_alpha                 90.445241
_cell_angle_beta                  95.996422
_cell_angle_gamma                 91.315591
_cell_volume                      1338.70934156

loop_
_atom_site_label
_atom_site_type_symbol
_atom_type_description
_atom_site_fract_x
_atom_site_fract_y
_atom_site_fract_z
_atom_type_partial_charge
C1    C     C_R   0.500518 0.262193 0.499036 0.584421
C2    C     C_R   0.485554 0.931762 0.370178 -0.122666
C3    C     C_R   0.492704 0.869947 0.498816 -0.021346
C4    C     C_R   0.300646 0.494492 0.473644 0.552720
C5    C     C_R   0.489490 0.937344 0.622461 -0.026421
C6    C     C_3   0.556700 0.931976 0.758788 -0.223130
C7    C     C_3   0.561085 0.072163 0.756964 -0.009386
C8    C     C_R   0.558621 0.585051 0.082375 0.160405
C9    C     C_R   0.434712 0.424985 0.065939 0.050425
C10   C     C_R   0.433663 0.424709 0.917730 0.189847
C11   C     C_R   0.558765 0.584734 0.935128 0.109897
C12   C     C_R   0.026528 0.516122 0.553930 -0.019618
C13   C     C_3   0.673501 0.601896 0.945072 -0.246148
C14   C     C_3   0.673674 0.602532 0.103928 -0.041273
C15   C     C_R   0.499741 0.737368 0.500386 0.555234
C16   C     C_R   0.699034 0.496887 0.525948 0.580771
C17   C     C_R   0.811441 0.494835 0.539829 -0.024365
C18   C     C_R   0.187991 0.477828 0.458427 -0.035229
C19   C     C_R   0.025520 0.401767 0.330687 0.303454
C20   C     C_R   0.135035 0.411936 0.343781 0.281232
C21   C     C_R   0.133695 0.528731 0.561504 -0.155287
C22   C     C_3   0.989055 0.256059 0.151190 -0.039169
C23   C     C_R   0.971462 0.447694 0.441144 -0.014136
C24   C     C_3   0.020593 0.765705 0.741273 -0.106285
C25   C     C_3   0.229609 0.249457 0.284583 -0.124017
C26   C     C_3   0.432439 0.062785 0.122900 -0.129368
C27   C     C_R   0.863431 0.428964 0.442222 0.105558
C28   C     C_R   0.866288 0.564213 0.647393 -0.114221
C29   C     C_R   0.973605 0.574200 0.656531 0.290956
C30   C     C_R   0.492629 0.063861 0.620578 -0.012346
C31   C     C_R   0.494844 0.128198 0.494789 0.043287
C32   C     C_R   0.484628 0.061417 0.365269 0.258812
Cu1   Cu    Cu3+1 0.499990 0.499980 0.640670 0.997264
Cu2   Cu    Cu3+1 0.500010 0.500020 0.359330 1.031820
H1    H     H_    0.631981 0.887920 0.747807 0.167119
H2    H     H_    0.513927 0.894105 0.844317 0.123459
H3    H     H_    0.999886 0.187521 0.237205 0.108511
H4    H     H_    0.054692 0.257418 0.085731 0.179519
H5    H     H_    0.920132 0.224367 0.080521 0.174683
H6    H     H_    0.051234 0.789632 0.640077 0.117300
H7    H     H_    0.068969 0.816480 0.826400 0.155537
H8    H     H_    0.939737 0.797512 0.741598 0.133764
H9    H     H_    0.171317 0.188331 0.328641 0.086406
H10   H     H_    0.297502 0.262107 0.363996 0.146127
H11   H     H_    0.255412 0.201080 0.192453 0.143008
H12   H     H_    0.521374 0.114514 0.842091 0.153497
H13   H     H_    0.411768 0.130953 0.040059 0.150090
H14   H     H_    0.358762 0.018256 0.148962 0.092650
H15   H     H_    0.483167 0.994855 0.078504 0.140724
H16   H     H_    0.383637 0.362939 0.115432 0.169842
H17   H     H_    0.712628 0.520490 0.905689 0.168569
H18   H     H_    0.696713 0.691559 0.901027 0.143059
H19   H     H_    0.713642 0.522189 0.153872 0.191138
H20   H     H_    0.825683 0.612135 0.724079 0.129401
H21   H     H_    0.175885 0.580629 0.647394 0.196892
H22   H     H_    0.486043 0.878816 0.274098 0.153106
I1    I     I_    0.779692 0.279263 0.328309 -0.244385
I2    I     I_    0.714595 0.145457 0.740105 -0.338748
I3    I     I_    0.323279 0.299594 0.811439 -0.403255
I4    I     I_    0.718668 0.777328 0.199596 -0.364676
N1    N     N_R   0.500660 0.500930 0.148010 -0.255334
N2    N     N_R   0.500660 0.500890 0.852110 -0.224665
O1    O     O_R   0.500000 0.319640 0.618810 -0.476277
O2    O     O_3   0.027076 0.638355 0.768165 -0.547190
O3    O     O_3   0.189247 0.364165 0.239599 -0.546831
O4    O     O_3   0.486522 0.125222 0.239265 -0.529268
O5    O     O_R   0.500010 0.319680 0.381230 -0.451364
O6    O     O_R   0.348990 0.499960 0.599490 -0.489346
O7    O     O_R   0.349000 0.500000 0.361910 -0.471982
O8    O     O_R   0.499990 0.680320 0.618770 -0.506257
O9    O     O_R   0.500000 0.680360 0.381190 -0.499102
O10   O     O_R   0.651000 0.500000 0.638090 -0.507597
O11   O     O_R   0.651010 0.500040 0.400510 -0.476358
O12   O     O_3   0.970448 0.375780 0.200499 -0.523460

loop_
_geom_bond_atom_site_label_1
_geom_bond_atom_site_label_2
_ccdc_geom_bond_type
C12   C29   A    
C18   C21   A    
C24   H8    S    
C19   C20   A    
C16   O10   A    
C11   N2    A    
C25   H9    S    
C12   C23   A    
C9    N1    A    
C28   C29   A    
C5    C6    S    
C22   H4    S    
C1    C31   S    
C6    H1    S    
C2    C32   A    
Cu1   O10   S    
C1    O5    A    
C13   H17   S    
C16   C17   S    
C23   C27   A    
C9    C10   A    
C7    I2    S    
C26   H14   S    
C8    N1    A    
C4    C18   S    
C29   O2    S    
C24   O2    S    
C7    C30   S    
C13   C14   S    
C24   H7    S    
C10   N2    A    
C1    O1    A    
C25   H10   S    
C4    O7    A    
C16   O11   A    
C17   C27   A    
C7    H12   S    
C20   O3    S    
C25   O3    S    
C27   I1    S    
C26   H15   S    
C21   H21   S    
C28   H20   S    
Cu1   N2    S    
C22   H3    S    
C4    O6    A    
C12   C21   A    
Cu2   N1    S    
C26   O4    S    
C19   C23   A    
C13   H18   S    
C31   C32   A    
Cu1   O1    S    
Cu1   Cu2   S    
Cu2   O7    S    
C26   H13   S    
Cu1   O8    S    
C22   O12   S    
C25   H11   S    
C3    C15   S    
C32   O4    S    
C5    C30   A    
C14   I4    S    
C15   O8    A    
C8    C14   S    
C17   C28   A    
C19   O12   S    
C9    H16   S    
C3    C5    A    
Cu2   O5    S    
C6    C7    S    
C15   O9    A    
C2    C3    A    
C2    H22   S    
C11   C13   S    
C30   C31   A    
C8    C11   A    
C22   H5    S    
C24   H6    S    
C6    H2    S    
C10   I3    S    
C18   C20   A    
Cu2   O11   S    
C14   H19   S    
Cu2   O9    S    
Cu1   O6    S    
