data_mof_unit_52661.cif
_audit_creation_date              2012-10-26T20:37:59-0400
_audit_creation_method            fapswitch 2.2
_symmetry_space_group_name_H-M    P1
_symmetry_Int_Tables_number       1
_space_group_crystal_system       triclinic
_cell_length_a                    9.840932
_cell_length_b                    11.037878
_cell_length_c                    13.004819
_cell_angle_alpha                 89.851572
_cell_angle_beta                  75.525942
_cell_angle_gamma                 110.805421
_cell_volume                      1272.06540354

loop_
_atom_site_label
_atom_site_type_symbol
_atom_type_description
_atom_site_fract_x
_atom_site_fract_y
_atom_site_fract_z
_atom_type_partial_charge
C1    C     C_R   0.439800 0.254046 0.507748 0.560516
C2    C     C_R   0.699563 0.587355 0.999517 -0.122082
C3    C     C_R   0.310595 0.422221 0.890988 0.263289
C4    C     C_R   0.689404 0.577780 0.109012 0.263292
C5    C     C_R   0.582684 0.538138 0.854765 -0.182022
C6    C     C_R   0.417316 0.461859 0.145235 -0.182023
C7    C     C_R   0.570942 0.531612 0.963388 -0.009369
C8    C     C_R   0.429059 0.468384 0.036611 -0.009370
C9    C     C_2   0.405892 0.114854 0.511980 -0.123109
C10   C     C_2   0.594108 0.885146 0.488020 -0.123109
C11   C     C_2   0.517030 0.069551 0.497982 -0.161476
C12   C     C_R   0.560199 0.745953 0.492251 0.560517
C13   C     C_2   0.482969 0.930449 0.502017 -0.161476
C14   C     C_3   0.935353 0.597499 0.094115 -0.005626
C15   C     C_3   0.040652 0.610177 0.164758 -0.367244
C16   C     C_3   0.064649 0.402514 0.905884 -0.005619
C17   C     C_3   0.959324 0.389796 0.835255 -0.367242
C18   C     C_2   0.083108 0.513327 0.493103 -0.038009
C19   C     C_2   0.916892 0.486672 0.506897 -0.038010
C20   C     C_R   0.472168 0.492670 0.702987 0.568480
C21   C     C_R   0.527832 0.507330 0.297013 0.568483
C22   C     C_R   0.545828 0.516393 0.182017 0.015495
C23   C     C_R   0.454171 0.483606 0.817983 0.015491
C24   C     C_R   0.300437 0.412643 0.000483 -0.122079
Cu1   Cu    Cu3+1 0.647370 0.522180 0.481340 0.957532
Cu2   Cu    Cu3+1 0.352630 0.477820 0.518660 0.957536
H1    H     H_    0.307654 0.413362 0.201308 0.129542
H2    H     H_    0.165589 0.592933 0.435560 0.146842
H3    H     H_    0.949831 0.633640 0.402485 0.203920
H4    H     H_    0.050169 0.366360 0.597514 0.203920
H5    H     H_    0.001204 0.662066 0.018941 0.126594
H6    H     H_    0.894208 0.493896 0.076465 0.106822
H7    H     H_    0.982052 0.537471 0.235768 0.159554
H8    H     H_    0.141888 0.591345 0.119872 0.090104
H9    H     H_    0.077158 0.709792 0.190669 0.160660
H10   H     H_    0.105801 0.506128 0.923507 0.106835
H11   H     H_    0.998813 0.337971 0.981074 0.126579
H12   H     H_    0.692347 0.586635 0.798692 0.129542
H13   H     H_    0.922825 0.290172 0.809361 0.160671
H14   H     H_    0.858087 0.408620 0.880145 0.090109
H15   H     H_    0.017899 0.462486 0.764233 0.159536
H16   H     H_    0.192641 0.361223 0.057413 0.098477
H17   H     H_    0.807359 0.638775 0.942588 0.098476
H18   H     H_    0.365985 0.864764 0.516586 0.154280
H19   H     H_    0.634015 0.135236 0.483414 0.154279
H20   H     H_    0.710894 0.951136 0.473429 0.104372
H21   H     H_    0.289106 0.048864 0.526571 0.104372
H22   H     H_    0.834411 0.407067 0.564440 0.146842
N1    N     N_2   0.131210 0.444490 0.546730 -0.355060
N2    N     N_2   0.868790 0.555510 0.453270 -0.355062
O1    O     O_R   0.578710 0.332530 0.490040 -0.505493
O2    O     O_3   0.184514 0.363745 0.853206 -0.532451
O3    O     O_R   0.421290 0.667470 0.509960 -0.505492
O4    O     O_R   0.329810 0.295070 0.521560 -0.487195
O5    O     O_R   0.670190 0.704930 0.478440 -0.487194
O6    O     O_R   0.604230 0.515670 0.637800 -0.519238
O7    O     O_R   0.395770 0.484330 0.362200 -0.519239
O8    O     O_R   0.355330 0.478200 0.669330 -0.438108
O9    O     O_R   0.644670 0.521800 0.330670 -0.438111
O10   O     O_3   0.815482 0.636261 0.146796 -0.532451

loop_
_geom_bond_atom_site_label_1
_geom_bond_atom_site_label_2
_ccdc_geom_bond_type
C10   H20   S    
C2    C4    A    
C3    O2    S    
Cu1   O1    S    
C21   O7    A    
C2    H17   S    
C4    C22   A    
C16   H11   S    
C15   H8    S    
C3    C23   A    
C6    H1    S    
C5    C23   A    
Cu1   O6    S    
C14   H5    S    
C20   O6    A    
C4    O10   S    
C1    C9    S    
C7    C8    A    
C21   O9    A    
C21   C22   S    
C16   H10   S    
C24   H16   S    
C9    C11   D    
C19   N2    D    
C3    C24   A    
C10   C12   S    
C1    O4    A    
Cu2   O4    S    
C15   H9    S    
C8    C24   A    
H4    N1    S    
C9    H21   S    
H3    N2    S    
C14   C15   S    
Cu2   O7    S    
C17   H15   S    
C11   H19   S    
C12   O5    A    
C20   O8    A    
C6    C22   A    
Cu2   O3    S    
Cu1   O5    S    
C11   C13   S    
C18   H2    S    
C16   O2    S    
C18   C19   S    
C17   H13   S    
Cu2   N1    S    
Cu2   O8    S    
C14   O10   S    
C5    C7    A    
Cu1   N2    S    
C6    C8    A    
C1    O1    A    
Cu1   O9    S    
C2    C7    A    
Cu1   Cu2   S    
C5    H12   S    
C20   C23   S    
C14   H6    S    
C17   H14   S    
C15   H7    S    
C13   H18   S    
C12   O3    A    
C18   N1    D    
C19   H22   S    
C16   C17   S    
C10   C13   D    
