data_mof_unit_67421.cif
_audit_creation_date              2012-10-26T18:25:31-0400
_audit_creation_method            fapswitch 2.2
_symmetry_space_group_name_H-M    P1
_symmetry_Int_Tables_number       1
_space_group_crystal_system       triclinic
_cell_length_a                    7.456348
_cell_length_b                    8.758986
_cell_length_c                    11.132419
_cell_angle_alpha                 89.272318
_cell_angle_beta                  73.865965
_cell_angle_gamma                 102.10753
_cell_volume                      680.934018438

loop_
_atom_site_label
_atom_site_type_symbol
_atom_type_description
_atom_site_fract_x
_atom_site_fract_y
_atom_site_fract_z
_atom_type_partial_charge
C1    C     C_R   0.454349 0.200666 0.504396 0.547142
C2    C     C_2   0.572814 0.964378 0.471873 -0.064406
C3    C     C_2   0.460082 0.691440 0.089324 0.161884
C4    C     C_2   0.736239 0.466563 0.855938 0.317896
C5    C     C_2   0.660617 0.319346 0.106339 0.249162
C6    C     C_2   0.196045 0.445482 0.964116 0.197612
C7    C     C_R   0.267304 0.960879 0.636104 0.036788
C8    C     C_R   0.294195 0.947001 0.755254 -0.059294
C9    C     C_R   0.137045 0.891792 0.859533 -0.096198
C10   C     C_R   0.952871 0.852791 0.845515 -0.118459
C11   C     C_R   0.925662 0.862653 0.726717 -0.074344
C12   C     C_R   0.546347 0.799142 0.495179 0.534584
C13   C     C_R   0.082937 0.915567 0.621868 -0.047041
C14   C     C_R   0.742650 0.036824 0.366384 0.030074
C15   C     C_R   0.916361 0.107103 0.388849 -0.057113
C16   C     C_R   0.084070 0.149094 0.289027 -0.108450
C17   C     C_R   0.079294 0.120125 0.166821 -0.110051
C18   C     C_R   0.906958 0.050001 0.144176 -0.108512
C19   C     C_R   0.739307 0.008305 0.243418 -0.098775
C20   C     C_R   0.425510 0.484255 0.742260 0.587309
C21   C     C_R   0.573190 0.505810 0.259585 0.491442
C22   C     C_2   0.394924 0.476477 0.879154 0.049783
C23   C     C_2   0.596144 0.467122 0.132365 -0.042992
C24   C     C_2   0.547986 0.498007 0.926069 -0.001071
C25   C     C_2   0.532045 0.546424 0.053961 -0.077526
C26   C     C_2   0.431209 0.035736 0.528132 -0.063258
Cu1   Cu    Cu3+1 0.688910 0.517800 0.485820 0.965859
Cu2   Cu    Cu3+1 0.311090 0.482200 0.514180 0.984124
H1    H     H_    0.920394 0.365759 0.587026 0.280647
H2    H     H_    0.782918 0.829799 0.716133 0.141310
H3    H     H_    0.061860 0.922174 0.529910 0.110723
H4    H     H_    0.922074 0.125373 0.483699 0.120868
H5    H     H_    0.218394 0.201382 0.306149 0.163134
H6    H     H_    0.208540 0.152345 0.089511 0.184269
H7    H     H_    0.901688 0.031903 0.049526 0.170548
H8    H     H_    0.606883 0.953370 0.224781 0.128911
H9    H     H_    0.080972 0.630603 0.408518 0.234669
H10   H     H_    0.423727 0.722149 0.185605 0.126491
H11   H     H_    0.867814 0.545218 0.857935 0.138865
H12   H     H_    0.777309 0.300570 0.139998 0.151406
H13   H     H_    0.165961 0.474478 0.061004 0.120005
H14   H     H_    0.435946 0.981797 0.767435 0.152207
H15   H     H_    0.157386 0.881790 0.951540 0.164361
H16   H     H_    0.831529 0.812558 0.926740 0.137376
N1    N     N_2   0.027170 0.455360 0.535550 -0.254714
N2    N     N_2   0.972830 0.544640 0.464450 -0.270694
O1    O     O_R   0.622710 0.286400 0.490790 -0.504612
O2    O     O_2   0.743696 0.344220 0.805443 -0.451919
O3    O     O_2   0.578330 0.215944 0.055482 -0.488699
O4    O     O_2   0.063099 0.376553 0.928119 -0.504298
O5    O     O_R   0.377290 0.713600 0.509210 -0.514398
O6    O     O_R   0.303660 0.256330 0.514730 -0.517262
O7    O     O_R   0.696340 0.743670 0.485270 -0.512949
O8    O     O_R   0.600900 0.509520 0.671740 -0.506182
O9    O     O_R   0.399100 0.490480 0.328260 -0.534004
O10   O     O_R   0.281840 0.479450 0.695690 -0.439917
O11   O     O_R   0.718160 0.520550 0.304310 -0.509088
O12   O     O_2   0.441434 0.779173 0.009740 -0.543220

loop_
_geom_bond_atom_site_label_1
_geom_bond_atom_site_label_2
_ccdc_geom_bond_type
Cu1   O7    S    
C21   O11   A    
C16   H5    S    
C11   C13   A    
C9    C10   A    
C12   O7    A    
C5    C23   S    
C4    H11   S    
C7    C13   A    
C20   O10   A    
C2    C12   S    
C21   C23   S    
C17   C18   A    
Cu2   O10   S    
Cu1   O8    S    
C15   H4    S    
C2    C26   D    
N1    N2    D    
C6    O4    D    
Cu2   O6    S    
C5    O3    D    
C17   H6    S    
C16   C17   A    
C7    C26   S    
C11   H2    S    
C2    C14   S    
C18   H7    S    
C1    O6    A    
Cu2   O9    S    
C8    H14   S    
C19   H8    S    
C23   C25   D    
C4    O2    D    
C1    C26   S    
C4    C24   S    
Cu2   O5    S    
C22   C24   D    
Cu2   N1    S    
C9    H15   S    
C7    C8    A    
C10   C11   A    
C20   C22   S    
C10   H16   S    
C15   C16   A    
C6    C22   S    
C3    O12   D    
C3    C25   S    
C12   O5    A    
C24   C25   S    
Cu1   N2    S    
C20   O8    A    
C18   C19   A    
Cu1   O11   S    
C5    H12   S    
Cu1   O1    S    
Cu1   Cu2   S    
C21   O9    A    
C14   C15   A    
C1    O1    A    
H9    N2    S    
C14   C19   A    
C13   H3    S    
C3    H10   S    
H1    N1    S    
C8    C9    A    
C6    H13   S    
