data_mof_unit_34269.cif
_audit_creation_date              2012-10-26T19:04:19-0400
_audit_creation_method            fapswitch 2.2
_symmetry_space_group_name_H-M    P1
_symmetry_Int_Tables_number       1
_space_group_crystal_system       triclinic
_cell_length_a                    14.527913
_cell_length_b                    16.779266
_cell_length_c                    9.614451
_cell_angle_alpha                 88.861612
_cell_angle_beta                  89.781251
_cell_angle_gamma                 89.979034
_cell_volume                      2343.21300551

loop_
_atom_site_label
_atom_site_type_symbol
_atom_type_description
_atom_site_fract_x
_atom_site_fract_y
_atom_site_fract_z
_atom_type_partial_charge
Br1   Br    Br    0.351868 0.219442 0.207072 -0.429008
Br2   Br    Br    0.493145 0.288293 0.597818 -0.438241
Br3   Br    Br    0.163986 0.346582 0.883342 -0.423404
Br4   Br    Br    0.993135 0.788275 0.597847 -0.438233
Br5   Br    Br    0.864438 0.083295 0.150031 -0.377163
Br6   Br    Br    0.364434 0.583296 0.150034 -0.377172
Br7   Br    Br    0.363881 0.784366 0.207349 -0.444584
Br8   Br    Br    0.851893 0.719459 0.207101 -0.428927
Br9   Br    Br    0.863900 0.284356 0.207358 -0.444562
Br10  Br    Br    0.734555 0.994261 0.697032 -0.347650
Br11  Br    Br    0.234555 0.494265 0.697029 -0.347652
Br12  Br    Br    0.305231 0.987233 0.833845 -0.535686
Br13  Br    Br    0.805234 0.487220 0.833847 -0.535712
Br14  Br    Br    0.664021 0.846568 0.883347 -0.423399
C1    C     C_R   0.384276 0.878083 0.501941 0.566111
C2    C     C_R   0.732459 0.207542 0.379406 -0.071634
C3    C     C_R   0.223896 0.289141 0.387331 -0.071951
C4    C     C_R   0.232451 0.707547 0.379405 -0.071632
C5    C     C_R   0.676028 0.807368 0.509239 0.001366
C6    C     C_R   0.674543 0.194220 0.493562 0.004906
C7    C     C_R   0.176024 0.307366 0.509241 0.001366
C8    C     C_R   0.174538 0.694221 0.493564 0.004909
C9    C     C_R   0.672067 0.030206 0.138089 -0.009326
C10   C     C_R   0.172067 0.530207 0.138090 -0.009326
C11   C     C_R   0.742790 0.070303 0.066141 0.075713
C12   C     C_R   0.381693 0.119585 0.500667 0.593440
C13   C     C_R   0.242789 0.570304 0.066142 0.075716
C14   C     C_R   0.735373 0.085061 0.925829 -0.020945
C15   C     C_R   0.235374 0.585063 0.925831 -0.020948
C16   C     C_R   0.668723 0.042595 0.853286 0.176825
C17   C     C_R   0.168723 0.542599 0.853286 0.176819
C18   C     C_R   0.582921 0.017683 0.922619 0.149578
C19   C     C_R   0.082920 0.517687 0.922618 0.149577
C20   C     C_R   0.583493 0.014794 0.073686 0.091007
C21   C     C_R   0.083493 0.514795 0.073686 0.091009
C22   C     C_R   0.421225 0.993378 0.075181 0.136324
C23   C     C_R   0.884278 0.378082 0.501941 0.566111
C24   C     C_R   0.921225 0.493375 0.075181 0.136332
C25   C     C_R   0.613106 0.122934 0.498270 0.592751
C26   C     C_R   0.612128 0.876594 0.502447 0.582904
C27   C     C_R   0.113105 0.622935 0.498271 0.592760
C28   C     C_R   0.112126 0.376592 0.502448 0.582906
C29   C     C_R   0.421271 0.992284 0.927603 0.231927
C30   C     C_R   0.921273 0.492279 0.927603 0.231934
C31   C     C_R   0.291904 0.173727 0.767928 0.052289
C32   C     C_R   0.286350 0.804693 0.767544 0.024139
C33   C     C_R   0.791871 0.673700 0.767903 0.052276
C34   C     C_R   0.881691 0.619583 0.500667 0.593443
C35   C     C_R   0.786357 0.304688 0.767542 0.024137
C36   C     C_R   0.221064 0.157882 0.861694 -0.092756
C37   C     C_R   0.214190 0.810021 0.864072 -0.132418
C38   C     C_R   0.721018 0.657857 0.861642 -0.092787
C39   C     C_R   0.714194 0.310020 0.864066 -0.132417
C40   C     C_R   0.637035 0.694852 0.842679 0.002592
C41   C     C_R   0.623855 0.301177 0.819922 0.002647
C42   C     C_R   0.137056 0.194849 0.842707 0.002616
C43   C     C_R   0.123851 0.801169 0.819936 0.002626
C44   C     C_R   0.638312 0.763310 0.756228 0.177027
C45   C     C_R   0.291388 0.230636 0.384190 0.167599
C46   C     C_R   0.607564 0.267603 0.689643 0.166574
C47   C     C_R   0.138309 0.263303 0.756236 0.177010
C48   C     C_R   0.107560 0.767595 0.689657 0.166569
C49   C     C_R   0.693804 0.761214 0.633014 0.022507
C50   C     C_R   0.683040 0.245360 0.606749 0.001858
C51   C     C_R   0.193805 0.261214 0.633020 0.022503
C52   C     C_R   0.183035 0.745360 0.606754 0.001860
C53   C     C_R   0.269923 0.207764 0.635004 -0.008755
C54   C     C_R   0.267111 0.785431 0.627390 -0.027203
C55   C     C_R   0.769909 0.707754 0.634993 -0.008765
C56   C     C_R   0.300681 0.766305 0.381113 0.169760
C57   C     C_R   0.767117 0.285427 0.627388 -0.027203
C58   C     C_R   0.315245 0.187570 0.506814 0.037283
C59   C     C_R   0.320875 0.806890 0.506228 0.012891
C60   C     C_R   0.815240 0.687566 0.506811 0.037284
C61   C     C_R   0.820881 0.306886 0.506227 0.012892
C62   C     C_1   0.815451 0.118116 0.854056 0.323289
C63   C     C_1   0.315452 0.618120 0.854060 0.323292
C64   C     C_1   0.382303 0.177234 0.829414 0.344256
C65   C     C_1   0.377875 0.809527 0.822008 0.310798
C66   C     C_1   0.882253 0.677219 0.829426 0.344273
C67   C     C_R   0.791394 0.730640 0.384196 0.167603
C68   C     C_1   0.877883 0.309518 0.822009 0.310800
C69   C     C_1   0.574272 0.687471 0.958169 0.313680
C70   C     C_1   0.550427 0.331571 0.905259 0.310903
C71   C     C_1   0.074301 0.187467 0.958200 0.313705
C72   C     C_1   0.050422 0.831557 0.905278 0.310907
C73   C     C_1   0.334898 0.991942 0.149588 0.320243
C74   C     C_1   0.834899 0.491937 0.149588 0.320238
C75   C     C_1   0.709119 0.996724 0.264101 0.338540
C76   C     C_1   0.209117 0.496725 0.264104 0.338547
C77   C     C_R   0.800691 0.266300 0.381115 0.169760
C78   C     C_R   0.723900 0.789144 0.387333 -0.071953
Cu1   Cu    Cu3+1 0.499990 0.000000 0.640660 1.100024
Cu2   Cu    Cu3+1 0.999990 0.500000 0.640660 1.100027
Cu3   Cu    Cu3+1 0.500010 0.000000 0.359340 1.070918
Cu4   Cu    Cu3+1 0.000010 0.500000 0.359340 1.070919
H1    H     H_    0.235177 0.126811 0.959552 0.168717
H2    H     H_    0.227916 0.828242 0.969628 0.176780
H3    H     H_    0.735109 0.626769 0.959485 0.168708
H4    H     H_    0.727919 0.328238 0.969623 0.176775
H5    H     H_    0.709559 0.821567 0.291352 0.190294
H6    H     H_    0.722564 0.173937 0.286278 0.173392
H7    H     H_    0.209552 0.321562 0.291347 0.190295
H8    H     H_    0.222554 0.673944 0.286272 0.173392
N1    N     N_R   0.501200 0.000000 0.147910 -0.267539
N2    N     N_1   0.950815 0.314576 0.867733 -0.209139
N3    N     N_1   0.526317 0.682435 0.053826 -0.124625
N4    N     N_1   0.491683 0.356281 0.973722 -0.138092
N5    N     N_1   0.026363 0.182440 0.053863 -0.124645
N6    N     N_1   0.991677 0.856263 0.973745 -0.138065
N7    N     N_1   0.265257 0.991038 0.208523 -0.226259
N8    N     N_1   0.765257 0.491033 0.208522 -0.226271
N9    N     N_1   0.748198 0.974272 0.362113 -0.190794
N10   N     N_1   0.248195 0.474273 0.362120 -0.190786
N11   N     N_R   0.001200 0.500000 0.147910 -0.267539
N12   N     N_R   0.501270 1.000000 0.852040 -0.214027
N13   N     N_R   0.001270 0.500000 0.852040 -0.214022
N14   N     N_1   0.880448 0.140455 0.795400 -0.244681
N15   N     N_1   0.380449 0.640460 0.795406 -0.244691
N16   N     N_1   0.453966 0.178436 0.881177 -0.265623
N17   N     N_1   0.450809 0.814590 0.867726 -0.209157
N18   N     N_1   0.953903 0.678434 0.881218 -0.265576
O1    O     O_R   0.409820 0.909830 0.618810 -0.483898
O2    O     O_R   0.590170 0.909830 0.618760 -0.434634
O3    O     O_R   0.090170 0.590170 0.618760 -0.483807
O4    O     O_R   0.090170 0.409830 0.618760 -0.434623
O5    O     O_R   0.590190 0.090180 0.381190 -0.523810
O6    O     O_R   0.590190 0.909820 0.381190 -0.517551
O7    O     O_R   0.090190 0.590180 0.381190 -0.523811
O8    O     O_R   0.090190 0.409820 0.381190 -0.517550
O9    O     O_R   0.409820 0.090170 0.618810 -0.492582
O10   O     O_R   0.909820 0.409830 0.618810 -0.483895
O11   O     O_R   0.909820 0.590170 0.618810 -0.492580
O12   O     O_R   0.409840 0.909830 0.381240 -0.467796
O13   O     O_R   0.409840 0.090170 0.381240 -0.466329
O14   O     O_R   0.909840 0.409830 0.381240 -0.467801
O15   O     O_R   0.909840 0.590170 0.381240 -0.466332
O16   O     O_R   0.590170 0.090170 0.618760 -0.483805

loop_
_geom_bond_atom_site_label_1
_geom_bond_atom_site_label_2
_ccdc_geom_bond_type
C4    C56   A    
C52   C54   A    
C19   N13   A    
C13   C15   A    
C12   C58   S    
Cu1   O2    S    
Br9   C77   S    
Br7   C56   S    
C43   C48   A    
Cu4   O14   S    
C1    O12   A    
C66   N18   T    
C11   C14   A    
C24   C30   A    
C65   N17   T    
C1    O1    A    
C34   O15   A    
C10   C13   A    
C31   C36   A    
C72   N6    T    
Br12  C29   S    
C71   N5    T    
Br1   C45   S    
C32   C65   S    
Cu2   N13   S    
Br2   C46   S    
C8    C27   S    
C73   N7    T    
Br3   C47   S    
C26   O6    A    
Br4   C48   S    
Cu2   O11   S    
C43   C72   S    
C53   C58   A    
C50   C57   A    
C33   C55   A    
C12   O13   A    
Cu3   N1    S    
C70   N4    T    
C67   C78   A    
Cu3   O6    S    
C8    C52   A    
C49   C55   A    
C68   N2    T    
C5    C49   A    
C51   C53   A    
C31   C53   A    
C17   C19   A    
Cu4   N11   S    
C21   N11   A    
C31   C64   S    
C37   C43   A    
C61   C77   A    
C45   C58   A    
C37   H2    S    
Cu2   O4    S    
C23   C61   S    
C25   O16   A    
Br11  C17   S    
C22   C73   S    
C41   C46   A    
C33   C66   S    
C26   O2    A    
C40   C69   S    
C38   C40   A    
C5    C78   A    
C39   C41   A    
C39   H4    S    
Br14  C44   S    
C75   N9    T    
C57   C61   A    
C10   C21   A    
C25   O5    A    
C48   C52   A    
Br8   C67   S    
C34   C60   S    
C34   O11   A    
Cu4   O15   S    
C6    C25   S    
C54   C59   A    
C32   C37   A    
Cu3   O12   S    
C36   C42   A    
C24   C74   S    
Cu1   N12   S    
C18   C20   A    
C35   C68   S    
C6    C50   A    
C64   N16   T    
C32   C54   A    
C27   O3    A    
C29   N12   A    
C27   O7    A    
Br10  C16   S    
Br6   C13   S    
C2    C6    A    
C9    C20   A    
C56   C59   A    
Cu3   O13   S    
C9    C75   S    
C23   O14   A    
C55   C60   A    
C28   O8    A    
C4    H8    S    
C18   N12   A    
Cu2   Cu4   S    
C78   H5    S    
C3    C45   A    
Br5   C11   S    
C2    H6    S    
C1    C59   S    
C62   N14   T    
C60   C67   A    
C14   C62   S    
Cu4   O8    S    
C40   C44   A    
Cu2   O3    S    
C44   C49   A    
C36   H1    S    
C7    C51   A    
C22   N1    A    
C4    C8    A    
C20   N1    A    
Cu1   O1    S    
C63   N15   T    
C10   C76   S    
C33   C38   A    
C38   H3    S    
C23   O10   A    
C46   C50   A    
C14   C16   A    
C3    H7    S    
C15   C17   A    
C16   C18   A    
C24   N11   A    
C42   C71   S    
C30   N13   A    
C35   C39   A    
C19   C21   A    
C69   N3    T    
C76   N10   T    
C47   C51   A    
Cu2   O10   S    
C5    C26   S    
C28   O4    A    
C7    C28   S    
C74   N8    T    
Cu3   O5    S    
C9    C11   A    
C15   C63   S    
C2    C77   A    
Cu1   Cu3   S    
C35   C57   A    
C42   C47   A    
C22   C29   A    
Cu1   O16   S    
C41   C70   S    
Cu1   O9    S    
Br13  C30   S    
C12   O9    A    
Cu4   O7    S    
C3    C7    A    
