data_mof_unit_17354.cif
_audit_creation_date              2012-12-10T16:47:51-0500
_audit_creation_method            fapswitch 2.2
_symmetry_space_group_name_H-M    P1
_symmetry_Int_Tables_number       1
_space_group_crystal_system       triclinic
_cell_length_a                    7.832913
_cell_length_b                    8.568946
_cell_length_c                    10.668457
_cell_angle_alpha                 91.710131
_cell_angle_beta                  84.629711
_cell_angle_gamma                 93.70105
_cell_volume                      711.23069446

loop_
_atom_site_label
_atom_site_type_symbol
_atom_type_description
_atom_site_fract_x
_atom_site_fract_y
_atom_site_fract_z
_atom_type_partial_charge
C1    C     C_R   0.545596 0.794531 0.496899 0.965009
C2    C     C_2   0.569466 0.958171 0.494978 -0.379281
C3    C     C_3   0.324549 0.352496 0.918738 -0.883318
C4    C     C_3   0.006275 0.310406 0.415579 -0.486496
C5    C     C_2   0.430534 0.041887 0.504838 -0.382847
C6    C     C_R   0.498009 0.487284 0.736794 0.900924
C7    C     C_R   0.454408 0.205481 0.503018 0.952404
C8    C     C_R   0.500589 0.502429 0.262491 0.918822
C9    C     C_2   0.631589 0.445908 0.057394 -0.166238
C10   C     C_2   0.504605 0.509491 0.129538 -0.337452
C11   C     C_2   0.634732 0.454278 0.922928 -0.177612
C12   C     C_2   0.490208 0.437145 0.864312 0.050707
H1    H     H_    0.739144 0.396828 0.096412 0.174849
H2    H     H_    0.907364 0.257604 0.356658 0.173478
H3    H     H_    0.125252 0.324957 0.352349 0.214582
H4    H     H_    0.016929 0.228629 0.492790 0.187829
H5    H     H_    0.402110 0.566275 0.090503 0.170284
H6    H     H_    0.756849 0.494370 0.873821 0.151469
H7    H     H_    0.700716 0.009194 0.485482 0.173194
H8    H     H_    0.299274 0.990903 0.514313 0.175236
H9    H     H_    0.992238 0.635285 0.578893 0.171476
H10   H     H_    0.279246 0.264630 0.848602 0.235686
H11   H     H_    0.341100 0.286933 0.004460 0.252503
H12   H     H_    0.223670 0.437123 0.940158 0.236690
N1    N     N_2   0.950320 0.457950 0.466680 -0.039273
N2    N     N_2   0.049680 0.542050 0.533320 -0.131116
O1    O     O_R   0.389250 0.738570 0.508180 -0.613621
O2    O     O_R   0.678390 0.711630 0.486820 -0.632786
O3    O     O_R   0.355470 0.513470 0.691600 -0.607887
O4    O     O_R   0.644610 0.486520 0.670240 -0.639904
O5    O     O_R   0.321610 0.288370 0.513180 -0.643070
O6    O     O_R   0.610750 0.261430 0.491820 -0.614204
O7    O     O_R   0.355390 0.513480 0.329760 -0.630799
O8    O     O_R   0.644530 0.486530 0.308400 -0.610551
Zn1   Zn    Zn3+2 0.306940 0.517990 0.514260 0.933291
Zn2   Zn    Zn3+2 0.693060 0.482010 0.485740 0.938021

loop_
_geom_bond_atom_site_label_1
_geom_bond_atom_site_label_2
_ccdc_geom_bond_type
C4    H4    S    
C1    O2    A    
H9    N2    S    
C11   H6    S    
C3    C12   S    
C5    C7    S    
C9    C10   D    
O3    Zn1   S    
C3    H11   S    
O4    Zn2   S    
C11   C12   D    
O1    Zn1   S    
C4    H3    S    
C4    N1    S    
N1    N2    D    
C5    H8    S    
C8    O8    A    
C4    H2    S    
C9    C11   S    
C3    H12   S    
O6    Zn2   S    
C6    O4    A    
O8    Zn2   S    
C8    O7    A    
C6    C12   S    
O5    Zn1   S    
C2    C5    D    
C7    O5    A    
N1    Zn2   S    
N2    Zn1   S    
C6    O3    A    
O2    Zn2   S    
C8    C10   S    
C1    C2    S    
C1    O1    A    
C9    H1    S    
C3    H10   S    
C7    O6    A    
C10   H5    S    
O7    Zn1   S    
C2    H7    S    
