data_mof_unit_25757.cif
_audit_creation_date              2012-10-26T19:03:29-0400
_audit_creation_method            fapswitch 2.2
_symmetry_space_group_name_H-M    P1
_symmetry_Int_Tables_number       1
_space_group_crystal_system       triclinic
_cell_length_a                    10.800918
_cell_length_b                    12.962014
_cell_length_c                    11.726815
_cell_angle_alpha                 99.625543
_cell_angle_beta                  94.510514
_cell_angle_gamma                 92.13431
_cell_volume                      1611.52454824

loop_
_atom_site_label
_atom_site_type_symbol
_atom_type_description
_atom_site_fract_x
_atom_site_fract_y
_atom_site_fract_z
_atom_type_partial_charge
C1    C     C_R   0.502160 0.299452 0.478551 0.574951
C2    C     C_R   0.577192 0.130008 0.377453 -0.026341
C3    C     C_R   0.458309 0.135194 0.546564 -0.120311
C4    C     C_R   0.262710 0.499251 0.499109 0.595592
C5    C     C_R   0.467588 0.028134 0.541267 0.022246
C6    C     C_R   0.532456 0.970386 0.453671 0.017089
C7    C     C_R   0.540634 0.862799 0.450885 -0.122756
C8    C     C_R   0.419997 0.870790 0.618647 -0.021804
C9    C     C_R   0.412103 0.978293 0.622872 -0.123889
C10   C     C_R   0.401061 0.385797 0.019906 -0.172838
C11   C     C_R   0.409064 0.398451 0.142296 0.032772
C12   C     C_R   0.068876 0.590961 0.471844 -0.028997
C13   C     C_R   0.537777 0.553415 0.156411 0.393726
C14   C     C_R   0.531786 0.543099 0.033660 0.061755
C15   C     C_R   0.463427 0.458068 0.964482 -0.030950
C16   C     C_R   0.494389 0.700102 0.521038 0.539233
C17   C     C_R   0.459785 0.448054 0.841614 0.062635
C18   C     C_R   0.590401 0.601528 0.857038 0.043180
C19   C     C_R   0.595672 0.615098 0.978488 -0.125044
C20   C     C_R   0.737846 0.505749 0.501726 0.552482
C21   C     C_R   0.133763 0.674837 0.435230 -0.101768
C22   C     C_R   0.075437 0.766765 0.423330 -0.114419
C23   C     C_R   0.129089 0.501627 0.496627 0.045976
C24   C     C_R   0.956515 0.780712 0.458445 -0.094827
C25   C     C_R   0.892545 0.700179 0.499035 0.000287
C26   C     C_R   0.942179 0.599381 0.490886 -0.012513
C27   C     C_1   0.638661 0.183599 0.296543 0.241972
C28   C     C_1   0.805024 0.733565 0.582305 0.188935
C29   C     C_1   0.862224 0.326655 0.548005 0.211198
C30   C     C_1   0.356000 0.821323 0.700513 0.216828
C31   C     C_1   0.655218 0.963566 0.281307 0.200199
C32   C     C_R   0.063738 0.415978 0.526352 0.211323
C33   C     C_R   0.933648 0.417506 0.526704 -0.033354
C34   C     C_R   0.873101 0.508394 0.507175 -0.035703
C35   C     C_R   0.485212 0.812980 0.532069 0.002559
C36   C     C_R   0.511962 0.186354 0.465745 -0.000326
C37   C     C_R   0.587485 0.021480 0.371364 -0.023018
Cu1   Cu    Cu3+1 0.509250 0.507730 0.615930 1.012109
Cu2   Cu    Cu3+1 0.490750 0.492270 0.384070 0.986337
H1    H     H_    0.361511 0.023029 0.689113 0.117374
H2    H     H_    0.918547 0.857426 0.462948 0.131645
H3    H     H_    0.591062 0.816680 0.385886 0.168556
H4    H     H_    0.076796 0.279911 0.578779 0.335048
H5    H     H_    0.648925 0.617253 0.287245 0.365121
H6    H     H_    0.408312 0.179202 0.613817 0.129569
H7    H     H_    0.405585 0.383732 0.787230 0.132865
H8    H     H_    0.639646 0.657599 0.816252 0.161658
H9    H     H_    0.347036 0.319397 0.969046 0.112087
H10   H     H_    0.650122 0.681673 0.028427 0.175393
H11   H     H_    0.360988 0.341621 0.183090 0.144081
H12   H     H_    0.229883 0.670960 0.416289 0.138459
H13   H     H_    0.126165 0.830393 0.395413 0.130647
N1    N     N_R   0.523180 0.519350 0.790130 -0.234798
N2    N     N_R   0.476820 0.480650 0.209890 -0.233425
N3    N     N_1   0.687762 0.226332 0.232131 -0.261617
N4    N     N_1   0.739833 0.763209 0.652967 -0.292083
N5    N     N_1   0.805747 0.254169 0.565542 -0.296048
N6    N     N_1   0.304638 0.781591 0.765934 -0.267839
N7    N     N_1   0.709163 0.917375 0.209623 -0.267349
O1    O     O_R   0.506570 0.354460 0.582000 -0.498780
O2    O     O_3   0.605289 0.639087 0.219433 -0.712267
O3    O     O_R   0.490940 0.341410 0.386200 -0.502633
O4    O     O_R   0.327470 0.506530 0.597920 -0.472099
O5    O     O_R   0.311840 0.493480 0.402120 -0.519531
O6    O     O_R   0.509060 0.658590 0.613800 -0.484947
O7    O     O_R   0.493430 0.645540 0.418000 -0.512651
O8    O     O_R   0.688160 0.506520 0.597880 -0.488451
O9    O     O_R   0.672530 0.493470 0.402080 -0.516217
O10   O     O_3   0.130681 0.331698 0.550331 -0.706293

loop_
_geom_bond_atom_site_label_1
_geom_bond_atom_site_label_2
_ccdc_geom_bond_type
C24   C25   A    
C5    C9    A    
C6    C7    A    
Cu2   O5    S    
C17   N1    A    
H5    O2    S    
Cu2   O9    S    
C4    O5    A    
C20   O8    A    
C2    C37   A    
Cu1   O6    S    
C8    C30   S    
C23   C32   A    
C33   C34   A    
C28   N4    T    
C6    C37   A    
C20   C34   S    
H4    O10   S    
C11   H11   S    
C21   C22   A    
C18   H8    S    
C25   C28   S    
C24   H2    S    
Cu1   N1    S    
C12   C23   A    
C2    C27   S    
C11   N2    A    
C12   C21   A    
C3    C36   A    
Cu1   O1    S    
C5    C6    A    
C30   N6    T    
C4    O4    A    
C25   C26   A    
C29   N5    T    
C13   N2    A    
C22   C24   A    
C10   C15   A    
C16   C35   S    
C10   H9    S    
Cu1   Cu2   S    
Cu2   O7    S    
C27   N3    T    
C1    O1    A    
Cu2   N2    S    
C16   O7    A    
C10   C11   A    
C2    C36   A    
Cu1   O8    S    
C20   O9    A    
C29   C33   S    
C21   H12   S    
C13   O2    S    
C17   H7    S    
C1    C36   S    
C1    O3    A    
C22   H13   S    
Cu1   O4    S    
C7    H3    S    
C31   N7    T    
C15   C17   A    
Cu2   O3    S    
C19   H10   S    
C14   C15   A    
C18   C19   A    
C16   O6    A    
C18   N1    A    
C26   C34   A    
C4    C23   S    
C13   C14   A    
C32   O10   S    
C7    C35   A    
C14   C19   A    
C3    H6    S    
C9    H1    S    
C31   C37   S    
C32   C33   A    
C12   C26   A    
C8    C9    A    
C3    C5    A    
C8    C35   A    
