data_mof_unit_53951.cif
_audit_creation_date              2012-12-10T16:57:50-0500
_audit_creation_method            fapswitch 2.2
_symmetry_space_group_name_H-M    P1
_symmetry_Int_Tables_number       1
_space_group_crystal_system       triclinic
_cell_length_a                    7.804297
_cell_length_b                    8.552011
_cell_length_c                    19.007699
_cell_angle_alpha                 91.5334
_cell_angle_beta                  85.714141
_cell_angle_gamma                 93.226907
_cell_volume                      1262.74259142

loop_
_atom_site_label
_atom_site_type_symbol
_atom_type_description
_atom_site_fract_x
_atom_site_fract_y
_atom_site_fract_z
_atom_type_partial_charge
C1    C     C_R   0.545369 0.794541 0.499553 0.941811
C2    C     C_R   0.648015 0.515880 0.173415 0.086269
C3    C     C_R   0.528845 0.614819 0.852728 0.055704
C4    C     C_R   0.510334 0.590141 0.146546 0.072244
C5    C     C_R   0.666340 0.540188 0.815519 0.076342
C6    C     C_R   0.366495 0.629307 0.191395 0.072767
C7    C     C_R   0.656162 0.503164 0.743873 -0.238692
C8    C     C_R   0.360903 0.594623 0.262649 -0.244140
C9    C     C_R   0.510804 0.537954 0.709821 -0.076833
C10   C     C_R   0.498302 0.523642 0.289762 -0.069180
C11   C     C_R   0.510908 0.615735 0.071114 0.305938
C12   C     C_R   0.454767 0.205595 0.502657 0.943943
C13   C     C_R   0.520699 0.627841 0.929477 0.306732
C14   C     C_3   0.954480 0.280380 0.390386 0.155942
C15   C     C_3   0.039902 0.135796 0.413887 -0.386173
C16   C     C_3   0.974404 0.986996 0.375971 -0.970064
C17   C     C_3   0.041153 0.752413 0.589174 0.182076
C18   C     C_3   0.928689 0.836448 0.645805 -0.397558
C19   C     C_3   0.998553 0.004337 0.658536 -0.961010
C20   C     C_2   0.569332 0.958003 0.502115 -0.393400
C21   C     C_2   0.430743 0.042343 0.504338 -0.391441
C22   C     C_R   0.502604 0.505700 0.634566 0.855183
C23   C     C_R   0.498587 0.502282 0.365393 0.855299
C24   C     C_R   0.377739 0.616411 0.746442 -0.233832
C25   C     C_R   0.641200 0.484721 0.245266 -0.234146
C26   C     C_R   0.386450 0.657295 0.817483 0.093956
H1    H     H_    0.267640 0.648251 0.719569 0.153400
H2    H     H_    0.884762 0.421939 0.156219 0.176227
H3    H     H_    0.885774 0.419831 0.819333 0.187730
H4    H     H_    0.889410 0.597037 0.858935 0.204777
H5    H     H_    0.216320 0.814387 0.192848 0.185620
H6    H     H_    0.114221 0.639631 0.175858 0.201906
H7    H     H_    0.974941 0.286517 0.332030 0.125010
H8    H     H_    0.814815 0.267818 0.402090 0.179329
H9    H     H_    0.181039 0.150807 0.401384 0.239222
H10   H     H_    0.013744 0.122998 0.471773 0.213851
H11   H     H_    0.832120 0.972034 0.383419 0.269384
H12   H     H_    0.747083 0.429120 0.266361 0.144750
H13   H     H_    0.031059 0.883637 0.397455 0.276193
H14   H     H_    0.012869 0.992486 0.318592 0.262876
H15   H     H_    0.047847 0.821238 0.539922 0.126656
H16   H     H_    0.171493 0.746259 0.608080 0.160401
H17   H     H_    0.795426 0.838584 0.628993 0.236242
H18   H     H_    0.924252 0.771760 0.695939 0.222735
H19   H     H_    0.131115 0.004974 0.676216 0.263187
H20   H     H_    0.914864 0.061988 0.700132 0.273158
H21   H     H_    0.000300 0.072193 0.609424 0.266938
H22   H     H_    0.760646 0.445395 0.714973 0.176276
H23   H     H_    0.250955 0.627637 0.296965 0.179251
H24   H     H_    0.700335 0.008546 0.501872 0.185050
H25   H     H_    0.299607 0.992010 0.505710 0.167463
H26   H     H_    0.303829 0.851436 0.868847 0.189719
H27   H     H_    0.154685 0.761435 0.820808 0.172949
H28   H     H_    0.746296 0.377708 0.094567 0.196441
N1    N     N_R   0.660846 0.675902 0.963904 -0.164889
N2    N     N_3   0.227937 0.707970 0.164972 -0.437456
N3    N     N_R   0.369857 0.571201 0.036751 -0.146833
N4    N     N_R   0.655985 0.669945 0.033781 -0.143845
N5    N     N_R   0.374746 0.577159 0.967039 -0.137370
N6    N     N_2   0.950330 0.457950 0.481240 0.172928
N7    N     N_2   0.049670 0.542050 0.518760 0.169227
N8    N     N_3   0.251027 0.741251 0.854346 -0.440046
N9    N     N_3   0.791541 0.468590 0.127355 -0.432785
N10   N     N_3   0.811406 0.495588 0.851276 -0.433635
O1    O     O_R   0.389250 0.738570 0.504600 -0.652410
O2    O     O_3   0.967978 0.600991 0.577509 -0.557219
O3    O     O_R   0.610750 0.261430 0.495400 -0.646254
O4    O     O_R   0.678400 0.711620 0.492580 -0.604730
O5    O     O_R   0.321600 0.288380 0.507420 -0.617417
O6    O     O_R   0.355380 0.513500 0.607880 -0.632059
O7    O     O_R   0.644620 0.486500 0.392120 -0.643334
O8    O     O_R   0.644530 0.486550 0.595850 -0.572999
O9    O     O_R   0.355470 0.513450 0.404150 -0.570734
O10   O     O_3   0.032409 0.418241 0.418786 -0.556991
Zn1   Zn    Zn3+2 0.306930 0.517990 0.508030 1.000369
Zn2   Zn    Zn3+2 0.693070 0.482010 0.491970 1.004005

loop_
_geom_bond_atom_site_label_1
_geom_bond_atom_site_label_2
_ccdc_geom_bond_type
C23   O9    A    
C14   H8    S    
C2    C4    A    
C12   O5    A    
C19   H19   S    
C9    C24   A    
C7    C9    A    
C13   N5    A    
H4    N10   S    
C25   H12   S    
O4    Zn2   S    
C11   N4    A    
H27   N8    S    
C1    O1    A    
N6    Zn2   S    
O1    Zn1   S    
C24   H1    S    
C16   H11   S    
O8    Zn2   S    
C7    H22   S    
C3    C5    A    
C14   H7    S    
C14   C15   S    
C17   C18   S    
C26   N8    S    
C19   H20   S    
C19   H21   S    
H26   N8    S    
C18   H17   S    
N7    Zn1   S    
C4    C11   S    
O9    Zn1   S    
C17   O2    S    
C16   H14   S    
C6    C8    A    
N7    O2    S    
C10   C25   A    
N6    O10   S    
C24   C26   A    
O5    Zn1   S    
C2    C25   A    
C18   H18   S    
C22   O8    A    
O7    Zn2   S    
C10   C23   S    
C12   O3    A    
C17   H15   S    
C9    C22   S    
H3    N10   S    
N3    N5    A    
H28   N9    S    
C16   H13   S    
C15   C16   S    
H5    N2    S    
H2    N9    S    
C14   O10   S    
C15   H10   S    
C21   H25   S    
C1    O4    A    
C22   O6    A    
C20   C21   D    
C23   O7    A    
C4    C6    A    
C18   C19   S    
N1    N4    A    
C15   H9    S    
O6    Zn1   S    
C5    C7    A    
C17   H16   S    
C1    C20   S    
C20   H24   S    
O3    Zn2   S    
C2    N9    S    
C8    H23   S    
C11   N3    A    
C12   C21   S    
H6    N2    S    
C8    C10   A    
C5    N10   S    
C6    N2    S    
N6    N7    D    
C13   N1    A    
C3    C26   A    
C3    C13   S    
