data_mof_unit_43797.cif
_audit_creation_date              2012-12-10T18:11:40-0500
_audit_creation_method            fapswitch 2.2
_symmetry_space_group_name_H-M    P1
_symmetry_Int_Tables_number       1
_space_group_crystal_system       triclinic
_cell_length_a                    10.538177
_cell_length_b                    12.599984
_cell_length_c                    13.060235
_cell_angle_alpha                 83.006831
_cell_angle_beta                  91.211998
_cell_angle_gamma                 101.764072
_cell_volume                      1685.08224399

loop_
_atom_site_label
_atom_site_type_symbol
_atom_type_description
_atom_site_fract_x
_atom_site_fract_y
_atom_site_fract_z
_atom_type_partial_charge
C1    C     C_R   0.492111 0.439486 0.691606 0.900272
C2    C     C_3   0.064101 0.595752 0.526413 -0.025285
C3    C     C_3   0.964777 0.512165 0.593426 -0.014915
C4    C     C_3   0.877359 0.500378 0.499409 -0.052662
C5    C     C_R   0.705519 0.702673 0.070205 -0.316418
C6    C     C_R   0.557959 0.594191 0.201012 -0.155462
C7    C     C_R   0.436513 0.294870 0.838637 -0.339198
C8    C     C_R   0.444267 0.254874 0.942802 0.541094
C9    C     C_R   0.500406 0.327134 0.013653 -0.099988
C10   C     C_R   0.550114 0.438954 0.976335 -0.064808
C11   C     C_R   0.571784 0.467945 0.870029 0.102267
C12   C     C_R   0.742178 0.500142 0.500076 0.876511
C13   C     C_R   0.580528 0.524036 0.039600 0.102342
C14   C     C_R   0.667710 0.622155 0.004402 0.133581
C15   C     C_R   0.714549 0.638099 0.903678 -0.210848
C16   C     C_R   0.663545 0.563253 0.836264 -0.119253
C17   C     C_R   0.517380 0.517246 0.133004 -0.355484
C18   C     C_R   0.652166 0.689056 0.169712 0.465921
C19   C     C_R   0.501697 0.400422 0.801281 -0.158828
C20   C     C_R   0.318400 0.088105 0.345822 -0.211408
C21   C     C_R   0.662634 0.801014 0.623722 -0.027626
C22   C     C_R   0.713573 0.908319 0.638400 -0.241492
C23   C     C_R   0.519321 0.560352 0.308543 0.886569
C24   C     C_R   0.664770 0.992967 0.582237 -0.002260
C25   C     C_R   0.551928 0.966551 0.520139 -0.090166
C26   C     C_R   0.510697 0.855748 0.502297 0.259247
C27   C     C_R   0.480572 0.043779 0.472192 -0.013059
C28   C     C_R   0.385461 0.012351 0.396759 0.188078
C29   C     C_R   0.357280 0.905518 0.373426 -0.327021
C30   C     C_R   0.417278 0.828071 0.426959 -0.177892
C31   C     C_R   0.494203 0.149838 0.499392 -0.080986
C32   C     C_R   0.346204 0.194511 0.369616 0.062192
C33   C     C_R   0.258022 0.500433 0.498902 0.873727
C34   C     C_3   0.935710 0.405648 0.470737 -0.113084
C35   C     C_3   0.024925 0.417526 0.566082 -0.104988
C36   C     C_3   0.123357 0.501859 0.498415 -0.046040
C37   C     C_3   0.036718 0.489874 0.403133 -0.198213
C38   C     C_3   0.975608 0.584504 0.431394 -0.268971
H1    H     H_    0.048429 0.349664 0.620797 0.187118
H2    H     H_    0.438267 0.449161 0.155270 0.177116
H3    H     H_    0.382892 0.241714 0.786421 0.181134
H4    H     H_    0.698945 0.578764 0.758329 0.133255
H5    H     H_    0.298031 0.255228 0.329188 0.129509
H6    H     H_    0.285900 0.880903 0.315326 0.152801
H7    H     H_    0.246813 0.065664 0.287277 0.156558
H8    H     H_    0.549791 0.176535 0.564987 0.141610
H9    H     H_    0.707639 0.737288 0.661029 0.126000
H10   H     H_    0.880322 0.328387 0.446175 0.147678
H11   H     H_    0.798081 0.925164 0.687076 0.188500
H12   H     H_    0.390112 0.747074 0.406502 0.198674
H13   H     H_    0.070375 0.480488 0.325381 0.145525
H14   H     H_    0.951793 0.652408 0.376881 0.170647
H15   H     H_    0.784299 0.711039 0.875379 0.139113
H16   H     H_    0.779065 0.774324 0.045465 0.152039
N1    N     N_R   0.432930 0.222190 0.444670 -0.111672
N2    N     N_R   0.566370 0.776980 0.554790 -0.117350
O1    O     O_R   0.467970 0.366730 0.627150 -0.615482
O2    O     O_R   0.510820 0.544830 0.662520 -0.607883
O3    O     O_R   0.664630 0.410960 0.482340 -0.619547
O4    O     O_R   0.707470 0.589060 0.517710 -0.638624
O5    O     O_R   0.489180 0.455170 0.337480 -0.626614
O6    O     O_R   0.532030 0.633270 0.372850 -0.601934
O7    O     O_R   0.292530 0.410940 0.482290 -0.624892
O8    O     O_R   0.335370 0.589040 0.517660 -0.606908
Zn1   Zn    Zn3+2 0.471390 0.381080 0.476380 0.944702
Zn2   Zn    Zn3+2 0.528610 0.618920 0.523620 0.965554
C39   C     C_2   0.527860 0.282539 0.120997 0.384759
H17   H     H_    0.597546 0.330780 0.168062 0.086624
O9    O     O_2   0.475957 0.190636 0.157576 -0.562210
O10   O     O_3   0.391130 0.146615 0.976557 -0.598870
C40   C     C_3   0.463997 0.078374 0.936305 0.124286
H18   H     H_    0.570356 0.108944 0.945217 0.140440
H19   H     H_    0.441190 0.073427 0.853206 0.139620
C41   C     C_3   0.428345 0.963706 0.994957 -0.316881
H20   H     H_    0.454815 0.967155 0.077528 0.232165
H21   H     H_    0.322012 0.932903 0.990238 0.235609
C42   C     C_3   0.498455 0.884614 0.950649 -0.960985
H22   H     H_    0.469321 0.876633 0.869247 0.289424
H23   H     H_    0.472707 0.802911 0.996368 0.268956
H24   H     H_    0.605094 0.913863 0.953882 0.258113
C43   C     C_2   0.748321 0.103598 0.575378 0.366582
H25   H     H_    0.747636 0.160408 0.506205 0.052395
O11   O     O_2   0.820878 0.131573 0.645719 -0.564566
C44   C     C_2   0.132719 0.703632 0.556916 0.388061
H26   H     H_    0.129073 0.778256 0.506938 0.062499
O12   O     O_2   0.193391 0.707939 0.637434 -0.545341
C45   C     C_2   0.926507 0.526760 0.699493 0.420887
H27   H     H_    0.912174 0.605997 0.715144 0.045338
O13   O     O_2   0.914251 0.451025 0.768677 -0.551941
O14   O     O_3   0.705592 0.758932 0.240311 -0.631871
C46   C     C_3   0.670758 0.861314 0.214481 0.087605
H28   H     H_    0.564847 0.853235 0.227039 0.150265
H29   H     H_    0.695146 0.895206 0.132922 0.135531
C47   C     C_3   0.745761 0.941862 0.283560 -0.333125
H30   H     H_    0.723167 0.910580 0.365661 0.230483
H31   H     H_    0.851512 0.949411 0.271638 0.222486
C48   C     C_3   0.712094 0.054427 0.259617 -0.918030
H32   H     H_    0.740865 0.089581 0.179302 0.270401
H33   H     H_    0.764406 0.109868 0.313468 0.249364
H34   H     H_    0.606501 0.048557 0.268834 0.299853

loop_
_geom_bond_atom_site_label_1
_geom_bond_atom_site_label_2
_ccdc_geom_bond_type
C45   H27   S    
O7    Zn1   S    
C34   C37   S    
C2    C44   S    
C35   C36   S    
C48   H32   S    
C7    C8    A    
C42   H22   S    
C11   C19   A    
C29   C30   A    
C41   H21   S    
C15   H15   S    
C36   C37   S    
C44   O12   D    
C37   H13   S    
C38   H14   S    
C15   C16   A    
C33   C36   S    
C34   C35   S    
C40   C41   S    
C43   O11   D    
C12   O3    A    
O2    Zn2   S    
C23   O6    A    
C8    C9    A    
C41   C42   S    
O10   C40   S    
C4    C12   S    
C9    C10   A    
C32   N1    A    
C20   H7    S    
C30   H12   S    
O4    Zn2   S    
C21   C22   A    
C48   H33   S    
C43   H25   S    
C42   H23   S    
C6    C18   A    
C4    C34   S    
C1    C19   S    
C41   H20   S    
O6    Zn2   S    
C27   C31   A    
C39   H17   S    
C18   O14   S    
C5    H16   S    
C24   C25   A    
C46   H28   S    
C40   H19   S    
C5    C18   A    
C20   C28   A    
C47   C48   S    
C25   C26   A    
C3    C45   S    
C31   H8    S    
C39   O9    D    
C17   H2    S    
O8    Zn2   S    
C35   H1    S    
C24   C43   S    
C9    C39   S    
C37   C38   S    
C1    O1    A    
C46   H29   S    
C11   C16   A    
C2    C38   S    
C3    C35   S    
C33   O7    A    
C44   H26   S    
C47   H31   S    
C5    C14   A    
C22   H11   S    
C4    C38   S    
C26   C30   A    
C7    C19   A    
C45   O13   D    
C29   H6    S    
C22   C24   A    
C34   H10   S    
C3    C4    S    
C16   H4    S    
C48   H34   S    
C20   C32   A    
C42   H24   S    
C2    C36   S    
C6    C17   A    
C28   C29   A    
N1    Zn1   S    
O1    Zn1   S    
C10   C13   A    
C26   N2    A    
C21   N2    A    
C25   C27   A    
C8    O10   S    
C13   C17   A    
C2    C3    S    
C40   H18   S    
C1    O2    A    
O3    Zn1   S    
C46   C47   S    
O14   C46   S    
C33   O8    A    
N2    Zn2   S    
C6    C23   S    
C32   H5    S    
C7    H3    S    
C47   H30   S    
C10   C11   A    
C12   O4    A    
O5    Zn1   S    
C23   O5    A    
C27   C28   A    
C14   C15   A    
C31   N1    A    
C13   C14   A    
C21   H9    S    
