data_mof_unit_57413.cif
_audit_creation_date              2013-03-05T15:53:05-0500
_audit_creation_method            fapswitch 2.2
_symmetry_space_group_name_H-M    P1
_symmetry_Int_Tables_number       1
_space_group_crystal_system       triclinic
_cell_length_a                    9.918557
_cell_length_b                    10.641841
_cell_length_c                    15.426035
_cell_angle_alpha                 91.805455
_cell_angle_beta                  67.4689
_cell_angle_gamma                 91.880307
_cell_volume                      1502.83720819

loop_
_atom_site_label
_atom_site_type_symbol
_atom_site_description
_atom_site_fract_x
_atom_site_fract_y
_atom_site_fract_z
_atom_type_partial_charge
O1    O     O_R   0.385310 0.683220 0.500000 -0.622768
O2    O     O_R   0.614640 0.683250 0.500010 -0.625486
C1    C     C_R   0.510842 0.737712 0.485292 0.928194
O3    O     O_R   0.319840 0.499980 0.632240 -0.611739
O4    O     O_R   0.549160 0.500000 0.632250 -0.636506
C2    C     C_R   0.407374 0.497166 0.676556 0.870898
Zn1   Zn    Zn3+2 0.346880 0.499980 0.499990 0.944469
Zn2   Zn    Zn3+2 0.653120 0.500020 0.500010 1.001682
O5    O     O_R   0.385360 0.316750 0.499990 -0.626316
O6    O     O_R   0.614690 0.316780 0.500000 -0.570015
O7    O     O_R   0.450840 0.500000 0.367750 -0.606188
O8    O     O_R   0.680160 0.500020 0.367760 -0.547015
C3    C     C_R   0.494821 0.258712 0.504191 0.884499
C4    C     C_R   0.592169 0.500027 0.323465 0.918308
C5    C     C_R   0.346958 0.473998 0.778110 -0.042075
C6    C     C_R   0.651985 0.497411 0.220399 -0.052239
C7    C     C_R   0.196844 0.349643 0.911582 -0.247045
C8    C     C_R   0.226500 0.391568 0.820760 0.087406
C9    C     C_R   0.427971 0.518495 0.829595 0.008121
C10   C     C_R   0.421278 0.452294 0.908861 0.072989
C11   C     C_R   0.296813 0.375255 0.954188 0.022276
C12   C     C_R   0.532795 0.462368 0.944795 -0.053606
C13   C     C_R   0.504119 0.420663 0.036103 -0.060761
C14   C     C_R   0.379513 0.339982 0.079982 0.419915
C15   C     C_R   0.276915 0.320611 0.039250 -0.214766
C16   C     C_R   0.675430 0.504315 0.889472 -0.222514
C17   C     C_R   0.779581 0.530321 0.927892 0.395281
C18   C     C_R   0.743451 0.508822 0.024260 0.047695
C19   C     C_R   0.602022 0.460446 0.079011 0.039038
C20   C     C_R   0.843693 0.533175 0.067711 -0.265732
C21   C     C_R   0.799174 0.526746 0.165332 0.112341
C22   C     C_R   0.556128 0.464777 0.176486 -0.272989
H1    H     H_    0.183823 0.258224 0.072768 0.174763
H2    H     H_    0.442299 0.447169 0.219272 0.209284
H3    H     H_    0.102347 0.288766 0.945212 0.149930
H4    H     H_    0.709921 0.513441 0.814624 0.178856
H5    H     H_    0.956764 0.557820 0.027443 0.151193
C23   C     C_R   0.337330 0.872466 0.395006 0.359726
C24   C     C_R   0.207983 0.928966 0.398236 0.361196
C25   C     C_R   0.152230 0.029509 0.460603 -0.202313
H6    H     H_    0.044043 0.062521 0.473047 0.168672
C26   C     C_R   0.234157 0.088071 0.507334 0.058403
C27   C     C_R   0.379918 0.049849 0.485867 -0.024285
C28   C     C_R   0.416743 0.929863 0.445648 -0.046754
C29   C     C_R   0.529377 0.869290 0.461386 -0.041448
C30   C     C_R   0.640630 0.940236 0.475680 0.036421
H7    H     H_    0.710184 0.120165 0.503911 0.190940
C31   C     C_R   0.621451 0.066550 0.494881 -0.235047
C32   C     C_R   0.491497 0.122543 0.502317 -0.126476
C33   C     C_R   0.802620 0.678030 0.611993 -0.192719
H8    H     H_    0.693831 0.683021 0.615976 0.210213
C34   C     C_R   0.844885 0.766629 0.666638 0.091218
C35   C     C_R   0.981137 0.758496 0.671172 -0.131563
H9    H     H_    0.013459 0.823677 0.715442 0.155712
C36   C     C_R   0.076392 0.666369 0.619533 -0.135262
H10   H     H_    0.176406 0.663080 0.629685 0.206313
C37   C     C_R   0.041246 0.583171 0.558182 0.144364
C38   C     C_R   0.898309 0.585864 0.556342 0.072205
N1    N     N_R   0.856800 0.501200 0.500850 -0.119441
C39   C     C_R   0.958343 0.419480 0.443796 0.505319
H11   H     H_    0.182765 0.356489 0.397982 0.174423
C40   C     C_R   0.102680 0.420832 0.443563 -0.277472
N2    N     N_R   0.142390 0.501280 0.500880 -0.131964
N3    N     N_3   0.775510 0.885909 0.467035 -0.403933
H12   H     H_    0.858199 0.928369 0.410461 0.248556
H13   H     H_    0.795244 0.909900 0.527365 0.197660
O9    O     O_3   0.392315 0.766680 0.340100 -0.769436
H14   H     H_    0.309810 0.714896 0.336400 0.346579
O10   O     O_3   0.130992 0.886328 0.344938 -0.790589
H15   H     H_    0.199372 0.846055 0.286649 0.344168
N4    N     N_3   0.156923 0.164477 0.588428 -0.444598
H16   H     H_    0.222130 0.184053 0.626643 0.199768
H17   H     H_    0.128524 0.248283 0.567116 0.224838
O11   O     O_3   0.918499 0.337640 0.386279 -0.735702
H18   H     H_    0.003021 0.284951 0.349784 0.324610
N5    N     N_3   0.749910 0.865137 0.718612 -0.464507
H19   H     H_    0.653711 0.862564 0.705756 0.179950
H20   H     H_    0.720364 0.848314 0.790031 0.194520
N6    N     N_3   0.902438 0.555110 0.207872 -0.406092
H21   H     H_    0.944467 0.646115 0.189206 0.189323
H22   H     H_    0.988611 0.492748 0.179713 0.198627
O12   O     O_3   0.910955 0.582801 0.869491 -0.795896
H23   H     H_    0.948041 0.641748 0.906429 0.330501
N7    N     N_3   0.137487 0.346309 0.771710 -0.434582
H24   H     H_    0.132619 0.248307 0.775353 0.162979
H25   H     H_    0.031363 0.376509 0.808852 0.242119
N8    N     N_3   0.484075 0.645355 0.814463 -0.487757
H26   H     H_    0.468141 0.690144 0.878865 0.199525
H27   H     H_    0.594592 0.644536 0.774238 0.188392
O13   O     O_3   0.362159 0.266853 0.155935 -0.786490
H28   H     H_    0.460467 0.244153 0.152040 0.337708

loop_
_geom_bond_atom_site_label_1
_geom_bond_atom_site_label_2
_geom_bond_distance
_ccdc_geom_bond_type
C5    C8    1.412448 A    
C36   H10   1.063718 S    
C9    C10   1.408859 A    
N8    H26   1.045907 S    
O13   H28   0.991153 S    
C29   C30   1.399134 A    
C28   C29   1.409783 A    
C6    C21   1.409525 A    
Zn1   O7    1.900679 S    
C16   C17   1.391080 A    
O4    C2    1.306776 A    
C13   C19   1.417119 A    
C18   C19   1.420623 A    
N7    H25   1.043042 S    
C19   C22   1.393836 A    
C9    N8    1.434478 S    
Zn2   N1    2.024838 S    
C20   C21   1.400834 A    
O7    C4    1.302986 A    
C39   C40   1.429842 A    
O5    C3    1.290290 A    
C2    C5    1.472834 S    
C8    N7    1.430060 S    
C13   C14   1.431329 A    
C25   C26   1.398466 A    
N1    C39   1.369382 A    
H11   C40   1.082369 S    
O3    Zn1   1.953100 S    
C37   N2    1.369842 A    
N5    H19   1.045679 S    
C35   C36   1.386779 A    
C30   C31   1.370892 A    
O11   H18   0.991667 S    
N5    H20   1.045584 S    
O9    H14   0.990368 S    
C33   C38   1.408326 A    
C14   C15   1.393185 A    
O3    C2    1.296096 A    
C24   C25   1.393721 A    
N6    H22   1.046021 S    
C27   C32   1.426287 A    
C33   H8    1.060029 S    
C38   N1    1.382456 A    
C35   H9    1.083348 S    
C1    C29   1.447114 S    
C7    C11   1.399940 A    
C20   H5    1.081421 S    
C30   N3    1.432109 S    
O1    C1    1.297082 A    
N3    H13   1.044493 S    
C5    C9    1.393220 A    
C27   C28   1.398482 A    
C23   C28   1.419053 A    
C40   N2    1.366337 A    
C33   C34   1.403586 A    
H7    C31   1.084223 S    
Zn2   O8    1.953097 S    
C10   C11   1.411819 A    
C7    C8    1.401220 A    
C24   O10   1.378383 S    
N7    H24   1.044738 S    
Zn1   N2    2.023523 S    
C3    C32   1.448014 S    
C16   H4    1.077852 S    
C31   C32   1.400864 A    
C10   C12   1.414417 A    
C36   C37   1.407430 A    
C4    C6    1.468324 S    
C26   C27   1.424244 A    
C34   C35   1.385363 A    
N4    H17   1.043437 S    
Zn1   O5    1.999157 S    
C11   C15   1.393185 A    
C25   H6    1.083679 S    
O1    Zn1   1.974611 S    
C17   O12   1.380479 S    
O2    Zn2   1.999158 S    
O8    C4    1.298303 A    
C34   N5    1.436030 S    
O6    C3    1.301914 A    
C14   O13   1.379180 S    
O4    Zn2   1.900679 S    
C21   N6    1.432867 S    
C6    C22   1.393016 A    
N3    H12   1.044244 S    
C18   C20   1.409920 A    
O2    C1    1.293823 A    
N4    H16   1.041547 S    
C37   C38   1.430093 A    
C23   C24   1.417627 A    
C39   O11   1.378166 S    
C26   N4    1.433613 S    
O10   H15   0.989753 S    
N6    H21   1.045805 S    
C23   O9    1.381423 S    
Zn2   O6    1.974609 S    
O12   H23   0.988166 S    
C12   C16   1.409374 A    
C15   H1    1.084531 S    
C17   C18   1.413660 A    
N8    H27   1.032334 S    
C12   C13   1.409210 A    
C7    H3    1.084438 S    
C22   H2    1.080855 S    
