data_mof_unit_10298.cif
_audit_creation_date              2012-12-11T15:27:16-0500
_audit_creation_method            fapswitch 2.2
_symmetry_space_group_name_H-M    P1
_symmetry_Int_Tables_number       1
_space_group_crystal_system       triclinic
_cell_length_a                    14.002467
_cell_length_b                    14.015078
_cell_length_c                    27.488232
_cell_angle_alpha                 90.098338
_cell_angle_beta                  89.897711
_cell_angle_gamma                 120.395252
_cell_volume                      4653.00049601

loop_
_atom_site_label
_atom_site_type_symbol
_atom_type_description
_atom_site_fract_x
_atom_site_fract_y
_atom_site_fract_z
_atom_type_partial_charge
C1    C     C_R   0.235924 0.785763 0.569375 0.521583
C2    C     C_1   0.737306 0.879066 0.854776 -0.093060
C3    C     C_3   0.787772 0.044064 0.246581 -0.271256
C4    C     C_3   0.872820 0.043117 0.280858 -0.440399
C5    C     C_3   0.955360 0.738304 0.245893 -0.271009
C6    C     C_3   0.955681 0.823768 0.280384 -0.440780
C7    C     C_3   0.259439 0.214104 0.245498 -0.269906
C8    C     C_3   0.175430 0.127028 0.280087 -0.440969
C9    C     C_3   0.748133 0.071681 0.671170 0.063909
C10   C     C_3   0.773874 0.107891 0.617950 -0.264406
C11   C     C_3   0.706881 0.158977 0.599590 -0.495980
C12   C     C_3   0.939530 0.728392 0.643333 0.013816
C13   C     C_1   0.114945 0.858781 0.854211 -0.089617
C14   C     C_3   0.945338 0.836771 0.628152 -0.280246
C15   C     C_3   0.900934 0.828983 0.576722 -0.475099
C16   C     C_3   0.299382 0.270357 0.652103 0.005773
C17   C     C_3   0.187704 0.168993 0.637552 -0.281825
C18   C     C_3   0.194375 0.128802 0.586658 -0.474470
C19   C     C_3   0.809882 0.125331 0.821488 0.008312
C20   C     C_3   0.723062 0.123983 0.855780 -0.270263
C21   C     C_3   0.777334 0.210834 0.895779 -0.479803
C22   C     C_3   0.872237 0.667767 0.825168 0.014005
C23   C     C_3   0.880857 0.589231 0.861091 -0.269925
C24   C     C_1   0.177922 0.319571 0.863926 -0.086271
C25   C     C_3   0.797666 0.557864 0.902555 -0.476736
C26   C     C_3   0.358890 0.249162 0.826812 0.007975
C27   C     C_3   0.480772 0.301551 0.840839 -0.261678
C28   C     C_3   0.500162 0.226082 0.874148 -0.490066
C29   C     C_3   0.637029 0.612576 0.668612 0.019909
C30   C     C_3   0.619618 0.500389 0.683855 -0.266505
C31   C     C_3   0.597585 0.425611 0.639779 -0.485654
C32   C     C_3   0.395077 0.069331 0.686255 0.020430
C33   C     C_3   0.465216 0.151904 0.726182 -0.270251
C34   C     C_3   0.585242 0.180988 0.724009 -0.516754
C35   C     C_1   0.622388 0.817976 0.658292 -0.033851
C36   C     C_3   0.961291 0.374846 0.694031 0.013115
C37   C     C_3   0.888086 0.378383 0.734715 -0.297524
C38   C     C_3   0.829395 0.438220 0.718152 -0.476038
C39   C     C_1   0.183814 0.804206 0.659165 -0.029135
C40   C     C_1   0.224310 0.439249 0.667199 -0.034741
C41   C     C_1   0.596060 0.797376 0.616375 -0.037308
C42   C     C_1   0.206523 0.799106 0.617445 -0.032811
C43   C     C_1   0.225266 0.461705 0.624679 -0.038087
C44   C     C_R   0.107353 0.219998 0.948973 0.536599
C45   C     C_R   0.231650 0.490390 0.574096 0.539995
C46   C     C_R   0.828606 0.905227 0.941259 0.529643
C47   C     C_R   0.093782 0.924705 0.941276 0.533507
C48   C     C_R   0.591808 0.795779 0.380598 0.039121
C49   C     C_R   0.204922 0.794979 0.380207 0.038932
C50   C     C_R   0.202208 0.405979 0.381113 0.037785
C51   C     C_R   0.561678 0.861177 0.352261 0.269781
C52   C     C_R   0.138201 0.698401 0.352141 0.270354
C53   C     C_R   0.297577 0.435711 0.352373 0.268945
C54   C     C_R   0.574373 0.863380 0.302047 -0.102883
C55   C     C_R   0.135400 0.707869 0.301877 -0.107857
C56   C     C_R   0.551517 0.765437 0.568762 0.516138
C57   C     C_R   0.285676 0.421080 0.302299 -0.104487
C58   C     C_R   0.629889 0.815371 0.280705 -0.008383
C59   C     C_R   0.184542 0.811435 0.280116 -0.011263
C60   C     C_R   0.180998 0.364072 0.281551 -0.010768
C61   C     C_R   0.235640 0.784903 0.430067 0.566576
C62   C     C_R   0.214453 0.449922 0.430400 0.572729
C63   C     C_R   0.549611 0.764520 0.430242 0.564883
C64   C     C_R   0.664604 0.755374 0.308713 -0.162103
C65   C     C_R   0.246284 0.907148 0.307861 -0.154988
C66   C     C_R   0.086473 0.329860 0.310044 -0.156205
C67   C     C_3   0.702504 0.763046 0.783096 -0.237364
C68   C     C_R   0.644685 0.744608 0.358429 -0.162095
C69   C     C_R   0.257375 0.899022 0.357639 -0.160892
C70   C     C_R   0.096942 0.351599 0.359597 -0.162106
C71   C     C_R   0.611314 0.745277 0.195974 0.015410
C72   C     C_R   0.254502 0.861211 0.195204 0.012049
C73   C     C_R   0.126805 0.382142 0.197476 0.005862
C74   C     C_R   0.648647 0.763875 0.148045 -0.129894
C75   C     C_R   0.235809 0.881156 0.147232 -0.122746
C76   C     C_R   0.111135 0.347516 0.148931 -0.123341
C77   C     C_R   0.766358 0.959546 0.164429 -0.132409
C78   C     C_3   0.219975 0.944594 0.781180 -0.242189
C79   C     C_R   0.040538 0.804406 0.164097 -0.131266
C80   C     C_R   0.195372 0.236046 0.163963 -0.130051
C81   C     C_R   0.735489 0.943595 0.213179 0.004263
C82   C     C_R   0.056181 0.788086 0.212608 0.006538
C83   C     C_R   0.207955 0.263996 0.212975 0.009347
C84   C     C_R   0.658565 0.834722 0.229322 0.043785
C85   C     C_R   0.164834 0.819791 0.228569 0.036472
C86   C     C_R   0.170869 0.335675 0.230057 0.034362
C87   C     C_R   0.726178 0.869752 0.132604 -0.012695
C88   C     C_R   0.130245 0.854689 0.132243 -0.015515
C89   C     C_3   0.089459 0.337133 0.791256 -0.240078
C90   C     C_R   0.143555 0.273981 0.132708 -0.015093
C91   C     C_R   0.106621 0.221677 0.085678 0.549689
C92   C     C_R   0.778498 0.884783 0.085685 0.561690
C93   C     C_R   0.115166 0.893189 0.085577 0.560928
C94   C     C_3   0.560078 0.845411 0.740758 -0.266661
C95   C     C_3   0.159229 0.718756 0.741438 -0.260376
C96   C     C_3   0.313159 0.502941 0.749548 -0.260934
C97   C     C_3   0.768918 0.938719 0.719104 0.226156
C98   C     C_3   0.045131 0.807505 0.717724 0.243682
C99   C     C_3   0.224155 0.299361 0.726597 0.242791
C100  C     C_3   0.648732 0.731638 0.731867 0.130434
C101  C     C_3   0.783703 0.973099 0.773636 0.205422
C102  C     C_3   0.017705 0.796831 0.773740 0.234917
C103  C     C_3   0.235332 0.283106 0.782567 0.223469
C104  C     C_1   0.775902 0.889626 0.894921 -0.039469
C105  C     C_1   0.106740 0.887684 0.894505 -0.038986
C106  C     C_1   0.149045 0.279088 0.903909 -0.051270
C107  C     C_3   0.649808 0.835456 0.710213 0.048538
C108  C     C_3   0.159357 0.812075 0.710382 0.067303
C109  C     C_3   0.218954 0.408272 0.718998 0.070067
C110  C     C_3   0.582666 0.845490 0.796406 -0.210140
C111  C     C_3   0.254837 0.923268 0.730981 0.132258
C112  C     C_3   0.159998 0.745012 0.796776 -0.218628
C113  C     C_3   0.289650 0.478661 0.805209 -0.217428
C114  C     C_3   0.701926 0.866660 0.803644 0.008164
C115  C     C_3   0.126842 0.835120 0.803149 0.012719
C116  C     C_3   0.199426 0.354942 0.812461 0.014574
C117  C     C_3   0.573143 0.028560 0.368068 0.016244
C118  C     C_3   0.673670 0.078446 0.402313 -0.260689
C119  C     C_3   0.740064 0.204288 0.398228 -0.501614
C120  C     C_3   0.969647 0.541799 0.368185 0.016213
C121  C     C_3   0.920515 0.595330 0.400937 -0.262870
C122  C     C_3   0.108084 0.389969 0.740375 0.132635
C123  C     C_3   0.794548 0.534592 0.397036 -0.500730
C124  C     C_3   0.455506 0.427183 0.367192 0.016067
C125  C     C_3   0.403479 0.324744 0.400322 -0.261735
C126  C     C_3   0.463891 0.260072 0.395635 -0.500826
C127  C     C_3   0.521499 0.629421 0.209528 -0.286503
C128  C     C_3   0.412417 0.600020 0.184873 -0.441121
C129  C     C_3   0.368263 0.884486 0.211760 -0.276802
C130  C     C_3   0.450342 0.902730 0.170998 -0.457228
C131  C     C_3   0.098922 0.468595 0.215063 -0.277741
C132  C     C_3   0.080382 0.533339 0.175062 -0.457448
Cr1   Cr    Cr6+3 0.164410 0.584450 0.499910 1.018798
Cr2   Cr    Cr6+3 0.415550 0.579960 0.499910 1.012816
Cr3   Cr    Cr6+3 0.420040 0.835590 0.499910 1.018664
Cr4   Cr    Cr6+3 0.156760 0.076070 0.017830 1.000552
Cr5   Cr    Cr6+3 0.923930 0.080690 0.017830 1.000509
Cr6   Cr    Cr6+3 0.919310 0.843240 0.017830 1.001442
H1    H     H_    0.570800 0.909053 0.814989 0.149465
H2    H     H_    0.789554 0.782610 0.780663 0.135568
H3    H     H_    0.731745 0.237624 0.618971 0.128324
H4    H     H_    0.855800 0.659354 0.634083 0.161846
H5    H     H_    0.994387 0.711591 0.620665 0.126547
H6    H     H_    0.896013 0.855766 0.653607 0.202991
H7    H     H_    0.032661 0.905310 0.628592 0.148066
H8    H     H_    0.950496 0.811983 0.550215 0.141790
H9    H     H_    0.906509 0.908503 0.566962 0.150862
H10   H     H_    0.812841 0.762379 0.574383 0.151083
H11   H     H_    0.364686 0.251111 0.642857 0.150956
H12   H     H_    0.319035 0.342240 0.628913 0.143931
H13   H     H_    0.190082 0.004300 0.777642 0.121704
H14   H     H_    0.164132 0.100703 0.663960 0.197331
H15   H     H_    0.122335 0.191744 0.636840 0.168466
H16   H     H_    0.224466 0.197809 0.560102 0.152414
H17   H     H_    0.111092 0.062603 0.574968 0.148093
H18   H     H_    0.251208 0.095202 0.586576 0.160074
H19   H     H_    0.862170 0.211168 0.808623 0.149235
H20   H     H_    0.864382 0.103396 0.842228 0.114740
H21   H     H_    0.665409 0.140882 0.834791 0.163596
H22   H     H_    0.674713 0.041463 0.873079 0.165759
H23   H     H_    0.836682 0.196538 0.916746 0.181805
H24   H     H_    0.030848 0.246623 0.788474 0.133502
H25   H     H_    0.712899 0.205308 0.921108 0.141073
H26   H     H_    0.821775 0.295193 0.879773 0.133983
H27   H     H_    0.785412 0.626613 0.812190 0.154909
H28   H     H_    0.890618 0.745296 0.844364 0.107445
H29   H     H_    0.864839 0.512756 0.841754 0.159012
H30   H     H_    0.965506 0.629392 0.876691 0.164977
H31   H     H_    0.813444 0.632926 0.922980 0.178735
H32   H     H_    0.805907 0.500841 0.927902 0.140982
H33   H     H_    0.711839 0.515419 0.888093 0.137323
H34   H     H_    0.330717 0.167579 0.809983 0.132531
H35   H     H_    0.618364 0.695186 0.122730 0.119961
H36   H     H_    0.309896 0.237679 0.860331 0.135291
H37   H     H_    0.532081 0.319057 0.807527 0.167615
H38   H     H_    0.507589 0.381332 0.859761 0.159289
H39   H     H_    0.450343 0.208147 0.907944 0.159739
H40   H     H_    0.589103 0.267767 0.884106 0.144639
H41   H     H_    0.477289 0.147142 0.855338 0.138115
H42   H     H_    0.678105 0.636069 0.632542 0.158720
H43   H     H_    0.554191 0.604266 0.663431 0.117271
H44   H     H_    0.694609 0.513113 0.702713 0.204854
H45   H     H_    0.549035 0.460226 0.709737 0.184764
H46   H     H_    0.302828 0.919523 0.121240 0.124853
H47   H     H_    0.529340 0.420876 0.617448 0.148254
H48   H     H_    0.574386 0.341280 0.651919 0.139109
H49   H     H_    0.673246 0.458477 0.616925 0.135668
H50   H     H_    0.405948 0.115286 0.651996 0.135742
H51   H     H_    0.424705 0.010889 0.677370 0.116994
H52   H     H_    0.460136 0.228152 0.722826 0.210167
H53   H     H_    0.434228 0.116411 0.762565 0.162723
H54   H     H_    0.633031 0.244733 0.751905 0.149959
H55   H     H_    0.620266 0.212760 0.687537 0.140230
H56   H     H_    0.591406 0.106898 0.732245 0.157906
H57   H     H_    0.071428 0.374879 0.123358 0.126308
H58   H     H_    0.908140 0.328196 0.662833 0.153591
H59   H     H_    0.019855 0.459328 0.679861 0.121489
H60   H     H_    0.825532 0.293161 0.745494 0.176468
H61   H     H_    0.938140 0.422002 0.767236 0.148277
H62   H     H_    0.890878 0.523305 0.707135 0.230178
H63   H     H_    0.779390 0.441601 0.748781 0.159020
H64   H     H_    0.775050 0.394969 0.686666 0.131062
H65   H     H_    0.543444 0.905263 0.279631 0.098375
H66   H     H_    0.092295 0.634168 0.279770 0.097315
H67   H     H_    0.358292 0.452127 0.279459 0.096288
H68   H     H_    0.827916 0.041368 0.151921 0.135796
H69   H     H_    0.102759 0.667984 0.816689 0.148160
H70   H     H_    0.958976 0.784722 0.151832 0.134322
H71   H     H_    0.219062 0.177981 0.150737 0.134682
H72   H     H_    0.704983 0.715423 0.291717 0.113670
H73   H     H_    0.286524 0.987664 0.290761 0.111008
H74   H     H_    0.005185 0.288275 0.293652 0.111795
H75   H     H_    0.557567 0.921025 0.732137 0.128312
H76   H     H_    0.084725 0.637875 0.732750 0.163723
H77   H     H_    0.393009 0.508726 0.740116 0.166266
H78   H     H_    0.668057 0.694157 0.379323 0.126049
H79   H     H_    0.308746 0.973684 0.378310 0.125324
H80   H     H_    0.367426 0.498766 0.824477 0.159186
H81   H     H_    0.023185 0.328546 0.380856 0.126706
H82   H     H_    0.825960 0.906138 0.714504 0.121353
H83   H     H_    0.054793 0.887793 0.706260 0.079217
H84   H     H_    0.143536 0.227458 0.715636 0.102021
H85   H     H_    0.871792 0.001995 0.783223 0.055503
H86   H     H_    0.983046 0.851478 0.781760 0.031416
H87   H     H_    0.178842 0.193412 0.790945 0.036605
H88   H     H_    0.561766 0.663843 0.737869 0.103806
H89   H     H_    0.327088 0.911449 0.737851 0.104505
H90   H     H_    0.118240 0.473864 0.745778 0.098929
H91   H     H_    0.476040 0.775066 0.732323 0.085543
H92   H     H_    0.657127 0.690982 0.807918 0.100539
H93   H     H_    0.293055 0.981439 0.805813 0.090371
H94   H     H_    0.052251 0.373155 0.815665 0.089892
H95   H     H_    0.519905 0.063186 0.378177 0.148004
H96   H     H_    0.599592 0.054931 0.329899 0.096130
H97   H     H_    0.644933 0.055178 0.440468 0.175089
H98   H     H_    0.729013 0.045685 0.393069 0.144818
H99   H     H_    0.771473 0.229412 0.360520 0.135109
H100  H     H_    0.811878 0.237959 0.423382 0.145162
H101  H     H_    0.687595 0.239836 0.408184 0.138496
H102  H     H_    0.232851 0.711196 0.732872 0.078760
H103  H     H_    0.934118 0.454292 0.379603 0.149204
H104  H     H_    0.943577 0.538854 0.329775 0.096995
H105  H     H_    0.944102 0.593554 0.439363 0.173838
H106  H     H_    0.953618 0.682925 0.390143 0.144404
H107  H     H_    0.769119 0.536810 0.358981 0.135670
H108  H     H_    0.761485 0.575172 0.420927 0.143673
H109  H     H_    0.758633 0.447277 0.408732 0.138804
H110  H     H_    0.543438 0.480767 0.378017 0.148790
H111  H     H_    0.457278 0.403284 0.328773 0.096494
H112  H     H_    0.407232 0.351114 0.438763 0.174251
H113  H     H_    0.320611 0.583925 0.740927 0.076485
H114  H     H_    0.315263 0.268966 0.390384 0.145502
H115  H     H_    0.459349 0.231132 0.357594 0.135594
H116  H     H_    0.424613 0.186771 0.419930 0.144208
H117  H     H_    0.551975 0.312769 0.406314 0.138866
H118  H     H_    0.379588 0.651394 0.199890 0.157550
H119  H     H_    0.422557 0.612009 0.144892 0.148868
H120  H     H_    0.351979 0.511934 0.191683 0.154134
H121  H     H_    0.547211 0.569580 0.198106 0.129191
H122  H     H_    0.506256 0.618892 0.249172 0.161383
H123  H     H_    0.413937 0.832159 0.145084 0.155372
H124  H     H_    0.521442 0.764238 0.812481 0.101778
H125  H     H_    0.475702 0.981437 0.151591 0.143041
H126  H     H_    0.525834 0.908990 0.186885 0.154679
H127  H     H_    0.406139 0.958471 0.235705 0.139455
H128  H     H_    0.357379 0.812735 0.233437 0.156282
H129  H     H_    0.152707 0.572501 0.150088 0.156922
H130  H     H_    0.003525 0.478650 0.154460 0.142681
H131  H     H_    0.070049 0.599449 0.191771 0.148839
H132  H     H_    0.023616 0.428067 0.238194 0.138754
H133  H     H_    0.168711 0.530278 0.237729 0.158444
H134  H     H_    0.840983 0.962501 0.299198 0.163224
H135  H     H_    0.244200 0.775560 0.811994 0.100919
H136  H     H_    0.948231 0.062495 0.259942 0.153848
H137  H     H_    0.894460 0.105924 0.309759 0.127653
H138  H     H_    0.830823 0.121874 0.225081 0.133172
H139  H     H_    0.723956 0.050652 0.267560 0.127688
H140  H     H_    0.034695 0.870203 0.300404 0.163202
H141  H     H_    0.940851 0.882364 0.259296 0.152558
H142  H     H_    0.889077 0.781644 0.307784 0.126864
H143  H     H_    0.877720 0.702748 0.224242 0.131203
H144  H     H_    0.948458 0.667645 0.266665 0.128099
H145  H     H_    0.129205 0.158065 0.301044 0.162528
H146  H     H_    0.260398 0.532734 0.820826 0.099757
H147  H     H_    0.116538 0.053054 0.258935 0.153563
H148  H     H_    0.218936 0.103216 0.306731 0.127238
H149  H     H_    0.295224 0.173345 0.223288 0.131973
H150  H     H_    0.330332 0.278795 0.266166 0.127046
H151  H     H_    0.768689 0.144295 0.694184 0.187659
H152  H     H_    0.658663 0.013310 0.673570 0.118315
H153  H     H_    0.863628 0.168677 0.613733 0.183371
H154  H     H_    0.754196 0.034721 0.595072 0.171699
H155  H     H_    0.616857 0.100872 0.604938 0.151322
H156  H     H_    0.722820 0.177209 0.560148 0.148651
O1    O     O_R   0.137310 0.468260 0.552980 -0.516047
O2    O     O_R   0.139940 0.470480 0.446230 -0.492892
O3    O     O_R   0.529520 0.669460 0.446230 -0.496016
O4    O     O_R   0.330540 0.860060 0.446230 -0.495863
O5    O     O_R   0.176560 0.690850 0.450770 -0.460010
O6    O     O_R   0.309150 0.485710 0.450770 -0.455367
O7    O     O_R   0.514290 0.823440 0.450770 -0.459500
O8    O     O_3   0.333333 0.666667 0.499990 -0.284591
O9    O     O_3   1.000000 0.000000 0.017910 -0.248627
O10   O     O_R   0.149710 0.171070 0.967700 -0.518434
O11   O     O_R   0.828930 0.978640 0.967700 -0.490987
O12   O     O_R   0.531740 0.669050 0.552980 -0.536204
O13   O     O_R   0.021360 0.850290 0.967700 -0.506198
O14   O     O_R   0.178510 0.985930 0.071830 -0.513552
O15   O     O_R   0.014070 0.192580 0.071830 -0.517247
O16   O     O_R   0.807420 0.821490 0.071830 -0.514766
O17   O     O_R   0.147830 0.173300 0.066650 -0.497410
O18   O     O_R   0.826700 0.974530 0.066650 -0.491457
O19   O     O_R   0.025470 0.852170 0.066650 -0.492498
O20   O     O_3   0.508218 0.911951 0.372948 -0.536206
O21   O     O_3   0.086272 0.594098 0.373203 -0.536212
O22   O     O_3   0.402911 0.490526 0.372521 -0.537115
O23   O     O_R   0.330950 0.862690 0.552980 -0.520497
O24   O     O_3   0.815145 0.027752 0.685089 -0.567524
O25   O     O_3   0.954083 0.716669 0.693756 -0.542028
O26   O     O_3   0.314688 0.300548 0.702168 -0.553163
O27   O     O_3   0.757792 0.058255 0.780166 -0.573254
O28   O     O_3   0.940116 0.683555 0.784232 -0.531559
O29   O     O_3   0.348144 0.318844 0.793115 -0.537941
O30   O     O_3   0.707535 0.695525 0.702263 -0.565281
O31   O     O_3   0.281312 0.013371 0.699113 -0.580866
O32   O     O_3   0.017223 0.320136 0.709829 -0.563341
O33   O     O_R   0.180530 0.983530 0.965090 -0.504469
O34   O     O_R   0.016470 0.197000 0.965090 -0.527179
O35   O     O_R   0.803000 0.819470 0.965090 -0.517885
O36   O     O_R   0.174120 0.688790 0.549730 -0.526624
O37   O     O_R   0.311210 0.485330 0.549730 -0.518358
O38   O     O_R   0.514670 0.825880 0.549730 -0.510498

loop_
_geom_bond_atom_site_label_1
_geom_bond_atom_site_label_2
_ccdc_geom_bond_type
C4    H134  S    
C121  H106  S    
C99   C103  S    
C21   H25   S    
C55   C59   A    
C11   H156  S    
Cr1   O8    S    
C78   C115  S    
C6    H142  S    
C102  H86   S    
C3    H138  S    
C51   O20   S    
C5    C6    S    
C98   H83   S    
C98   C108  S    
Cr6   O9    S    
C7    H150  S    
C40   C43   T    
C19   C20   S    
C47   C105  S    
C1    O23   A    
C62   O2    A    
C16   H11   S    
C130  H125  S    
C8    H148  S    
C34   H56   S    
C99   H84   S    
C26   H34   S    
Cr2   O37   S    
C49   C69   A    
C30   H44   S    
C64   H72   S    
C25   H33   S    
C80   C83   A    
C19   O27   S    
C91   O15   A    
C14   H6    S    
C50   C53   A    
C112  H135  S    
Cr3   O4    S    
C123  H107  S    
C8    H145  S    
C60   C86   S    
C48   C63   S    
C10   H154  S    
C78   H93   S    
C98   C102  S    
C46   O35   A    
C41   C56   S    
C37   C38   S    
C76   H57   S    
C123  H108  S    
C2    C104  T    
Cr2   O6    S    
C111  O31   S    
C46   O11   A    
C13   C115  S    
C67   C100  S    
C23   H29   S    
C26   O29   S    
C101  O27   S    
C38   H62   S    
C66   H74   S    
C6    H140  S    
C89   H24   S    
C18   H18   S    
C27   H38   S    
C119  H100  S    
C103  H87   S    
C82   C85   A    
C96   C109  S    
C108  C111  S    
C33   H53   S    
C34   H54   S    
C103  C116  S    
C50   C70   A    
C122  O32   S    
C5    C82   S    
C2    C114  S    
C66   C70   A    
C120  H103  S    
C121  C123  S    
C130  H123  S    
C35   C107  S    
C95   C108  S    
C9    O24   S    
C97   C107  S    
C83   C86   A    
C20   C21   S    
C20   H22   S    
C31   H49   S    
C22   C23   S    
Cr4   O33   S    
C47   O13   A    
C96   H113  S    
C129  H128  S    
C7    C83   S    
C52   O21   S    
C59   C85   S    
C72   C85   A    
Cr4   O9    S    
C7    C8    S    
C102  O28   S    
C36   C37   S    
C15   H10   S    
C3    H139  S    
C89   C122  S    
C54   H65   S    
C118  H97   S    
C36   O32   S    
C93   O19   A    
C3    C81   S    
C78   C111  S    
C74   C87   A    
C9    C10   S    
C110  C114  S    
C18   H16   S    
Cr5   O34   S    
C45   O37   A    
C72   C75   A    
C75   H46   S    
C78   H13   S    
C58   C64   A    
C39   C108  S    
Cr6   O35   S    
C94   C107  S    
C5    H144  S    
C9    H152  S    
C16   O26   S    
C22   H28   S    
C124  H110  S    
C36   H58   S    
C29   C30   S    
C56   O38   A    
C11   H3    S    
Cr4   O14   S    
C117  H95   S    
C122  H90   S    
C31   H47   S    
C17   C18   S    
C97   H82   S    
C126  H116  S    
C37   H60   S    
C100  H88   S    
C43   C45   S    
C24   C116  S    
C38   H64   S    
C127  H121  S    
C24   C106  T    
C3    C4    S    
Cr3   O8    S    
C113  H80   S    
Cr5   O11   S    
C120  C121  S    
C129  C130  S    
C11   H155  S    
C22   O28   S    
C4    H137  S    
C112  H69   S    
C79   C82   A    
C70   H81   S    
C12   H5    S    
C128  H119  S    
Cr5   O18   S    
C117  C118  S    
C59   C65   A    
C132  H129  S    
C119  H101  S    
C131  H132  S    
C128  H118  S    
C35   C41   T    
C7    H149  S    
C10   C11   S    
C113  H146  S    
C77   C87   A    
C12   O25   S    
C14   C15   S    
C16   H12   S    
C130  H126  S    
C25   H32   S    
Cr3   O38   S    
C61   O5    A    
C45   O1    A    
C30   H45   S    
C72   C129  S    
C14   H7    S    
C26   C27   S    
C69   H79   S    
C110  H1    S    
C67   C114  S    
C95   C112  S    
C54   C58   A    
C30   C31   S    
C26   H36   S    
C99   C109  S    
C121  H105  S    
Cr1   O2    S    
C102  C115  S    
C16   C17   S    
C32   O31   S    
C28   H39   S    
C52   C55   A    
C60   C66   A    
C21   H26   S    
C87   C92   S    
C101  C114  S    
C19   H20   S    
C71   C127  S    
C6    H141  S    
C79   C88   A    
C44   O34   A    
C39   C42   T    
C63   O3    A    
C49   C61   S    
C13   C105  T    
C27   H37   S    
C132  H131  S    
C53   C57   A    
Cr3   O23   S    
C57   C60   A    
C17   H15   S    
C46   C104  S    
C94   C110  S    
C44   O10   A    
C33   H52   S    
C15   H8    S    
C77   C81   A    
C49   C52   A    
C40   C109  S    
C120  H104  S    
C48   C68   A    
C29   H43   S    
C8    H147  S    
Cr4   O17   S    
C93   O14   A    
C100  O30   S    
C125  C126  S    
C73   C76   A    
C96   C113  S    
C17   H14   S    
C127  C128  S    
C64   C68   A    
Cr6   O19   S    
C129  H127  S    
C94   H75   S    
C119  H99   S    
C71   C74   A    
Cr4   O10   S    
C110  H124  S    
C10   H153  S    
C44   C106  S    
C4    H136  S    
C32   C33   S    
C56   O12   A    
C77   H68   S    
C15   H9    S    
C90   C91   S    
C65   C69   A    
C55   H66   S    
C97   O24   S    
C53   O22   S    
C12   H4    S    
Cr5   O9    S    
C95   H102  S    
C89   H94   S    
C99   O26   S    
C68   H78   S    
C28   H41   S    
Cr5   O15   S    
C23   H30   S    
C118  H98   S    
C1    C42   S    
C23   C25   S    
C131  H133  S    
Cr2   O12   S    
C18   H17   S    
C76   C90   A    
C80   H71   S    
C123  H109  S    
C73   C131  S    
C29   O30   S    
C62   O6    A    
C92   O16   A    
C47   O33   A    
C96   H77   S    
C103  O29   S    
C5    H143  S    
C125  H112  S    
Cr6   O16   S    
C109  C122  S    
C79   H70   S    
C57   H67   S    
C124  O22   S    
C118  C119  S    
C22   H27   S    
C48   C51   A    
C67   H92   S    
C29   H42   S    
C126  H117  S    
C113  C116  S    
C101  H85   S    
Cr1   O1    S    
C89   C116  S    
Cr3   O7    S    
C117  O20   S    
C21   H23   S    
C32   H50   S    
C19   H19   S    
C120  O21   S    
C74   H35   S    
Cr1   O36   S    
C20   H21   S    
C98   O25   S    
Cr2   O3    S    
C128  H120  S    
C124  H111  S    
C58   C84   S    
C132  H130  S    
C33   C34   S    
Cr1   O5    S    
C67   H2    S    
Cr6   O13   S    
C12   C14   S    
C63   O7    A    
C50   C62   S    
C1    O36   A    
C81   C84   A    
C34   H55   S    
C71   C84   A    
C92   O18   A    
C25   H31   S    
C95   H76   S    
C88   C93   S    
C100  C107  S    
C61   O4    A    
C125  H114  S    
C91   O17   A    
C51   C54   A    
C111  H89   S    
C9    H151  S    
C117  H96   S    
C31   H48   S    
C38   H63   S    
C32   H51   S    
C126  H115  S    
C37   H61   S    
C80   C90   A    
C36   H59   S    
C73   C86   A    
C65   H73   S    
C75   C88   A    
C27   C28   S    
C127  H122  S    
Cr2   O8    S    
C28   H40   S    
C112  C115  S    
C97   C101  S    
C131  C132  S    
C94   H91   S    
C124  C125  S    
