data_mof_unit_41144.cif
_audit_creation_date              2013-03-05T15:52:20-0500
_audit_creation_method            fapswitch 2.2
_symmetry_space_group_name_H-M    P1
_symmetry_Int_Tables_number       1
_space_group_crystal_system       triclinic
_cell_length_a                    10.701897
_cell_length_b                    10.727794
_cell_length_c                    17.100235
_cell_angle_alpha                 80.545667
_cell_angle_beta                  99.543892
_cell_angle_gamma                 118.641626
_cell_volume                      1690.98610657

loop_
_atom_site_label
_atom_site_type_symbol
_atom_site_description
_atom_site_fract_x
_atom_site_fract_y
_atom_site_fract_z
_atom_type_partial_charge
O1    O     O_R   0.754020 0.497590 0.609930 -0.456445
O2    O     O_R   0.481420 0.271390 0.600630 -0.486015
C1    C     C_R   0.361728 0.230251 0.627704 0.538732
O3    O     O_R   0.263810 0.254550 0.589590 -0.464424
O4    O     O_R   0.300820 0.531200 0.560890 -0.470652
C2    C     C_R   0.412684 0.621075 0.601687 0.537011
O5    O     O_R   0.491480 0.744020 0.564270 -0.489815
O6    O     O_R   0.726290 0.693800 0.583010 -0.512704
C3    C     C_R   0.776512 0.618684 0.626997 0.536435
O7    O     O_R   0.747830 0.500190 0.434090 -0.486085
O8    O     O_R   0.475680 0.273800 0.437630 -0.515798
C4    C     C_R   0.352465 0.229876 0.398607 0.557447
O9    O     O_R   0.257620 0.257160 0.413750 -0.442696
O10   O     O_R   0.295080 0.533620 0.397890 -0.468373
C5    C     C_R   0.365770 0.653683 0.360629 0.567061
O11   O     O_R   0.485280 0.746620 0.388440 -0.466664
O12   O     O_R   0.720550 0.696220 0.420010 -0.493173
C6    C     C_R   0.771525 0.622262 0.400073 0.539834
Cr1   Cr    Cr6+3 0.608440 0.389080 0.519680 1.123355
Cr2   Cr    Cr6+3 0.288640 0.400090 0.490760 1.172646
Cr3   Cr    Cr6+3 0.602940 0.710800 0.489510 1.109138
O13   O     O_3   0.500010 0.499990 0.499980 -0.333544
C7    C     C_R   0.350482 0.652718 0.836094 -0.011332
C8    C     C_R   0.243596 0.545065 0.791589 0.022233
C9    C     C_R   0.266180 0.528774 0.717173 0.000496
C10   C     C_R   0.511263 0.709978 0.735146 -0.150548
C11   C     C_R   0.489139 0.725276 0.810724 -0.138534
C12   C     C_3   0.091253 0.513418 0.765331 0.102523
C13   C     C_3   0.115806 0.494100 0.683515 0.096402
C14   C     C_R   0.395580 0.620850 0.684728 -0.030166
H1    H     H_    0.615781 0.775651 0.714023 0.160062
C15   C     C_1   0.822158 0.656347 0.706187 -0.027563
C16   C     C_1   0.849970 0.684361 0.773836 -0.026290
C17   C     C_1   0.345692 0.188415 0.709980 0.004098
C18   C     C_1   0.320733 0.160089 0.778196 0.013739
C19   C     C_1   0.336102 0.663432 0.277629 0.001446
C20   C     C_1   0.323407 0.673226 0.206964 -0.020015
C21   C     C_R   0.861965 0.682036 0.165551 -0.007667
C22   C     C_R   0.890911 0.585400 0.220517 -0.031639
C23   C     C_R   0.875046 0.574919 0.299587 0.035618
C24   C     C_R   0.821762 0.774080 0.272917 -0.091681
C25   C     C_R   0.837802 0.784174 0.192674 -0.138913
C26   C     C_3   0.823366 0.428179 0.217546 -0.191933
C27   C     C_3   0.798012 0.414543 0.303295 0.100818
C28   C     C_R   0.834685 0.665038 0.326269 -0.003368
H2    H     H_    0.786437 0.842784 0.291447 0.230683
H3    H     H_    0.824433 0.866411 0.151745 0.165267
H4    H     H_    0.723328 0.390605 0.176604 0.156779
H5    H     H_    0.683127 0.368036 0.311832 0.113825
C29   C     C_R   0.340530 0.174991 0.158328 0.003709
C30   C     C_R   0.275280 0.247357 0.180314 -0.084417
C31   C     C_R   0.273980 0.256181 0.258467 -0.009121
C32   C     C_R   0.426155 0.145560 0.298217 -0.153871
C33   C     C_R   0.432055 0.137849 0.217943 0.151442
C34   C     C_3   0.135497 0.251051 0.157038 -0.230880
C35   C     C_3   0.135160 0.263223 0.244543 0.114690
C36   C     C_R   0.339193 0.196219 0.319040 0.013773
O14   O     O_R   0.163320 0.092900 0.874450 -0.448219
O15   O     O_R   0.934650 0.822080 0.882840 -0.492003
C37   C     C_R   0.891551 0.701917 0.855890 0.542787
O16   O     O_R   0.915520 0.604140 0.893670 -0.476782
O17   O     O_R   0.191760 0.638110 0.923230 -0.480963
C38   C     C_R   0.315451 0.706406 0.898177 0.532519
O18   O     O_R   0.406180 0.826930 0.920660 -0.514219
O19   O     O_R   0.358620 0.062870 0.901950 -0.500234
C39   C     C_R   0.284104 0.114021 0.857631 0.554060
O20   O     O_R   0.163910 0.085460 0.050210 -0.518836
O21   O     O_R   0.935200 0.815170 0.045770 -0.506583
C40   C     C_R   0.892081 0.693458 0.085343 0.546612
O22   O     O_R   0.916120 0.596690 0.069430 -0.508974
O23   O     O_R   0.192310 0.631200 0.086170 -0.521813
C41   C     C_R   0.312774 0.701141 0.123912 0.537234
O24   O     O_R   0.406770 0.819480 0.096420 -0.452956
O25   O     O_R   0.359170 0.055960 0.064880 -0.447047
C42   C     C_R   0.288006 0.109194 0.084467 0.558705
Cr4   Cr    Cr6+3 0.052530 0.947560 0.964210 1.090560
Cr5   Cr    Cr6+3 0.059970 0.626800 0.992920 1.077899
Cr6   Cr    Cr6+3 0.373320 0.938440 0.995370 1.115660
O26   O     O_3   0.161940 0.837600 0.984160 -0.289004
N1    N     N_R   0.872423 0.346787 0.358443 0.129973
O27   O     O_R   0.800455 0.235759 0.406312 -0.254809
O28   O     O_R   0.010194 0.397570 0.361580 -0.313945
H6    H     H_    0.490580 0.113479 0.344381 0.193596
N2    N     N_R   0.523936 0.084577 0.200066 0.096851
O29   O     O_R   0.603698 0.146465 0.141530 -0.325204
O30   O     O_R   0.549570 0.993495 0.251266 -0.296494
H7    H     H_    0.046936 0.150019 0.135803 0.192612
H8    H     H_    0.148207 0.349139 0.117962 0.134656
H9    H     H_    0.146096 0.366967 0.256031 0.134775
N3    N     N_R   0.014397 0.139968 0.280044 0.102153
O31   O     O_R   0.885917 0.125785 0.259911 -0.284110
O32   O     O_R   0.033318 0.048623 0.334380 -0.323903
H10   H     H_    0.577138 0.804497 0.845368 0.166008
H11   H     H_    0.072289 0.606594 0.765254 0.070680
N4    N     N_R   0.986819 0.383177 0.806892 0.136607
O33   O     O_R   0.026347 0.321360 0.870961 -0.299922
O34   O     O_R   0.851121 0.336181 0.783865 -0.289912
N5    N     N_R   0.034171 0.348011 0.660558 0.130870
O35   O     O_R   0.050259 0.243142 0.702905 -0.277790
O36   O     O_R   0.949934 0.323784 0.594467 -0.260586
H12   H     H_    0.109030 0.575380 0.635754 0.102389
H13   H     H_    0.901274 0.393049 0.207564 0.202165

loop_
_geom_bond_atom_site_label_1
_geom_bond_atom_site_label_2
_geom_bond_distance
_ccdc_geom_bond_type
C27   H5    1.108792 S    
C34   C35   1.523995 S    
O11   Cr3   2.060173 S    
C24   C25   1.391229 A    
O17   Cr5   1.941637 S    
N4    O33   1.302151 A    
Cr4   O26   1.984529 S    
C33   N2    1.443171 S    
O14   Cr4   2.058601 S    
O4    Cr2   1.939074 S    
C32   C33   1.402210 A    
O8    Cr1   1.934225 S    
C10   C11   1.400611 A    
C29   C33   1.437711 A    
C13   N5    1.466053 S    
C12   N4    1.465116 S    
C19   C20   1.186275 T    
N2    O30   1.301085 A    
C21   C25   1.400337 A    
C21   C22   1.394761 A    
C5    O11   1.260011 A    
N5    O35   1.302456 A    
C12   H11   1.110999 S    
C17   C18   1.197288 T    
C10   H1    1.082988 S    
C34   H8    1.110945 S    
C3    C15   1.416613 S    
O14   C39   1.275152 A    
O16   Cr5   2.057815 S    
O6    C3    1.259381 A    
C24   H2    1.081716 S    
C7    C11   1.411128 A    
C26   H4    1.108727 S    
C41   O24   1.257406 A    
C35   N3    1.464721 S    
C21   C40   1.433041 S    
O15   C37   1.281219 A    
Cr3   O13   1.975893 S    
O22   Cr5   2.058739 S    
C29   C30   1.390786 A    
Cr5   O26   1.975967 S    
C9    C13   1.499590 S    
C23   C28   1.392849 A    
O1    Cr1   2.053871 S    
O25   C42   1.258062 A    
C30   C31   1.358022 A    
O10   Cr2   1.942445 S    
C27   N1    1.460309 S    
Cr1   O13   1.984437 S    
O1    C3    1.277579 A    
C8    C9    1.387023 A    
N1    O28   1.298808 A    
C22   C23   1.370242 A    
C32   C36   1.395201 A    
Cr6   O26   1.975530 S    
O21   C40   1.269402 A    
C22   C26   1.488957 S    
C18   C39   1.418923 S    
O5    Cr3   2.060843 S    
O24   Cr6   2.061811 S    
O12   Cr3   1.940862 S    
C37   O16   1.250517 A    
C26   C27   1.506171 S    
O17   C38   1.275842 A    
N3    O32   1.301273 A    
O7    Cr1   2.057787 S    
C7    C8    1.398222 A    
O12   C6    1.268385 A    
C13   H12   1.113386 S    
N2    O29   1.301193 A    
C4    C36   1.431774 S    
C35   H9    1.109173 S    
C2    C14   1.461025 S    
Cr2   O13   1.975735 S    
C10   C14   1.404395 A    
C16   C37   1.414831 S    
N5    O36   1.300605 A    
C11   H10   1.083173 S    
O20   C42   1.280083 A    
C1    O3    1.253169 A    
C6    C28   1.433714 S    
C5    C19   1.399947 S    
O23   Cr5   1.939738 S    
C9    C14   1.401664 A    
C12   C13   1.529301 S    
O19   Cr6   1.943204 S    
O9    Cr2   2.055697 S    
O2    Cr1   1.939742 S    
O18   Cr6   2.059418 S    
C8    C12   1.500550 S    
N1    O27   1.300483 A    
O6    Cr3   1.940969 S    
O8    C4    1.273560 A    
N4    O34   1.300723 A    
C2    O5    1.302119 A    
O21   Cr4   1.938897 S    
C1    C17   1.417430 S    
C32   H6    1.083848 S    
C15   C16   1.196419 T    
O2    C1    1.279647 A    
C26   H13   1.111708 S    
O23   C41   1.263882 A    
C29   C42   1.444481 S    
N3    O31   1.300737 A    
O4    C2    1.298840 A    
O7    C6    1.264097 A    
C7    C38   1.462608 S    
C30   C34   1.500680 S    
C25   H3    1.083317 S    
C34   H7    1.111419 S    
C40   O22   1.260936 A    
C31   C36   1.394822 A    
C38   O18   1.264247 A    
O3    Cr2   2.061267 S    
C23   C27   1.505149 S    
C4    O9    1.256927 A    
O19   C39   1.262497 A    
O25   Cr6   1.939136 S    
C20   C41   1.399634 S    
C24   C28   1.408012 A    
O10   C5    1.262293 A    
O20   Cr4   2.053050 S    
O15   Cr4   1.935182 S    
C31   C35   1.501301 S    
