data_mof_unit_42803.cif
_audit_creation_date              2012-12-11T15:41:24-0500
_audit_creation_method            fapswitch 2.2
_symmetry_space_group_name_H-M    P1
_symmetry_Int_Tables_number       1
_space_group_crystal_system       triclinic
_cell_length_a                    19.046732
_cell_length_b                    10.977142
_cell_length_c                    18.801184
_cell_angle_alpha                 90.079045
_cell_angle_beta                  90.339559
_cell_angle_gamma                 89.97596
_cell_volume                      3930.85366181

loop_
_atom_site_label
_atom_site_type_symbol
_atom_type_description
_atom_site_fract_x
_atom_site_fract_y
_atom_site_fract_z
_atom_type_partial_charge
C1    C     C_R   0.727888 0.954152 0.852633 0.544089
C2    C     C_R   0.305452 0.444211 0.034886 0.024414
C3    C     C_R   0.761486 0.858956 0.355049 0.553778
C4    C     C_2   0.498412 0.170532 0.921765 -0.098019
C5    C     C_2   0.502235 0.165507 0.078145 -0.143650
C6    C     C_2   0.998422 0.670523 0.921773 -0.098342
C7    C     C_2   0.002249 0.665508 0.078153 -0.143262
C8    C     C_2   0.495970 0.062037 0.038263 0.226186
C9    C     C_2   0.495981 0.064561 0.957967 0.250648
C10   C     C_2   0.995998 0.562030 0.038276 0.226341
C11   C     C_2   0.996005 0.564551 0.957979 0.250484
C12   C     C_R   0.761475 0.431311 0.070744 0.010342
C13   C     C_R   0.196627 0.969027 0.962287 0.005318
C14   C     C_R   0.251200 0.404549 0.920404 0.015617
C15   C     C_R   0.261468 0.931291 0.070750 0.010366
C16   C     C_R   0.751194 0.904557 0.920407 0.015583
C17   C     C_3   0.542897 0.907785 0.105115 0.001159
C18   C     C_3   0.527455 0.783528 0.137229 -0.371648
C19   C     C_3   0.524967 0.864303 0.929621 0.014073
C20   C     C_3   0.522304 0.780431 0.865100 -0.357477
C21   C     C_3   0.042925 0.407827 0.105171 0.001178
C22   C     C_3   0.027501 0.283561 0.137287 -0.371694
C23   C     C_3   0.024999 0.364286 0.929659 0.014028
C24   C     C_R   0.805451 0.944213 0.034887 0.024381
C25   C     C_3   0.022347 0.280391 0.865146 -0.357393
C26   C     C_R   0.814126 0.388325 0.956511 -0.125966
C27   C     C_R   0.220410 0.282828 0.022852 -0.173323
C28   C     C_R   0.314118 0.888302 0.956517 -0.125973
C29   C     C_R   0.720399 0.782846 0.022857 -0.173278
C30   C     C_R   0.818215 0.389829 0.029880 -0.131572
C31   C     C_R   0.213455 0.308260 0.950838 -0.172655
C32   C     C_R   0.318205 0.889801 0.029886 -0.131584
C33   C     C_R   0.274166 0.958446 0.145162 0.543749
C34   C     C_R   0.713442 0.808280 0.950844 -0.172681
C35   C     C_3   0.627591 0.448375 0.047015 -0.288194
C36   C     C_3   0.372867 0.497454 0.954407 -0.277557
C37   C     C_3   0.127588 0.948316 0.047025 -0.288115
C38   C     C_3   0.872866 0.997452 0.954408 -0.277594
C39   C     C_3   0.620740 0.435754 0.966955 -0.259225
C40   C     C_3   0.382693 0.465656 0.032285 -0.263887
C41   C     C_3   0.120737 0.935693 0.966966 -0.259292
C42   C     C_3   0.882693 0.965653 0.032286 -0.263823
C43   C     C_R   0.750824 0.417853 0.921979 0.014651
C44   C     C_R   0.227890 0.454149 0.852632 0.543844
C45   C     C_R   0.268395 0.347645 0.065192 0.015344
C46   C     C_R   0.250819 0.917837 0.921984 0.014623
C47   C     C_R   0.768392 0.847651 0.065194 0.015522
C48   C     C_R   0.483591 0.171212 0.431603 0.023445
C49   C     C_R   0.490656 0.169392 0.579409 0.019948
C50   C     C_R   0.009613 0.667822 0.420375 0.018260
C51   C     C_R   0.016705 0.671674 0.568244 0.023902
C52   C     C_R   0.471028 0.276898 0.470576 0.049968
C53   C     C_R   0.473945 0.277099 0.543108 0.028680
C54   C     C_R   0.030365 0.774063 0.455977 0.027669
C55   C     C_R   0.774168 0.458452 0.145159 0.543744
C56   C     C_R   0.033414 0.774909 0.528592 0.052441
C57   C     C_R   0.489076 0.058773 0.541997 -0.170188
C58   C     C_R   0.488165 0.059973 0.467782 -0.169357
C59   C     C_R   0.007816 0.560688 0.532713 -0.172783
C60   C     C_R   0.007276 0.558126 0.458550 -0.170055
C61   C     C_R   0.528855 0.177665 0.850266 0.563820
C62   C     C_R   0.470316 0.176920 0.149090 0.548408
C63   C     C_R   0.028859 0.677663 0.850269 0.564943
C64   C     C_R   0.970319 0.676920 0.149092 0.547331
C65   C     C_3   0.504457 0.398885 0.463333 -0.275600
C66   C     C_R   0.702856 0.478546 0.035546 0.005573
C67   C     C_3   0.507276 0.401561 0.543429 -0.268811
C68   C     C_3   0.002560 0.902395 0.454685 -0.269524
C69   C     C_3   0.005115 0.901033 0.534863 -0.271245
C70   C     C_R   0.750342 0.409509 0.421517 0.013755
C71   C     C_R   0.250961 0.400734 0.580822 0.015915
C72   C     C_R   0.249048 0.905762 0.420266 0.015239
C73   C     C_R   0.749375 0.906687 0.578990 0.015874
C74   C     C_R   0.791422 0.322870 0.457101 0.020048
C75   C     C_R   0.207163 0.319129 0.544096 0.021708
C76   C     C_R   0.289072 0.817218 0.455538 0.021460
C77   C     C_R   0.296198 0.473482 0.963731 0.026708
C78   C     C_R   0.705411 0.825582 0.542283 0.021121
C79   C     C_R   0.789142 0.314065 0.530037 0.044927
C80   C     C_R   0.210301 0.310554 0.471174 0.038861
C81   C     C_R   0.286783 0.808150 0.528494 0.043612
C82   C     C_R   0.708312 0.817039 0.469403 0.041643
C83   C     C_R   0.697557 0.464590 0.534854 -0.167361
C84   C     C_R   0.310279 0.443365 0.469406 -0.149624
C85   C     C_R   0.195384 0.958508 0.533528 -0.152013
C86   C     C_R   0.805801 0.955876 0.466874 -0.161683
C87   C     C_R   0.699311 0.473486 0.460585 -0.163380
C88   C     C_R   0.202848 0.978517 0.035553 0.005569
C89   C     C_R   0.307482 0.452215 0.543792 -0.150167
C90   C     C_R   0.197344 0.968040 0.459252 -0.151524
C91   C     C_R   0.803713 0.963634 0.541220 -0.160593
C92   C     C_3   0.869306 0.303892 0.457041 -0.269816
C93   C     C_3   0.128827 0.306898 0.542708 -0.269646
C94   C     C_3   0.366370 0.792040 0.454970 -0.270309
C95   C     C_3   0.626939 0.815948 0.541091 -0.269691
C96   C     C_3   0.866539 0.297490 0.537060 -0.270621
C97   C     C_3   0.132710 0.301252 0.462601 -0.273629
C98   C     C_3   0.363774 0.786527 0.535153 -0.269948
C99   C     C_R   0.796197 0.973485 0.963733 0.026673
C100  C     C_3   0.630603 0.808531 0.461111 -0.274831
C101  C     C_R   0.745634 0.389035 0.570414 0.020720
C102  C     C_R   0.257623 0.379904 0.432050 0.017624
C103  C     C_R   0.244029 0.884149 0.569133 0.020726
C104  C     C_R   0.754974 0.887459 0.430100 0.019570
C105  C     C_R   0.738209 0.363851 0.852685 0.549300
C106  C     C_R   0.275129 0.315540 0.139834 0.563626
C107  C     C_R   0.238208 0.863848 0.852686 0.549393
C108  C     C_R   0.775129 0.815541 0.139834 0.563591
C109  C     C_R   0.727966 0.954476 0.647775 0.549030
C110  C     C_R   0.696635 0.469056 0.962280 0.005364
C111  C     C_R   0.271801 0.954242 0.352072 0.551219
C112  C     C_R   0.228314 0.453261 0.648235 0.548042
C113  C     C_R   0.772062 0.455075 0.352405 0.551849
C114  C     C_R   0.528166 0.176553 0.645993 0.552217
C115  C     C_R   0.468054 0.176602 0.356800 0.542014
C116  C     C_R   0.031966 0.676695 0.643153 0.546956
C117  C     C_R   0.971926 0.676423 0.353935 0.548849
C118  C     C_R   0.738727 0.359553 0.645223 0.547584
C119  C     C_R   0.262322 0.356107 0.356112 0.554591
C120  C     C_R   0.238276 0.857866 0.644568 0.548417
Cr1   Cr    Cr6+3 0.769260 0.163750 0.750730 1.009390
Cr2   Cr    Cr6+3 0.385810 0.322400 0.252290 1.006100
Cr3   Cr    Cr6+3 0.114190 0.822400 0.747710 1.005026
Cr4   Cr    Cr6+3 0.885810 0.822400 0.252290 1.002699
Cr5   Cr    Cr6+3 0.230740 0.163750 0.249270 0.991595
Cr6   Cr    Cr6+3 0.269260 0.663750 0.750730 1.009206
Cr7   Cr    Cr6+3 0.730740 0.663750 0.249270 0.991917
Cr8   Cr    Cr6+3 0.612640 0.009910 0.748780 1.001294
Cr9   Cr    Cr6+3 0.387360 0.009910 0.251220 1.013188
Cr10  Cr    Cr6+3 0.112640 0.509910 0.748780 1.002089
Cr11  Cr    Cr6+3 0.887360 0.509910 0.251220 1.012530
Cr12  Cr    Cr6+3 0.614190 0.322400 0.747710 1.001104
H1    H     H_    0.948164 0.910365 0.434608 0.167661
H2    H     H_    0.351371 0.489852 0.441067 0.119981
H3    H     H_    0.158563 0.013097 0.563215 0.116925
H4    H     H_    0.844964 0.006755 0.438146 0.113960
H5    H     H_    0.665075 0.537940 0.434529 0.129861
H6    H     H_    0.345588 0.507256 0.571578 0.119331
H7    H     H_    0.163185 0.032343 0.433187 0.125255
H8    H     H_    0.840577 0.021969 0.568475 0.122489
H9    H     H_    0.897968 0.384753 0.438390 0.165827
H10   H     H_    0.102136 0.389550 0.561752 0.172342
H11   H     H_    0.397664 0.869429 0.435683 0.167007
H12   H     H_    0.043346 0.966361 0.557745 0.136383
H13   H     H_    0.601508 0.900634 0.559291 0.168398
H14   H     H_    0.884700 0.216587 0.431581 0.124921
H15   H     H_    0.110664 0.220536 0.567232 0.120915
H16   H     H_    0.378987 0.703177 0.429799 0.122726
H17   H     H_    0.607757 0.730817 0.566312 0.125087
H18   H     H_    0.882016 0.207649 0.558541 0.132813
H19   H     H_    0.114703 0.213288 0.440281 0.128149
H20   H     H_    0.377293 0.696059 0.556850 0.131246
H21   H     H_    0.612534 0.719907 0.439538 0.131634
H22   H     H_    0.891919 0.376156 0.564011 0.134103
H23   H     H_    0.469012 0.468634 0.440231 0.132990
H24   H     H_    0.110549 0.382545 0.435629 0.140007
H25   H     H_    0.390920 0.863577 0.561810 0.137818
H26   H     H_    0.608266 0.889489 0.433734 0.134360
H27   H     H_    0.519725 0.249929 0.054985 0.036334
H28   H     H_    0.491461 0.257377 0.947931 0.032007
H29   H     H_    0.019729 0.749933 0.054991 0.036431
H30   H     H_    0.991464 0.757368 0.947937 0.031891
H31   H     H_    0.857984 0.349854 0.927841 0.182667
H32   H     H_    0.187852 0.212770 0.045679 0.140889
H33   H     H_    0.357975 0.849829 0.927848 0.182663
H34   H     H_    0.561973 0.402256 0.563331 0.172309
H35   H     H_    0.687837 0.712794 0.045685 0.140892
H36   H     H_    0.865816 0.356166 0.054383 0.198751
H37   H     H_    0.176407 0.255559 0.919654 0.131430
H38   H     H_    0.365803 0.856131 0.054390 0.198752
H39   H     H_    0.676387 0.755587 0.919663 0.131418
H40   H     H_    0.097725 0.026829 0.068823 0.130343
H41   H     H_    0.883651 0.094917 0.942716 0.135742
H42   H     H_    0.597737 0.526902 0.068812 0.130321
H43   H     H_    0.383651 0.594919 0.942714 0.135735
H44   H     H_    0.621076 0.361442 0.076402 0.134519
H45   H     H_    0.557016 0.393568 0.438168 0.138148
H46   H     H_    0.398273 0.431550 0.917655 0.140075
H47   H     H_    0.121088 0.861381 0.076413 0.134545
H48   H     H_    0.898270 0.931546 0.917656 0.140069
H49   H     H_    0.610775 0.340490 0.949895 0.152915
H50   H     H_    0.413577 0.381072 0.040776 0.146209
H51   H     H_    0.110787 0.840424 0.949906 0.152725
H52   H     H_    0.913575 0.881067 0.040777 0.146354
H53   H     H_    0.585914 0.505624 0.942594 0.132569
H54   H     H_    0.399008 0.544752 0.065462 0.138180
H55   H     H_    0.085900 0.005545 0.942606 0.132528
H56   H     H_    0.472704 0.472197 0.567052 0.120750
H57   H     H_    0.899011 0.044748 0.065463 0.138211
H58   H     H_    0.495907 0.973365 0.569533 0.115401
H59   H     H_    0.493867 0.975662 0.438817 0.112994
H60   H     H_    0.999252 0.477668 0.562145 0.112243
H61   H     H_    0.998127 0.472932 0.431507 0.116972
H62   H     H_    0.560319 0.969507 0.148737 0.149953
H63   H     H_    0.586874 0.897810 0.066850 0.111691
H64   H     H_    0.510916 0.718604 0.095017 0.117605
H65   H     H_    0.575164 0.747287 0.163968 0.126206
H66   H     H_    0.484793 0.791633 0.176975 0.160553
H67   H     H_    0.040227 0.967521 0.430756 0.122943
H68   H     H_    0.508183 0.808992 0.975665 0.157912
H69   H     H_    0.579732 0.896746 0.937392 0.144774
H70   H     H_    0.536927 0.830989 0.816320 0.191311
H71   H     H_    0.559222 0.703204 0.872594 0.077166
H72   H     H_    0.468407 0.743455 0.858144 0.133948
H73   H     H_    0.060307 0.469568 0.148798 0.149814
H74   H     H_    0.086923 0.397875 0.066934 0.111797
H75   H     H_    0.011201 0.218521 0.095035 0.117440
H76   H     H_    0.075152 0.247521 0.164226 0.126307
H77   H     H_    0.984675 0.291563 0.176863 0.160569
H78   H     H_    0.952424 0.903073 0.559879 0.135128
H79   H     H_    0.008205 0.308990 0.975702 0.157981
H80   H     H_    0.079761 0.396731 0.937442 0.144701
H81   H     H_    0.036982 0.330930 0.816363 0.191470
H82   H     H_    0.059260 0.203162 0.872657 0.077076
H83   H     H_    0.968451 0.243419 0.858185 0.133969
H84   H     H_    0.660737 0.519665 0.564435 0.116579
O1    O     O_R   0.784290 0.290360 0.830540 -0.525517
O2    O     O_R   0.456020 0.282110 0.333230 -0.519872
O3    O     O_R   0.043980 0.782110 0.666770 -0.519227
O4    O     O_R   0.956020 0.782110 0.333230 -0.526386
O5    O     O_R   0.679070 0.374030 0.674430 -0.508683
O6    O     O_R   0.320930 0.374030 0.325570 -0.500709
O7    O     O_R   0.179070 0.874030 0.674430 -0.505088
O8    O     O_R   0.820930 0.874030 0.325570 -0.502724
O9    O     O_3   0.665360 0.165350 0.749070 -0.247088
O10   O     O_3   0.334640 0.165350 0.250930 -0.266162
O11   O     O_3   0.165360 0.665350 0.749070 -0.248815
O12   O     O_R   0.215710 0.290360 0.169460 -0.537416
O13   O     O_3   0.834640 0.665350 0.250930 -0.264049
O14   O     O_R   0.762610 0.041070 0.825230 -0.497206
O15   O     O_R   0.237390 0.041070 0.174770 -0.516569
O16   O     O_R   0.262610 0.541070 0.825230 -0.497340
O17   O     O_R   0.737390 0.541070 0.174770 -0.516561
O18   O     O_R   0.667390 0.924160 0.829970 -0.541530
O19   O     O_R   0.332610 0.924160 0.170030 -0.508801
O20   O     O_R   0.167390 0.424160 0.829970 -0.541695
O21   O     O_R   0.832610 0.424160 0.170030 -0.508780
O22   O     O_R   0.553980 0.081420 0.821780 -0.462384
O23   O     O_R   0.284290 0.790360 0.830540 -0.525388
O24   O     O_R   0.446020 0.081420 0.178220 -0.452569
O25   O     O_R   0.053980 0.581420 0.821780 -0.461408
O26   O     O_R   0.946020 0.581420 0.178220 -0.453612
O27   O     O_R   0.543210 0.283170 0.826740 -0.537363
O28   O     O_R   0.456790 0.283170 0.173260 -0.536004
O29   O     O_R   0.043210 0.783170 0.826740 -0.537162
O30   O     O_R   0.956790 0.783170 0.173260 -0.536331
O31   O     O_R   0.678350 0.375000 0.822720 -0.501810
O32   O     O_R   0.321650 0.375000 0.177280 -0.494042
O33   O     O_R   0.178350 0.875000 0.822720 -0.502164
O34   O     O_R   0.715710 0.790360 0.169460 -0.537956
O35   O     O_R   0.821650 0.875000 0.177280 -0.494317
O36   O     O_R   0.785060 0.289300 0.670580 -0.516639
O37   O     O_R   0.214940 0.289300 0.329420 -0.517720
O38   O     O_R   0.285060 0.789300 0.670580 -0.517484
O39   O     O_R   0.714940 0.789300 0.329420 -0.517175
O40   O     O_R   0.763330 0.040090 0.676940 -0.506008
O41   O     O_R   0.236670 0.040090 0.323060 -0.506701
O42   O     O_R   0.263330 0.540090 0.676940 -0.505601
O43   O     O_R   0.736670 0.540090 0.323060 -0.506172
O44   O     O_R   0.668160 0.923110 0.670000 -0.527937
O45   O     O_R   0.554690 0.080440 0.673480 -0.512293
O46   O     O_R   0.331840 0.923110 0.330000 -0.525080
O47   O     O_R   0.168160 0.423110 0.670000 -0.528834
O48   O     O_R   0.831840 0.423110 0.330000 -0.524759
O49   O     O_3   0.481443 0.951829 0.070956 -0.548605
O50   O     O_3   0.477835 0.961460 0.918624 -0.544792
O51   O     O_3   0.981481 0.451820 0.070970 -0.548556
O52   O     O_3   0.977872 0.461439 0.918639 -0.544742
O53   O     O_R   0.445310 0.080440 0.326520 -0.513948
O54   O     O_R   0.054690 0.580440 0.673480 -0.511431
O55   O     O_R   0.945310 0.580440 0.326520 -0.514647
O56   O     O_R   0.543980 0.282110 0.666770 -0.526389

loop_
_geom_bond_atom_site_label_1
_geom_bond_atom_site_label_2
_ccdc_geom_bond_type
C100  H21   S    
C61   O27   A    
C7    C10   D    
C83   C87   A    
Cr4   O4    S    
C3    O8    A    
C80   C97   S    
C50   C117  S    
C84   C102  A    
C26   H31   S    
C37   C88   S    
C35   C39   S    
Cr6   O11   S    
C95   H13   S    
C92   C96   S    
C14   C31   A    
C72   C76   A    
C86   C104  A    
C37   H40   S    
C13   C41   S    
C83   H84   S    
C59   H60   S    
C49   C57   A    
C15   C32   A    
C5    H27   S    
C98   H20   S    
C24   C42   S    
C45   C106  S    
C69   H12   S    
C7    H29   S    
C56   C69   S    
C28   C46   A    
C19   H68   S    
C50   C54   A    
C23   H79   S    
Cr9   O19   S    
C68   H67   S    
Cr7   O39   S    
C61   O22   A    
Cr8   O44   S    
Cr2   O32   S    
C25   H82   S    
C114  O45   A    
C55   O17   A    
Cr3   O33   S    
Cr4   O35   S    
C86   C91   A    
C44   O20   A    
C94   H11   S    
C13   C46   A    
Cr10  O54   S    
Cr10  O25   S    
C38   C99   S    
C14   C77   A    
C18   H64   S    
C40   H54   S    
C23   H80   S    
C94   C98   S    
Cr8   O22   S    
Cr2   O10   S    
C22   H77   S    
Cr5   O41   S    
C23   O52   S    
Cr7   O13   S    
C62   O24   A    
C41   H55   S    
C117  O4    A    
C51   C56   A    
C43   C105  S    
C97   H24   S    
C74   C92   S    
C105  O31   A    
C63   O29   A    
C17   O49   S    
C16   C34   A    
Cr10  O11   S    
C1    O14   A    
C34   H39   S    
C39   C110  S    
C96   H22   S    
C6    H30   S    
C106  O12   A    
C8    C9    S    
C65   C67   S    
Cr9   O10   S    
C70   C74   A    
C11   O52   S    
C115  O2    A    
Cr3   O7    S    
C95   H17   S    
C43   C110  A    
Cr5   O12   S    
Cr2   O2    S    
C75   C80   A    
C78   C95   S    
Cr10  O47   S    
C85   C103  A    
C76   C94   S    
Cr11  O13   S    
C68   H1    S    
C49   C114  S    
C72   C111  S    
C33   O15   A    
C59   C60   A    
C93   H10   S    
C21   C22   S    
C71   C112  S    
C118  O5    A    
C70   C87   A    
C35   H42   S    
C17   H62   S    
Cr1   O9    S    
Cr3   O3    S    
C87   H5    S    
C3    C104  S    
C116  O54   A    
Cr6   O23   S    
C119  O37   A    
C117  O55   A    
C26   C43   A    
C90   H7    S    
C21   O51   S    
C40   H50   S    
C2    C45   A    
C94   H16   S    
C37   H47   S    
C54   C56   A    
Cr7   O17   S    
C38   H48   S    
C10   O51   S    
C107  O33   A    
C108  O35   A    
C92   H14   S    
Cr12  O5    S    
Cr4   O8    S    
C25   H83   S    
C24   C99   A    
C36   H46   S    
C20   H72   S    
C6    C11   D    
Cr3   O29   S    
Cr6   O42   S    
C95   C100  S    
C68   C69   S    
C38   H41   S    
Cr2   O28   S    
C31   H37   S    
C35   C66   S    
C42   H52   S    
C3    O39   A    
C12   C66   A    
C4    C61   S    
C119  O6    A    
C55   O21   A    
C80   C102  A    
C113  O48   A    
C21   H74   S    
Cr6   O16   S    
C29   C34   A    
C111  O46   A    
C18   H66   S    
Cr3   O11   S    
C2    C40   S    
C27   H32   S    
C6    C63   S    
C72   C90   A    
C78   C82   A    
Cr12  O27   S    
C71   C89   A    
C98   H25   S    
C28   C32   A    
C1    O18   A    
C73   C78   A    
C54   C68   S    
C96   H18   S    
C46   C107  S    
C18   H65   S    
C17   C18   S    
C97   H19   S    
C22   H76   S    
Cr6   O38   S    
C1    C16   S    
C107  O23   A    
Cr8   O45   S    
C66   C110  A    
C116  O3    A    
C48   C58   A    
C92   H9    S    
C73   C91   A    
Cr12  O56   S    
C39   H49   S    
C28   H33   S    
C85   H3    S    
C48   C115  S    
C67   H34   S    
C86   H4    S    
C29   C47   A    
C101  C118  S    
C26   C30   A    
C120  O7    A    
C105  O1    A    
C74   C79   A    
C19   O50   S    
C27   C31   A    
Cr7   O43   S    
C17   H63   S    
Cr8   O18   S    
C51   C59   A    
C84   C89   A    
C35   H44   S    
Cr5   O10   S    
C93   C97   S    
C36   C40   S    
C112  O42   A    
C67   H56   S    
C75   C93   S    
Cr1   O40   S    
C14   C44   S    
Cr11  O48   S    
C81   C103  A    
Cr11  O55   S    
C47   C108  S    
C32   H38   S    
C84   H2    S    
C81   C98   S    
Cr1   O14   S    
C83   C101  A    
C12   C30   A    
C24   C47   A    
C82   C100  S    
C70   C113  S    
C41   H51   S    
Cr4   O13   S    
C20   H71   S    
C8    O49   S    
Cr1   O36   S    
Cr11  O26   S    
C33   O19   A    
C76   C81   A    
Cr8   O9    S    
C5    C8    D    
C85   C90   A    
C115  O53   A    
C16   C99   A    
C62   O28   A    
Cr5   O37   S    
Cr1   O1    S    
C113  O43   A    
C9    O50   S    
C109  O40   A    
C51   C116  S    
C36   C77   S    
Cr7   O34   S    
C50   C60   A    
C60   H61   S    
C29   H35   S    
C19   C20   S    
C25   H81   S    
C44   O16   A    
C20   H70   S    
C79   C96   S    
Cr9   O24   S    
C2    C77   A    
C118  O36   A    
Cr12  O9    S    
C71   C75   A    
C42   H57   S    
C27   C45   A    
C57   C58   A    
C4    H28   S    
C65   H45   S    
C22   H75   S    
C109  O44   A    
C49   C53   A    
Cr11  O21   S    
C13   C88   A    
Cr10  O20   S    
Cr12  O31   S    
C103  C120  S    
C15   C33   S    
C5    C62   S    
C93   H15   S    
C114  O56   A    
C73   C109  S    
C23   C25   S    
C19   H69   S    
C37   C41   S    
C53   C67   S    
C120  O38   A    
C7    C64   S    
C12   C55   S    
Cr9   O53   S    
C10   C11   S    
C102  C119  S    
C112  O47   A    
C30   H36   S    
C91   H8    S    
C39   H53   S    
C38   C42   S    
C100  H26   S    
C57   H58   S    
C64   O26   A    
C36   H43   S    
C65   H23   S    
C89   H6    S    
Cr2   O6    S    
C108  O34   A    
C58   H59   S    
C82   C104  A    
C79   C101  A    
C64   O30   A    
C69   H78   S    
Cr4   O30   S    
C106  O32   A    
C4    C9    D    
C48   C52   A    
C21   H73   S    
C111  O41   A    
Cr5   O15   S    
C52   C65   S    
Cr9   O46   S    
C52   C53   A    
C15   C88   A    
C63   O25   A    
