data_mof_unit_68247.cif
_audit_creation_date              2013-03-05T15:40:30-0500
_audit_creation_method            fapswitch 2.2
_symmetry_space_group_name_H-M    P1
_symmetry_Int_Tables_number       1
_space_group_crystal_system       triclinic
_cell_length_a                    7.11039
_cell_length_b                    11.49628
_cell_length_c                    18.865019
_cell_angle_alpha                 89.498499
_cell_angle_beta                  92.592138
_cell_angle_gamma                 89.939465
_cell_volume                      1540.4453741

loop_
_atom_site_label
_atom_site_type_symbol
_atom_site_description
_atom_site_fract_x
_atom_site_fract_y
_atom_site_fract_z
_atom_type_partial_charge
O1    O     O_R   0.330540 0.606360 0.598870 -0.549559
O2    O     O_R   0.669460 0.106360 0.401130 -0.549982
O3    O     O_R   0.026770 0.620470 0.750430 -0.526530
O4    O     O_R   0.973230 0.120470 0.249570 -0.565221
O5    O     O_R   0.856460 0.393640 0.750930 -0.509523
O6    O     O_R   0.143540 0.893640 0.249070 -0.571242
C1    C     C_R   0.197672 0.639282 0.777712 0.845070
C2    C     C_R   0.802406 0.137131 0.221141 0.743185
O7    O     O_R   0.000920 0.620350 0.599420 -0.510177
O8    O     O_R   0.999080 0.120350 0.400580 -0.536760
O9    O     O_R   0.830430 0.393520 0.598850 -0.566409
O10   O     O_R   0.169570 0.893520 0.401150 -0.558367
C3    C     C_R   0.168152 0.649608 0.576276 0.766341
C4    C     C_R   0.832464 0.146268 0.425345 0.785033
O11   O     O_R   0.356570 0.606480 0.750960 -0.532741
O12   O     O_R   0.643430 0.106480 0.249040 -0.508268
O13   O     O_3   0.176990 0.425580 0.674890 -0.388874
O14   O     O_3   0.823010 0.925580 0.325110 -0.379728
V1    V     V_3+5 0.902170 0.513810 0.674910 1.582369
V2    V     V_3+5 0.097830 0.013810 0.325090 1.438996
O15   O     O_R   0.500800 0.379530 0.599380 -0.546317
O16   O     O_R   0.499200 0.879530 0.400620 -0.508275
C5    C     C_R   0.667068 0.356527 0.573213 0.705380
C6    C     C_R   0.333333 0.854049 0.425896 0.722817
O17   O     O_R   0.526650 0.379650 0.750390 -0.553903
O18   O     O_R   0.473350 0.879650 0.249610 -0.517813
C7    C     C_R   0.697974 0.346907 0.770291 0.788453
C8    C     C_R   0.301459 0.852391 0.227122 0.714238
V3    V     V_3+5 0.402160 0.486190 0.674900 1.523686
V4    V     V_3+5 0.597840 0.986190 0.325100 1.555918
O19   O     O_3   0.677210 0.574420 0.674910 -0.363698
O20   O     O_3   0.322790 0.074420 0.325090 -0.383258
C9    C     C_R   0.670650 0.055372 0.865566 0.112274
C10   C     C_R   0.291433 0.564554 0.133486 0.093392
C11   C     C_R   0.711501 0.257099 0.826464 -0.101880
C12   C     C_R   0.282335 0.766798 0.170067 -0.108580
C13   C     C_R   0.786554 0.334291 0.169775 -0.003823
C14   C     C_R   0.183250 0.837773 0.823039 -0.053228
C15   C     C_R   0.771853 0.411595 0.110577 0.034547
C16   C     C_R   0.157647 0.916040 0.879506 0.037955
C17   C     C_R   0.722632 0.364049 0.044868 -0.240554
C18   C     C_R   0.151322 0.870201 0.947764 -0.096093
C19   C     C_R   0.749933 0.246978 0.027712 0.122004
C20   C     C_R   0.210800 0.757224 0.967768 0.088572
C21   C     C_R   0.774717 0.167202 0.085156 -0.034324
C22   C     C_R   0.232096 0.676576 0.911857 -0.023228
C23   C     C_R   0.739783 0.209746 0.954614 0.014525
C24   C     C_R   0.243687 0.723383 0.041853 0.058105
C25   C     C_R   0.711510 0.088530 0.939168 -0.025869
C26   C     C_R   0.262237 0.601251 0.059569 -0.046333
C27   C     C_R   0.731496 0.006725 0.998101 0.006281
C28   C     C_R   0.259095 0.519704 0.002482 -0.090678
C29   C     C_R   0.771738 0.046413 0.068704 -0.055279
C30   C     C_R   0.264293 0.557815 0.930936 -0.061497
C31   C     C_R   0.754540 0.291419 0.896572 -0.106275
C32   C     C_R   0.262325 0.806363 0.099113 -0.056844
C33   C     C_R   0.669732 0.140822 0.809375 0.072384
C34   C     C_R   0.296219 0.648692 0.188476 0.085682
C35   C     C_R   0.787030 0.212585 0.157131 -0.153842
C36   C     C_R   0.211152 0.718062 0.839037 -0.147913
H1    H     H_    0.650363 0.421820 0.007509 0.151490
H2    H     H_    0.091994 0.927115 0.985243 0.158601
C37   C     C_2   0.830639 0.226382 0.487209 -0.247131
C38   C     C_2   0.179946 0.749100 0.525343 -0.236031
C39   C     C_2   0.669457 0.279496 0.509812 -0.253937
C40   C     C_2   0.326319 0.758822 0.479891 -0.272454
C41   C     C_3   0.614234 0.113682 0.730186 -0.420879
C42   C     C_3   0.772334 0.123522 0.678235 -0.707980
H3    H     H_    0.709102 0.130359 0.623626 0.218244
H4    H     H_    0.865550 0.199054 0.688164 0.225869
H5    H     H_    0.856672 0.043068 0.679242 0.232401
H6    H     H_    0.554905 0.027307 0.718925 0.231738
H7    H     H_    0.499799 0.173787 0.711689 0.190130
C43   C     C_3   0.333641 0.617113 0.268233 -0.379578
C44   C     C_3   0.160276 0.630170 0.312839 -0.719109
H8    H     H_    0.204065 0.649749 0.367919 0.202859
H9    H     H_    0.062267 0.698955 0.292900 0.243656
H10   H     H_    0.084053 0.547225 0.315964 0.210927
H11   H     H_    0.389209 0.529317 0.280037 0.228911
H12   H     H_    0.448384 0.672664 0.290892 0.186366
C45   C     C_2   0.483795 0.264298 0.471922 0.462606
H13   H     H_    0.418826 0.179128 0.468346 0.088238
O21   O     O_2   0.400263 0.348218 0.445860 -0.549289
C46   C     C_2   0.467557 0.663416 0.473170 0.447927
H14   H     H_    0.427352 0.573413 0.480670 0.082445
O22   O     O_2   0.629226 0.684169 0.457909 -0.502743
C47   C     C_2   0.698940 0.877977 0.991861 0.417271
H15   H     H_    0.558248 0.844042 0.987463 0.112142
O23   O     O_2   0.823013 0.806913 0.004522 -0.562323
C48   C     C_2   0.220192 0.393623 0.015053 0.308671
H16   H     H_    0.109730 0.369897 0.049436 0.084866
O24   O     O_2   0.309521 0.316225 0.987996 -0.535757
C49   C     C_3   0.592604 0.936799 0.846010 -0.376359
C50   C     C_3   0.729076 0.849605 0.817513 -0.635840
H17   H     H_    0.806430 0.889591 0.774284 0.213326
H18   H     H_    0.824487 0.816433 0.860782 0.244313
H19   H     H_    0.649692 0.773968 0.795490 0.245872
H20   H     H_    0.510450 0.897566 0.886182 0.161248
H21   H     H_    0.479318 0.948676 0.807055 0.210522
C51   C     C_3   0.365259 0.443905 0.155310 -0.364501
C52   C     C_3   0.237060 0.363262 0.195395 -0.682211
H22   H     H_    0.155065 0.411295 0.233140 0.213474
H23   H     H_    0.144758 0.313437 0.158553 0.208549
H24   H     H_    0.323511 0.298000 0.225897 0.261140
H25   H     H_    0.425033 0.393901 0.113499 0.216182
H26   H     H_    0.489719 0.459304 0.189089 0.207443
C53   C     C_2   0.829335 0.412535 0.907018 0.379878
H27   H     H_    0.934088 0.428495 0.947288 0.074603
O25   O     O_2   0.766605 0.497409 0.874450 -0.548020
C54   C     C_2   0.275596 0.936720 0.090840 0.354805
H28   H     H_    0.209333 0.994137 0.127307 0.032211
O26   O     O_2   0.369564 0.983238 0.046573 -0.551185
C55   C     C_2   0.778945 0.375438 0.244810 0.299530
H29   H     H_    0.871144 0.440229 0.266231 0.062068
O27   O     O_2   0.663274 0.336159 0.284469 -0.529125
C56   C     C_2   0.181216 0.876974 0.747239 0.294897
H30   H     H_    0.076053 0.935595 0.726010 0.079887
O28   O     O_2   0.299696 0.842899 0.707322 -0.543646
C57   C     C_3   0.776928 0.544876 0.108765 -0.339867
C58   C     C_3   0.826459 0.609911 0.176225 -0.730289
H31   H     H_    0.713524 0.604102 0.214585 0.216655
H32   H     H_    0.959440 0.575420 0.198485 0.232424
H33   H     H_    0.850273 0.702700 0.163666 0.270694
H34   H     H_    0.881980 0.570656 0.069803 0.215529
H35   H     H_    0.641212 0.579665 0.086777 0.210027
C59   C     C_3   0.170122 0.049324 0.878189 -0.322804
C60   C     C_3   0.152103 0.114406 0.808216 -0.760300
H36   H     H_    0.264487 0.091357 0.772895 0.214505
H37   H     H_    0.014424 0.095878 0.783092 0.239484
H38   H     H_    0.160843 0.209112 0.817869 0.273821
H39   H     H_    0.061751 0.085674 0.911766 0.199545
H40   H     H_    0.305450 0.075065 0.905024 0.231686
C61   C     C_2   0.798816 0.957626 0.125754 0.391162
H41   H     H_    0.924581 0.956940 0.158902 0.020178
O29   O     O_2   0.678580 0.885081 0.136381 -0.521972
C62   C     C_2   0.304207 0.468330 0.877862 0.405746
H42   H     H_    0.443814 0.433497 0.876267 0.112587
O30   O     O_2   0.178710 0.424789 0.840979 -0.539855
C63   C     C_2   0.017272 0.243919 0.524091 0.398012
H43   H     H_    0.079436 0.329953 0.527178 0.098867
O31   O     O_2   0.104274 0.161247 0.550071 -0.563162
C64   C     C_2   0.045750 0.847521 0.534618 0.478344
H44   H     H_    0.082759 0.935370 0.519539 0.085362
O32   O     O_2   0.894087 0.832369 0.561109 -0.507909

loop_
_geom_bond_atom_site_label_1
_geom_bond_atom_site_label_2
_geom_bond_distance
_ccdc_geom_bond_type
V4    O20   2.202141 S    
C47   H15   1.074116 S    
C37   C39   1.383980 D    
C49   C50   1.513276 S    
O13   V3    1.746767 S    
C28   C48   1.494812 S    
C17   H1    1.077130 S    
O4    C2    1.318492 A    
V1    O19   1.744056 S    
C45   H13   1.084417 S    
C23   C25   1.438634 A    
C57   H34   1.110120 S    
O9    V1    2.049748 S    
C51   H25   1.082120 S    
C52   H22   1.093430 S    
C59   C60   1.511948 S    
C46   O22   1.220879 D    
C12   C34   1.400820 A    
C2    C35   1.480578 S    
C13   C55   1.499673 S    
C9    C25   1.459666 A    
C56   H30   1.068089 S    
C41   H6    1.097996 S    
C44   H9    1.105609 S    
O7    C3    1.327748 A    
C54   H28   1.080546 S    
O5    C7    1.314161 A    
C39   C45   1.483758 S    
O7    V1    2.020651 S    
O6    C8    1.304414 A    
O8    V2    2.034813 S    
C42   H3    1.107362 S    
C25   C27   1.451828 A    
C26   C28   1.433440 A    
C53   H27   1.056936 S    
C34   C43   1.555795 S    
O3    V1    2.058372 S    
C41   H7    1.109141 S    
C16   C18   1.389692 A    
C19   C23   1.446185 A    
C18   H2    1.067923 S    
C58   H33   1.105577 S    
C6    C40   1.491221 S    
C24   C26   1.444963 A    
C21   C29   1.425506 A    
C2    O12   1.315424 A    
C43   H12   1.109303 S    
C61   O29   1.216852 D    
C53   O25   1.221591 D    
C22   C30   1.424533 A    
C18   C20   1.408559 A    
C33   C41   1.562008 S    
C32   C54   1.508852 S    
O18   C8    1.314619 A    
C45   O21   1.220378 D    
C28   C30   1.417486 A    
O11   V3    2.037691 S    
O17   V3    2.040825 S    
C13   C15   1.421193 A    
C10   C26   1.459075 A    
C43   C44   1.531603 S    
C11   C31   1.404049 A    
C41   C42   1.528073 S    
C29   C61   1.482858 S    
C46   H14   1.083542 S    
C15   C17   1.389563 A    
O8    C4    1.327529 A    
C27   C47   1.503166 S    
C1    O11   1.314313 A    
C20   C22   1.423491 A    
C50   H19   1.110622 S    
C7    C11   1.472958 S    
O15   V3    2.035764 S    
C31   C53   1.502432 S    
C27   C29   1.428472 A    
C38   C40   1.382105 D    
C44   H8    1.096488 S    
C60   H37   1.090234 S    
C12   C32   1.410955 A    
C14   C56   1.494983 S    
C48   O24   1.221383 D    
C59   H40   1.108554 S    
C57   C58   1.509749 S    
C30   C62   1.477995 S    
O10   V2    2.031996 S    
O1    V3    2.030491 S    
C50   H18   1.102670 S    
C19   C21   1.418286 A    
C13   C35   1.421443 A    
C14   C36   1.418164 A    
C57   H35   1.106026 S    
C62   O30   1.217306 D    
O18   V4    2.056846 S    
C52   H24   1.109659 S    
C43   H11   1.100771 S    
O15   C5    1.328797 A    
C61   H41   1.067749 S    
O16   C6    1.324108 A    
O1    C3    1.308677 A    
C60   H36   1.097069 S    
C1    C36   1.475247 S    
C64   O32   1.220913 D    
C58   H31   1.106709 S    
C58   H32   1.089957 S    
C23   C31   1.443666 A    
C55   H29   1.063110 S    
V2    O20   1.745406 S    
C24   C32   1.449084 A    
C49   H21   1.073317 S    
C21   C35   1.457818 A    
C9    C33   1.438722 A    
O16   V4    2.021589 S    
C22   C36   1.451462 A    
C64   H44   1.082795 S    
C37   C63   1.485016 S    
C17   C19   1.402340 A    
C62   H42   1.071779 S    
C9    C49   1.514639 S    
C63   H43   1.084731 S    
O5    V1    2.019733 S    
C51   H26   1.082538 S    
O17   C7    1.312171 A    
O6    V2    2.036367 S    
O10   C6    1.313668 A    
O3    C1    1.316914 A    
C52   H23   1.099274 S    
O2    V4    2.048231 S    
C11   C33   1.406689 A    
C5    C39   1.495132 S    
C47   O23   1.216052 D    
C60   H38   1.106809 S    
V3    O19   2.204045 S    
C14   C16   1.418267 A    
C63   O31   1.220395 D    
C48   H16   1.074927 S    
C3    C38   1.492237 S    
C38   C64   1.495869 S    
C59   H39   1.103511 S    
C42   H5    1.101338 S    
C15   C57   1.532814 S    
C4    C37   1.493533 S    
O9    C5    1.310667 A    
C51   C52   1.521227 S    
O13   V1    2.200714 S    
C56   O28   1.221500 D    
O14   V2    2.202614 S    
C50   H17   1.101569 S    
O2    C4    1.311267 A    
C44   H10   1.099770 S    
C54   O26   1.213772 D    
O14   V4    1.745416 S    
C40   C46   1.496410 S    
O4    V2    2.042340 S    
C8    C12   1.466584 S    
C42   H4    1.105093 S    
C10   C34   1.423857 A    
C16   C59   1.534976 S    
C10   C51   1.528980 S    
O12   V4    2.021041 S    
C49   H20   1.074062 S    
C20   C24   1.456038 A    
C55   O27   1.220917 D    
