data_mof_unit_46273.cif
_audit_creation_date              2012-10-26T18:50:46-0400
_audit_creation_method            fapswitch 2.2
_symmetry_space_group_name_H-M    P1
_symmetry_Int_Tables_number       1
_space_group_crystal_system       triclinic
_cell_length_a                    12.410068
_cell_length_b                    13.173736
_cell_length_c                    17.186326
_cell_angle_alpha                 106.424531
_cell_angle_beta                  75.010901
_cell_angle_gamma                 116.848299
_cell_volume                      2376.25728904

loop_
_atom_site_label
_atom_site_type_symbol
_atom_type_description
_atom_site_fract_x
_atom_site_fract_y
_atom_site_fract_z
_atom_type_partial_charge
C1    C     C_R   0.144384 0.714349 0.508232 0.608502
C2    C     C_R   0.024474 0.502943 0.263176 0.031504
C3    C     C_R   0.729435 0.969229 0.392240 -0.122259
C4    C     C_R   0.985563 0.500864 0.652163 0.567274
C5    C     C_R   0.774702 0.162772 0.472448 0.002680
C6    C     C_R   0.183372 0.923385 0.564292 0.245383
C7    C     C_R   0.265089 0.039771 0.579686 -0.121712
C8    C     C_R   0.388870 0.072887 0.551036 -0.152752
C9    C     C_R   0.435578 0.991138 0.502577 0.013847
C10   C     C_R   0.351714 0.875688 0.477668 -0.022787
C11   C     C_R   0.562941 0.021288 0.476306 0.034451
C12   C     C_R   0.875409 0.510028 0.795444 -0.112403
C13   C     C_R   0.604003 0.939655 0.419570 0.039834
C14   C     C_R   0.519356 0.831043 0.388480 -0.137448
C15   C     C_R   0.395261 0.800394 0.415648 -0.110663
C16   C     C_R   0.856245 0.285943 0.488097 0.527415
C17   C     C_R   0.651078 0.130665 0.504637 -0.123754
C18   C     C_R   0.814484 0.080919 0.417795 -0.124056
C19   C     C_R   0.226499 0.839436 0.514415 0.048838
C20   C     C_R   0.694191 0.722070 0.584949 0.255846
C21   C     C_R   0.242155 0.341207 0.395377 0.045568
C22   C     C_R   0.336852 0.304614 0.373847 -0.145441
C23   C     C_R   0.047376 0.614675 0.165189 -0.081777
C24   C     C_R   0.441338 0.367145 0.411351 -0.119768
C25   C     C_R   0.453852 0.468890 0.470887 -0.045031
C26   C     C_R   0.354824 0.504311 0.491570 0.194736
C27   C     C_R   0.561095 0.536057 0.510647 -0.069457
C28   C     C_R   0.013001 0.497065 0.348175 0.554794
C29   C     C_R   0.580510 0.649702 0.556305 -0.014084
C30   C     C_R   0.483363 0.684239 0.577402 -0.029927
C31   C     C_R   0.369102 0.606316 0.553908 0.224034
C32   C     C_R   0.651380 0.495727 0.506761 0.032903
C33   C     C_R   0.770459 0.672626 0.586577 0.123018
C34   C     C_R   0.042226 0.608288 0.245987 0.235797
C35   C     C_R   0.970882 0.491268 0.737416 -0.015283
C36   C     C_R   0.048750 0.457933 0.760422 -0.135885
C37   C     C_R   0.031763 0.443750 0.840233 -0.168363
C38   C     C_R   0.937080 0.463050 0.898433 0.034955
C39   C     C_R   0.857839 0.496225 0.876421 0.252127
C40   C     C_2   0.489506 0.794718 0.634759 0.235253
C41   C     C_2   0.995728 0.292729 0.216616 0.230991
C42   C     C_2   0.808005 0.375979 0.023131 0.306034
C43   C     C_R   0.016210 0.405330 0.199687 -0.030193
C44   C     C_R   0.021753 0.414286 0.119456 -0.041970
C45   C     C_R   0.033260 0.517141 0.103143 0.010305
C46   C     C_2   0.927060 0.455045 0.983578 0.039472
C47   C     C_2   0.026295 0.522189 0.021112 -0.124707
Cu1   Cu    Cu3+1 0.900140 0.524980 0.518800 0.998157
Cu2   Cu    Cu3+1 0.099860 0.475020 0.481200 0.980676
H1    H     H_    0.122473 0.442052 0.716743 0.148981
H2    H     H_    0.853708 0.725778 0.612286 0.203723
H3    H     H_    0.645088 0.411640 0.472106 0.128465
H4    H     H_    0.161384 0.291524 0.366022 0.125415
H5    H     H_    0.512722 0.335920 0.390939 0.120773
H6    H     H_    0.329321 0.227289 0.327640 0.124564
H7    H     H_    0.105971 0.585122 0.990243 0.120258
H8    H     H_    0.058191 0.694199 0.151026 0.114868
H9    H     H_    0.814663 0.535539 0.778027 0.125472
H10   H     H_    0.093051 0.418193 0.857001 0.122927
H11   H     H_    0.047500 0.959389 0.631754 0.335047
H12   H     H_    0.012629 0.340183 0.069695 0.170026
H13   H     H_    0.065930 0.769680 0.286586 0.321981
H14   H     H_    0.453728 0.847745 0.620489 0.126359
H15   H     H_    0.711466 0.867650 0.568783 0.328134
H16   H     H_    0.278586 0.645876 0.658948 0.315560
H17   H     H_    0.980600 0.280692 0.279010 0.108470
H18   H     H_    0.720105 0.540273 0.909486 0.328651
H19   H     H_    0.741065 0.310800 0.984904 0.129692
H20   H     H_    0.910157 0.104568 0.392231 0.128765
H21   H     H_    0.549080 0.769678 0.342264 0.124887
H22   H     H_    0.761278 0.907292 0.348719 0.128691
H23   H     H_    0.626185 0.194165 0.550979 0.122421
H24   H     H_    0.444928 0.164211 0.566207 0.112096
H25   H     H_    0.233246 0.105389 0.616510 0.112831
H26   H     H_    0.334308 0.718076 0.385146 0.159053
N1    N     N_R   0.749710 0.562810 0.547300 -0.287821
N2    N     N_R   0.249640 0.437820 0.453210 -0.220534
O1    O     O_R   0.025490 0.682370 0.523640 -0.441190
O2    O     O_3   0.053813 0.703170 0.309146 -0.687551
O3    O     O_2   0.525595 0.822276 0.700488 -0.450472
O4    O     O_3   0.738068 0.841158 0.606148 -0.652426
O5    O     O_3   0.270848 0.626418 0.599880 -0.655899
O6    O     O_2   0.994803 0.211058 0.160675 -0.496400
O7    O     O_3   0.766801 0.517501 0.935106 -0.687488
O8    O     O_2   0.781316 0.384977 0.097552 -0.483729
O9    O     O_R   0.194150 0.640180 0.491890 -0.465440
O10   O     O_R   0.905900 0.523560 0.631310 -0.512254
O11   O     O_R   0.074570 0.481370 0.599560 -0.442046
O12   O     O_R   0.805850 0.359820 0.508110 -0.521256
O13   O     O_R   0.974510 0.317630 0.476360 -0.520448
O14   O     O_R   0.925430 0.518630 0.400440 -0.458673
O15   O     O_R   0.094100 0.476440 0.368690 -0.540364
O16   O     O_3   0.061844 0.890263 0.598854 -0.688794

loop_
_geom_bond_atom_site_label_1
_geom_bond_atom_site_label_2
_ccdc_geom_bond_type
C15   H26   S    
C16   O13   A    
C23   C45   A    
C27   C29   A    
C14   H21   S    
Cu1   N1    S    
C35   C36   A    
Cu2   O13   S    
C22   H6    S    
C7    C8    A    
C4    O10   A    
C6    C19   A    
C37   C38   A    
C40   H14   S    
C36   C37   A    
C39   O7    S    
C10   C15   A    
C30   C31   A    
C5    C17   A    
C41   H17   S    
C24   H5    S    
C41   O6    D    
C3    C18   A    
C42   C46   S    
Cu1   O1    S    
C32   H3    S    
C5    C16   S    
C20   O4    S    
C8    C9    A    
Cu1   O14   S    
C40   O3    D    
C9    C10   A    
C10   C19   A    
C3    C13   A    
C12   H9    S    
H11   O16   S    
C2    C34   A    
C18   H20   S    
C4    C35   S    
C16   O12   A    
C21   C22   A    
C42   H19   S    
C1    O1    A    
C41   C43   S    
Cu2   O11   S    
C7    H25   S    
C31   O5    S    
C20   C29   A    
C45   C47   S    
C1    C19   S    
C26   N2    A    
H13   O2    S    
C24   C25   A    
C5    C18   A    
C25   C26   A    
C3    H22   S    
C43   C44   A    
C29   C30   A    
C34   O2    S    
C33   N1    A    
C2    C43   A    
C6    O16   S    
Cu1   O10   S    
C30   C40   S    
C28   O15   A    
C42   O8    D    
C12   C35   A    
C9    C11   A    
C37   H10   S    
C20   C33   A    
Cu1   Cu2   S    
Cu1   O12   S    
C22   C24   A    
C33   H2    S    
Cu2   O15   S    
C36   H1    S    
C44   C45   A    
C1    O9    A    
C23   H8    S    
C46   C47   D    
C11   C17   A    
C23   C34   A    
C27   C32   A    
Cu2   O9    S    
C32   N1    A    
C6    C7    A    
C4    O11   A    
C44   H12   S    
C25   C27   A    
C12   C39   A    
C21   H4    S    
C11   C13   A    
H16   O5    S    
C38   C39   A    
H18   O7    S    
C8    H24   S    
Cu2   N2    S    
C28   O14   A    
H15   O4    S    
C38   C46   S    
C26   C31   A    
C17   H23   S    
C21   N2    A    
C14   C15   A    
C2    C28   S    
C13   C14   A    
C47   H7    S    
