data_mof_unit_36954.cif
_audit_creation_date              2012-10-26T18:33:56-0400
_audit_creation_method            fapswitch 2.2
_symmetry_space_group_name_H-M    P1
_symmetry_Int_Tables_number       1
_space_group_crystal_system       triclinic
_cell_length_a                    11.028469
_cell_length_b                    10.746172
_cell_length_c                    9.606116
_cell_angle_alpha                 88.982642
_cell_angle_beta                  102.830028
_cell_angle_gamma                 91.936563
_cell_volume                      1109.33842501

loop_
_atom_site_label
_atom_site_type_symbol
_atom_type_description
_atom_site_fract_x
_atom_site_fract_y
_atom_site_fract_z
_atom_type_partial_charge
C1    C     C_R   0.494321 0.262639 0.499435 0.585873
C2    C     C_2   0.873802 0.493071 0.594536 0.227392
C3    C     C_2   0.066474 0.467750 0.509488 -0.056632
C4    C     C_2   0.931186 0.467944 0.488975 -0.097174
C5    C     C_R   0.385103 0.057605 0.441556 0.184211
C6    C     C_R   0.613314 0.943072 0.554462 0.183647
C7    C     C_R   0.392215 0.928579 0.441125 -0.153082
C8    C     C_R   0.605875 0.071812 0.556541 -0.155122
C9    C     C_R   0.504727 0.871624 0.497754 -0.033257
C10   C     C_R   0.493383 0.128699 0.500590 -0.034085
C11   C     C_3   0.363528 0.302562 0.831100 -0.317613
C12   C     C_R   0.504205 0.737496 0.500050 0.588250
C13   C     C_3   0.637947 0.696652 0.169317 -0.288966
C14   C     C_R   0.262499 0.500186 0.441106 0.570082
C15   C     C_R   0.737545 0.497935 0.559025 0.582662
C16   C     C_R   0.434515 0.411545 0.061335 0.079928
C17   C     C_R   0.565345 0.588511 0.938629 0.073432
C18   C     C_R   0.434083 0.409916 0.913534 0.114833
C19   C     C_R   0.566171 0.589952 0.086550 0.100934
C20   C     C_2   0.126253 0.499206 0.405816 0.231857
Cu1   Cu    Cu3+1 0.500000 0.500020 0.640660 1.045003
Cu2   Cu    Cu3+1 0.500000 0.499980 0.359340 1.037040
H1    H     H_    0.876442 0.449201 0.382443 0.187100
H2    H     H_    0.428916 0.229799 0.818085 0.144761
H3    H     H_    0.296453 0.257802 0.888844 0.135175
H4    H     H_    0.573251 0.769095 0.185082 0.147446
H5    H     H_    0.696359 0.665809 0.271317 0.230108
H6    H     H_    0.703171 0.742622 0.109936 0.128287
H7    H     H_    0.190440 0.133841 0.579970 0.353890
H8    H     H_    0.738367 0.871396 0.840136 0.334406
H9    H     H_    0.119625 0.442606 0.614561 0.178699
H10   H     H_    0.383342 0.340657 0.107594 0.174246
H11   H     H_    0.616332 0.659337 0.892220 0.168711
H12   H     H_    0.309786 0.871525 0.398725 0.161615
H13   H     H_    0.688143 0.128736 0.600063 0.168219
H14   H     H_    0.907953 0.635735 0.935330 0.417196
H15   H     H_    0.170764 0.685356 0.175969 0.347320
H16   H     H_    0.307468 0.332485 0.727596 0.203593
N1    N     N_R   0.500030 0.500030 0.852080 -0.226991
N2    N     N_R   0.499970 0.499970 0.147920 -0.233502
O1    O     O_R   0.499990 0.319660 0.618740 -0.523791
O2    O     O_2   0.053353 0.626674 0.768131 -0.243303
O3    O     O_3   0.863310 0.566293 0.877115 -0.426373
O4    O     O_2   0.980887 0.428652 0.156934 -0.168303
O5    O     O_2   0.950687 0.637106 0.238920 -0.317671
O6    O     O_3   0.144061 0.602635 0.133830 -0.443062
O7    O     O_2   0.250064 0.219226 0.259636 -0.230327
O8    O     O_2   0.141449 0.028946 0.314388 -0.223607
O9    O     O_3   0.195757 0.199604 0.507825 -0.540578
O10   O     O_2   0.782952 0.780788 0.518963 -0.253140
O11   O     O_2   0.862414 0.972844 0.644131 -0.227395
O12   O     O_R   0.500010 0.680340 0.381260 -0.523130
O13   O     O_3   0.757062 0.804887 0.778676 -0.500000
O14   O     O_R   0.499990 0.319630 0.381170 -0.484580
O15   O     O_R   0.500010 0.680370 0.618830 -0.484050
O16   O     O_R   0.320690 0.500020 0.575130 -0.536460
O17   O     O_R   0.679310 0.499980 0.424870 -0.543603
O18   O     O_R   0.320680 0.499990 0.337560 -0.438101
O19   O     O_R   0.679320 0.500010 0.662440 -0.421799
O20   O     O_2   0.023749 0.408735 0.834677 -0.230034
S1    S     S_3+6 0.958062 0.523934 0.772174 0.109768
S2    S     S_3+6 0.046058 0.542389 0.230699 0.056802
S3    S     S_3+6 0.239359 0.126088 0.374936 0.045823
S4    S     S_3+6 0.759024 0.875434 0.621971 0.057420

loop_
_geom_bond_atom_site_label_1
_geom_bond_atom_site_label_2
_ccdc_geom_bond_type
Cu2   O18   S    
Cu1   O16   S    
C14   O16   A    
C18   N1    A    
C5    C7    A    
C11   C18   S    
O9    S3    S    
C16   H10   S    
O10   S4    D    
O5    S2    D    
C2    C4    D    
Cu1   N1    S    
C2    S1    S    
C1    O14   A    
Cu2   N2    S    
C6    C9    A    
C3    C20   D    
C13   H6    S    
C16   C18   A    
H7    O9    S    
Cu1   Cu2   S    
O8    S3    D    
C3    H9    S    
C2    C15   S    
C15   O17   A    
O2    S1    D    
C5    S3    S    
C17   H11   S    
O6    S2    S    
Cu1   O1    S    
Cu2   O17   S    
C8    C10   A    
O4    S2    D    
C12   O12   A    
C16   N2    A    
Cu1   O19   S    
Cu2   O12   S    
C7    C9    A    
C20   S2    S    
C14   O18   A    
H8    O13   S    
C13   H4    S    
C12   O15   A    
C19   N2    A    
C11   H3    S    
C3    C4    S    
C14   C20   S    
C11   H2    S    
C5    C10   A    
C7    H12   S    
O3    S1    S    
Cu2   O14   S    
C17   N1    A    
C6    S4    S    
Cu1   O15   S    
C4    H1    S    
C13   C19   S    
C13   H5    S    
C11   H16   S    
C6    C8    A    
C1    C10   S    
C17   C19   A    
H15   O6    S    
C9    C12   S    
C15   O19   A    
O13   S4    S    
O11   S4    D    
C1    O1    A    
O7    S3    D    
O20   S1    D    
H14   O3    S    
C8    H13   S    
