data_mof_unit_48827.cif
_audit_creation_date              2012-12-10T18:43:42-0500
_audit_creation_method            fapswitch 2.2
_symmetry_space_group_name_H-M    P1
_symmetry_Int_Tables_number       1
_space_group_crystal_system       triclinic
_cell_length_a                    10.832428
_cell_length_b                    10.586418
_cell_length_c                    9.948395
_cell_angle_alpha                 91.855585
_cell_angle_beta                  106.308062
_cell_angle_gamma                 90.988381
_cell_volume                      1093.96021418

loop_
_atom_site_label
_atom_site_type_symbol
_atom_type_description
_atom_site_fract_x
_atom_site_fract_y
_atom_site_fract_z
_atom_type_partial_charge
C1    C     C_R   0.501015 0.260651 0.498515 0.887440
C2    C     C_R   0.499152 0.739353 0.501570 0.869930
C3    C     C_R   0.258264 0.501072 0.438972 0.797990
C4    C     C_R   0.741728 0.498983 0.561022 0.793237
C5    C     C_R   0.562897 0.592649 0.096801 -0.182225
C6    C     C_R   0.437492 0.407073 0.903396 -0.173100
C7    C     C_R   0.563978 0.594654 0.954693 0.493982
C8    C     C_R   0.435513 0.405791 0.045226 0.497030
C9    C     C_2   0.119600 0.512247 0.401156 0.246697
C10   C     C_2   0.880407 0.488135 0.598887 0.242374
C11   C     C_2   0.063986 0.481838 0.500782 -0.217949
C12   C     C_2   0.936011 0.518688 0.499300 -0.223890
C13   C     C_R   0.606789 0.063761 0.474206 0.169537
C14   C     C_R   0.393747 0.936269 0.526519 0.182892
C15   C     C_R   0.603892 0.933756 0.478179 -0.199325
C16   C     C_R   0.396565 0.066251 0.522349 -0.170098
C17   C     C_R   0.498966 0.871950 0.504639 -0.038086
C18   C     C_R   0.501422 0.128058 0.495751 -0.052658
H1    H     H_    0.881412 0.568742 0.409436 0.227473
H2    H     H_    0.118533 0.431719 0.590617 0.227350
H3    H     H_    0.611162 0.666438 0.171675 0.211253
H4    H     H_    0.389166 0.333114 0.828747 0.211192
H5    H     H_    0.683259 0.880112 0.461720 0.155521
H6    H     H_    0.317195 0.119882 0.538821 0.158869
N1    N     N_R   0.499970 0.499970 0.857200 -0.166661
N2    N     N_R   0.500030 0.500030 0.142800 -0.167511
O1    O     O_R   0.499990 0.316750 0.614620 -0.621634
O2    O     O_R   0.500010 0.683250 0.385380 -0.625027
O3    O     O_R   0.499990 0.316780 0.385290 -0.546573
O4    O     O_R   0.500010 0.683220 0.614710 -0.548445
O5    O     O_R   0.317810 0.500000 0.571850 -0.648673
O6    O     O_R   0.682190 0.500000 0.428150 -0.646583
O7    O     O_R   0.317810 0.500030 0.342520 -0.501426
O8    O     O_R   0.682190 0.499970 0.657480 -0.491376
Zn1   Zn    Zn3+2 0.500000 0.499980 0.653120 1.062894
Zn2   Zn    Zn3+2 0.500000 0.500020 0.346880 1.063028
S1    S     S_3+6 0.963134 0.417549 0.757929 0.066360
O9    O     O_2   0.999928 0.286413 0.724513 -0.300901
O10   O     O_2   0.082986 0.494590 0.828625 -0.266818
O11   O     O_3   0.870093 0.408524 0.867274 -0.463303
H7    H     H_    0.915699 0.351608 0.941083 0.416295
S2    S     S_3+6 0.036940 0.582991 0.242167 0.064471
O12   O     O_2   0.917073 0.506014 0.171366 -0.260914
O13   O     O_2   0.000143 0.714111 0.275650 -0.304653
O14   O     O_3   0.130032 0.592077 0.132877 -0.472332
H8    H     H_    0.084700 0.649339 0.059344 0.413280
S3    S     S_3+6 0.642673 0.731277 0.913851 0.094170
O15   O     O_2   0.542408 0.824227 0.847818 -0.308325
O16   O     O_2   0.728352 0.792825 0.046464 -0.255558
O17   O     O_3   0.735502 0.700121 0.808236 -0.494881
H9    H     H_    0.760805 0.783903 0.781374 0.365903
S4    S     S_3+6 0.352400 0.272234 0.085495 0.090566
O18   O     O_2   0.274094 0.304807 0.183461 -0.251190
O19   O     O_2   0.262451 0.214713 0.953074 -0.260091
O20   O     O_3   0.460346 0.163215 0.155497 -0.554211
H10   H     H_    0.408478 0.089620 0.170034 0.385958
C19   C     C_3   0.722754 0.131918 0.452268 -0.744560
H11   H     H_    0.694684 0.184759 0.354274 0.275772
H12   H     H_    0.764576 0.199233 0.542080 0.237326
H13   H     H_    0.798601 0.065236 0.444055 0.248745
C20   C     C_3   0.277921 0.868161 0.548868 -0.754212
H14   H     H_    0.235981 0.800663 0.459262 0.236227
H15   H     H_    0.306227 0.815564 0.647026 0.270770
H16   H     H_    0.202083 0.934852 0.557090 0.248657

loop_
_geom_bond_atom_site_label_1
_geom_bond_atom_site_label_2
_ccdc_geom_bond_type
C20   H16   S    
C2    O2    A    
O20   H10   S    
C15   C17   A    
S1    O9    D    
C3    C9    S    
S1    O11   S    
C8    N2    A    
C8    S4    S    
S3    O15   D    
C7    N1    A    
S4    O20   S    
C2    O4    A    
C11   C12   S    
O3    Zn2   S    
C15   H5    S    
O17   H9    S    
C9    S2    S    
C16   H6    S    
C16   C18   A    
O14   H8    S    
C2    C17   S    
C3    O5    A    
C9    C11   D    
C14   C17   A    
C19   H11   S    
C4    O6    A    
S2    O13   D    
O4    Zn1   S    
N1    Zn1   S    
C10   S1    S    
C13   C18   A    
C12   H1    S    
C1    O3    A    
O11   H7    S    
S4    O19   D    
S3    O17   S    
C5    C7    A    
C13   C15   A    
C4    O8    A    
C20   H14   S    
S1    O10   D    
C14   C16   A    
C11   H2    S    
C19   H12   S    
C6    N1    A    
C13   C19   S    
S2    O12   D    
C3    O7    A    
C4    C10   S    
C5    N2    A    
C6    H4    S    
O6    Zn2   S    
O7    Zn2   S    
C5    H3    S    
S4    O18   D    
O2    Zn2   S    
S3    O16   D    
O8    Zn1   S    
N2    Zn2   S    
C1    O1    A    
O5    Zn1   S    
C1    C18   S    
C19   H13   S    
C6    C8    A    
O1    Zn1   S    
C10   C12   D    
C14   C20   S    
C20   H15   S    
S2    O14   S    
C7    S3    S    
