data_mof_unit_5669.cif
_audit_creation_date              2012-12-10T18:58:09-0500
_audit_creation_method            fapswitch 2.2
_symmetry_space_group_name_H-M    P1
_symmetry_Int_Tables_number       1
_space_group_crystal_system       triclinic
_cell_length_a                    10.712177
_cell_length_b                    10.254018
_cell_length_c                    15.701527
_cell_angle_alpha                 90.862007
_cell_angle_beta                  94.673761
_cell_angle_gamma                 87.958366
_cell_volume                      1717.74677657

loop_
_atom_site_label
_atom_site_type_symbol
_atom_type_description
_atom_site_fract_x
_atom_site_fract_y
_atom_site_fract_z
_atom_type_partial_charge
C1    C     C_R   0.872135 0.497408 0.503252 -0.186814
C2    C     C_R   0.128360 0.508031 0.514625 -0.244770
C3    C     C_R   0.261399 0.502401 0.504774 0.894033
C4    C     C_R   0.738625 0.498337 0.499512 0.935486
C5    C     C_R   0.502789 0.499137 0.340324 0.876449
C6    C     C_R   0.499891 0.501186 0.659590 0.874480
C7    C     C_R   0.545105 0.621483 0.959513 0.131614
C8    C     C_R   0.500294 0.385464 0.041387 0.121639
C9    C     C_R   0.562353 0.613924 0.049066 0.111938
C10   C     C_R   0.478211 0.393959 0.952762 0.114389
C11   C     C_R   0.503346 0.510663 0.913084 0.001796
C12   C     C_R   0.535834 0.497269 0.088589 0.001294
C13   C     C_1   0.500131 0.509934 0.823338 0.033612
C14   C     C_1   0.529812 0.496667 0.178192 0.047646
C15   C     C_1   0.517868 0.497298 0.252607 -0.206007
C16   C     C_1   0.499415 0.505397 0.748119 -0.190430
C17   C     C_R   0.520461 0.069567 0.574426 0.083366
C18   C     C_R   0.463489 0.928620 0.426654 0.111780
C19   C     C_R   0.480880 0.068473 0.425439 0.058346
C20   C     C_R   0.540122 0.928971 0.572082 0.098846
C21   C     C_R   0.073158 0.408076 0.557475 0.147316
C22   C     C_R   0.929202 0.591063 0.456277 0.173305
C23   C     C_R   0.943337 0.415528 0.561379 0.132165
C24   C     C_R   0.054240 0.613926 0.480518 0.113719
N1    N     N_R   0.500000 0.857200 0.500000 -0.117633
N2    N     N_R   0.500000 0.142800 0.500000 -0.118868
O1    O     O_R   0.316770 0.614620 0.499990 -0.637802
O2    O     O_R   0.683230 0.385380 0.500010 -0.604054
O3    O     O_R   0.683230 0.614620 0.500010 -0.639233
O4    O     O_R   0.316770 0.385380 0.499990 -0.597209
O5    O     O_R   0.499980 0.614630 0.378020 -0.631741
O6    O     O_R   0.500020 0.385370 0.621980 -0.617757
O7    O     O_R   0.500020 0.614630 0.621980 -0.633645
O8    O     O_R   0.499980 0.385370 0.378020 -0.625858
Zn1   Zn    Zn3+2 0.500000 0.653120 0.500000 0.904517
Zn2   Zn    Zn3+2 0.500000 0.346880 0.500000 0.929559
C25   C     C_3   0.518306 0.131758 0.662414 -0.311791
C26   C     C_3   0.651499 0.173354 0.696170 -0.278184
C27   C     C_3   0.670836 0.176451 0.793560 -0.936466
H1    H     H_    0.628976 0.267838 0.818357 0.289009
H2    H     H_    0.629701 0.091133 0.822075 0.256663
H3    H     H_    0.772588 0.174079 0.813842 0.244698
H4    H     H_    0.723706 0.105563 0.671892 0.200557
H5    H     H_    0.674195 0.268567 0.671465 0.269234
H6    H     H_    0.439919 0.202837 0.666455 0.231217
H7    H     H_    0.481666 0.062123 0.706902 0.135457
C28   C     C_3   0.406101 0.862580 0.343550 -0.410351
C29   C     C_3   0.278176 0.803819 0.350902 -0.263262
C30   C     C_3   0.193574 0.806681 0.267291 -0.986410
H8    H     H_    0.104156 0.759668 0.276828 0.261631
H9    H     H_    0.171600 0.908777 0.246886 0.269695
H10   H     H_    0.239852 0.752329 0.216186 0.267379
H11   H     H_    0.288801 0.700900 0.368156 0.279782
H12   H     H_    0.231055 0.861996 0.399191 0.247793
H13   H     H_    0.383172 0.929539 0.290990 0.205273
H14   H     H_    0.475625 0.800789 0.312921 0.217546
C31   C     C_3   0.471718 0.133156 0.339651 -0.287990
C32   C     C_3   0.334503 0.183682 0.318419 -0.293224
C33   C     C_3   0.304929 0.216136 0.224873 -0.910184
H15   H     H_    0.355819 0.303189 0.209242 0.294251
H16   H     H_    0.330023 0.131585 0.183906 0.264280
H17   H     H_    0.203023 0.239078 0.212552 0.240364
H18   H     H_    0.268419 0.108289 0.334391 0.197754
H19   H     H_    0.311258 0.269847 0.357916 0.252621
H20   H     H_    0.550328 0.196832 0.334840 0.220421
H21   H     H_    0.504803 0.068838 0.288447 0.125685
C34   C     C_3   0.605750 0.861598 0.651722 -0.383271
C35   C     C_3   0.730351 0.789969 0.635744 -0.253694
C36   C     C_3   0.839705 0.824497 0.700079 -0.983895
H22   H     H_    0.923702 0.763102 0.686950 0.263784
H23   H     H_    0.863090 0.928314 0.694307 0.264818
H24   H     H_    0.815999 0.805774 0.766292 0.276785
H25   H     H_    0.717977 0.684560 0.642118 0.244615
H26   H     H_    0.757518 0.812098 0.571140 0.228827
H27   H     H_    0.630265 0.927570 0.705263 0.209839
H28   H     H_    0.539623 0.803364 0.683430 0.210538
N3    N     N_2   0.609570 0.719948 0.100406 -0.293190
H29   H     H_    0.689311 0.760094 0.081171 0.215469
C37   C     C_3   0.516735 0.815405 0.125664 -0.813967
H30   H     H_    0.485338 0.879855 0.071463 0.242813
H31   H     H_    0.558874 0.876437 0.178634 0.222563
H32   H     H_    0.434920 0.766806 0.148452 0.251830
N4    N     N_2   0.435558 0.284661 0.902416 -0.303562
H33   H     H_    0.470132 0.194559 0.923180 0.231522
C38   C     C_3   0.302394 0.287553 0.877982 -0.806806
H34   H     H_    0.249159 0.280440 0.935488 0.233531
H35   H     H_    0.279717 0.203759 0.834509 0.234124
H36   H     H_    0.273216 0.378938 0.843595 0.250275
N5    N     N_2   0.570701 0.737651 0.915624 -0.293708
H37   H     H_    0.637564 0.795921 0.945613 0.222466
C39   C     C_3   0.461390 0.811885 0.880407 -0.800442
H38   H     H_    0.491526 0.898457 0.846819 0.219046
H39   H     H_    0.402538 0.845608 0.931936 0.238332
H40   H     H_    0.404006 0.752607 0.833482 0.249676
N6    N     N_2   0.485840 0.265794 0.083777 -0.307364
H41   H     H_    0.415789 0.208217 0.056964 0.231627
C40   C     C_3   0.601970 0.193401 0.105874 -0.813954
H42   H     H_    0.645665 0.160659 0.047037 0.235795
H43   H     H_    0.582845 0.106460 0.143202 0.235156
H44   H     H_    0.668176 0.254362 0.145802 0.255711
N7    N     N_2   0.149094 0.312660 0.604739 -0.281834
H45   H     H_    0.134464 0.309849 0.668721 0.221216
C41   C     C_3   0.152489 0.184116 0.565386 -0.765761
H46   H     H_    0.224591 0.121230 0.601117 0.224498
H47   H     H_    0.176617 0.189373 0.498080 0.254782
H48   H     H_    0.060469 0.138447 0.566550 0.210360
N8    N     N_2   0.880275 0.620936 0.370925 -0.312349
H49   H     H_    0.945787 0.615458 0.326224 0.219629
C42   C     C_3   0.787340 0.726052 0.355620 -0.723214
H50   H     H_    0.820295 0.797001 0.310334 0.202319
H51   H     H_    0.766944 0.779748 0.414905 0.254547
H52   H     H_    0.700433 0.685709 0.324806 0.263401
N9    N     N_2   0.885846 0.349667 0.626283 -0.305662
H53   H     H_    0.916710 0.254348 0.635429 0.230336
C43   C     C_3   0.886532 0.422993 0.705914 -0.854575
H54   H     H_    0.846319 0.365261 0.755294 0.248974
H55   H     H_    0.829180 0.514181 0.696977 0.248718
H56   H     H_    0.983515 0.447215 0.729839 0.238736
N10   N     N_2   0.099429 0.743702 0.489218 -0.289491
H57   H     H_    0.155477 0.758639 0.544887 0.250222
C44   C     C_3   0.016633 0.855501 0.469468 -0.833712
H58   H     H_    0.934734 0.855509 0.508038 0.248955
H59   H     H_    0.989063 0.858218 0.400191 0.270968
H60   H     H_    0.067603 0.945957 0.485086 0.224725

loop_
_geom_bond_atom_site_label_1
_geom_bond_atom_site_label_2
_ccdc_geom_bond_type
C6    O6    A    
N7    H45   S    
C36   H24   S    
C20   C34   S    
N6    H41   S    
C31   H21   S    
C18   C28   S    
C30   H9    S    
C40   H42   S    
C27   H2    S    
C38   H34   S    
C19   C31   S    
C29   H12   S    
C8    N6    S    
C17   N2    A    
O6    Zn2   S    
C42   H51   S    
C26   C27   S    
C23   N9    S    
C20   N1    A    
C35   H26   S    
C22   N8    S    
C7    N5    S    
C10   N4    S    
C17   C20   A    
C18   C19   A    
C36   H23   S    
C19   N2    A    
C44   H60   S    
C40   H43   S    
C28   C29   S    
C35   C36   S    
C43   H55   S    
N8    H49   S    
N5    C39   S    
C4    O3    A    
C25   H7    S    
C21   N7    S    
C43   H56   S    
N3    C37   S    
C33   H15   S    
N7    C41   S    
N8    C42   S    
C18   N1    A    
C4    O2    A    
C27   H3    S    
N10   C44   S    
C32   H19   S    
C29   H11   S    
C33   H16   S    
C44   H59   S    
C38   H35   S    
C34   C35   S    
C42   H52   S    
C27   H1    S    
C37   H31   S    
C9    N3    S    
O1    Zn1   S    
C32   C33   S    
N3    H29   S    
C3    O4    A    
C7    C11   A    
C26   H5    S    
C25   C26   S    
C39   H39   S    
N4    H33   S    
C8    C12   A    
C30   H10   S    
C5    O8    A    
C2    C21   A    
C41   H47   S    
C17   C25   S    
C44   H58   S    
N1    Zn1   S    
N2    Zn2   S    
C29   C30   S    
N4    C38   S    
C12   C14   S    
C1    C23   A    
C21   C23   A    
C2    C24   A    
C22   C24   A    
C34   H27   S    
C25   H6    S    
C39   H38   S    
C40   H44   S    
C24   N10   S    
C28   H13   S    
N9    H53   S    
C38   H36   S    
C32   H18   S    
C7    C9    A    
C33   H17   S    
C31   H20   S    
C37   H32   S    
N10   H57   S    
N6    C40   S    
O3    Zn1   S    
C6    O7    A    
O4    Zn2   S    
C1    C4    S    
C3    O1    A    
C2    C3    S    
C35   H25   S    
C26   H4    S    
C42   H50   S    
C39   H40   S    
C11   C13   S    
C31   C32   S    
O5    Zn1   S    
O7    Zn1   S    
C41   H48   S    
O8    Zn2   S    
C36   H22   S    
C9    C12   A    
C5    C15   S    
C10   C11   A    
C6    C16   S    
C37   H30   S    
C1    C22   A    
O2    Zn2   S    
C8    C10   A    
C30   H8    S    
C13   C16   T    
C41   H46   S    
C14   C15   T    
C34   H28   S    
N9    C43   S    
N5    H37   S    
C43   H54   S    
C28   H14   S    
C5    O5    A    
