data_mof_unit_33256.cif
_audit_creation_date              2012-12-10T17:18:57-0500
_audit_creation_method            fapswitch 2.2
_symmetry_space_group_name_H-M    P1
_symmetry_Int_Tables_number       1
_space_group_crystal_system       triclinic
_cell_length_a                    10.220788
_cell_length_b                    10.925941
_cell_length_c                    13.520767
_cell_angle_alpha                 92.576039
_cell_angle_beta                  100.246347
_cell_angle_gamma                 96.0628
_cell_volume                      1474.36021759

loop_
_atom_site_label
_atom_site_type_symbol
_atom_type_description
_atom_site_fract_x
_atom_site_fract_y
_atom_site_fract_z
_atom_type_partial_charge
C1    C     C_R   0.051938 0.731804 0.488111 0.741148
C2    C     C_R   0.945140 0.267666 0.504775 0.795982
C3    C     C_R   0.550739 0.684180 0.070698 0.393160
C4    C     C_R   0.552145 0.445570 0.868732 0.411306
C5    C     C_R   0.435696 0.738635 0.030688 0.308404
C6    C     C_R   0.690359 0.431586 0.894797 0.296395
C7    C     C_2   0.077822 0.862915 0.467624 0.276093
C8    C     C_2   0.911345 0.135154 0.507920 0.262458
C9    C     C_2   0.988580 0.934442 0.492589 -0.200561
C10   C     C_2   0.992235 0.062880 0.471980 -0.225942
C11   C     C_2   0.429900 0.512750 0.508268 0.088704
C12   C     C_2   0.567749 0.504365 0.481702 0.019032
C13   C     C_R   0.095188 0.518836 0.685859 0.957183
C14   C     C_R   0.907473 0.490398 0.313182 0.882819
C15   C     C_R   0.154812 0.557596 0.790478 -0.166264
C16   C     C_R   0.861845 0.488606 0.203196 -0.212004
C17   C     C_R   0.206384 0.711516 0.931206 0.444165
C18   C     C_R   0.893328 0.440970 0.032341 0.383499
C19   C     C_R   0.128844 0.667933 0.836603 0.335650
C20   C     C_R   0.949655 0.475622 0.135261 0.329872
C21   C     C_R   0.263930 0.499995 0.833592 -0.233796
C22   C     C_R   0.732074 0.512223 0.165983 -0.222978
C23   C     C_R   0.363608 0.561790 0.908927 -0.006015
C24   C     C_R   0.687692 0.514709 0.062743 0.034201
C25   C     C_R   0.333970 0.670238 0.959154 -0.165750
C26   C     C_R   0.757961 0.459743 0.995414 -0.174272
C27   C     C_R   0.492959 0.521783 0.933939 -0.118722
C28   C     C_R   0.573213 0.570345 0.025761 -0.116521
H1    H     H_    0.665994 0.532392 0.217208 0.176082
H2    H     H_    0.272427 0.410216 0.801890 0.202076
H3    H     H_    0.064922 0.099905 0.428643 0.174479
H4    H     H_    0.907763 0.897213 0.528646 0.188545
H5    H     H_    0.575648 0.457694 0.410878 0.145663
H6    H     H_    0.420533 0.576565 0.569776 0.143588
N1    N     N_2   0.322180 0.446120 0.460900 0.030148
N2    N     N_2   0.677820 0.553880 0.539100 0.038672
O1    O     O_R   0.935190 0.693030 0.507870 -0.652864
O2    O     O_R   0.064810 0.306970 0.492130 -0.676287
O3    O     O_R   0.142080 0.658430 0.482770 -0.640821
O4    O     O_R   0.857920 0.341570 0.517230 -0.589665
O5    O     O_R   0.969700 0.527180 0.651960 -0.504982
O6    O     O_R   0.030300 0.472820 0.348040 -0.586213
O7    O     O_R   0.176600 0.492580 0.626860 -0.626755
O8    O     O_R   0.823400 0.507420 0.373140 -0.645557
Zn1   Zn    Zn3+2 0.861850 0.523100 0.516760 1.001368
Zn2   Zn    Zn3+2 0.138150 0.476900 0.483240 0.937685
Cl1   Cl    Cl    0.432894 0.898885 0.055631 -0.619644
Cl2   Cl    Cl    0.773633 0.386498 0.797143 -0.533447
O9    O     O_3   0.076308 0.540377 0.163274 -0.619910
C29   C     C_3   0.179044 0.472490 0.143935 0.170424
H7    H     H_    0.186444 0.470972 0.063206 0.189677
H8    H     H_    0.164769 0.377872 0.169202 0.136622
C30   C     C_3   0.310415 0.538468 0.201259 -0.824635
H9    H     H_    0.393702 0.482361 0.196073 0.214660
H10   H     H_    0.303772 0.559163 0.280999 0.291303
H11   H     H_    0.330340 0.627787 0.168867 0.226525
O10   O     O_3   0.034085 0.736959 0.787551 -0.637153
C31   C     C_3   0.099101 0.846807 0.757563 0.064591
H12   H     H_    0.124321 0.828582 0.682347 0.132150
H13   H     H_    0.193758 0.884074 0.809422 0.175327
C32   C     C_3   0.007067 0.948101 0.752112 -0.788707
H14   H     H_    0.982941 0.969316 0.827250 0.245197
H15   H     H_    0.057123 0.032950 0.726429 0.230603
H16   H     H_    0.912348 0.919411 0.698921 0.259641
O11   O     O_3   0.166937 0.803634 0.990222 -0.568484
C33   C     C_3   0.032146 0.775950 0.002052 0.182066
H17   H     H_    0.000969 0.675130 0.000911 0.169049
H18   H     H_    0.964306 0.815547 0.941709 0.176734
C34   C     C_3   0.013658 0.834263 0.101949 -0.806149
H19   H     H_    0.047797 0.934699 0.107608 0.246049
H20   H     H_    0.906414 0.820658 0.108096 0.261671
H21   H     H_    0.071574 0.789692 0.164572 0.278526
O12   O     O_3   0.973058 0.400953 0.968023 -0.592050
C35   C     C_3   0.980399 0.273252 0.977546 0.121824
H22   H     H_    0.883492 0.219355 0.942322 0.181119
H23   H     H_    0.004768 0.249866 0.057600 0.083916
C36   C     C_3   0.089573 0.233395 0.924187 -0.815664
H24   H     H_    0.186740 0.288797 0.955379 0.234715
H25   H     H_    0.101055 0.134982 0.935853 0.225770
H26   H     H_    0.063365 0.245894 0.842233 0.270724
O13   O     O_3   0.658151 0.754278 0.132809 -0.588064
C37   C     C_3   0.628714 0.780823 0.229187 0.094869
H27   H     H_    0.567389 0.702934 0.255746 0.106126
H28   H     H_    0.577267 0.864813 0.229525 0.210873
C38   C     C_3   0.758659 0.809664 0.304384 -0.807207
H29   H     H_    0.815475 0.895321 0.285849 0.255104
H30   H     H_    0.735822 0.822908 0.381118 0.209323
H31   H     H_    0.821362 0.733206 0.302696 0.263834
O14   O     O_3   0.485733 0.405826 0.772389 -0.561028
C39   C     C_3   0.456802 0.275519 0.766766 0.099065
H32   H     H_    0.396956 0.245244 0.824481 0.115833
H33   H     H_    0.549299 0.228908 0.777972 0.186768
C40   C     C_3   0.376375 0.231796 0.663092 -0.793632
H34   H     H_    0.434601 0.259187 0.604086 0.263459
H35   H     H_    0.353870 0.129772 0.657822 0.204964
H36   H     H_    0.280524 0.272844 0.649902 0.264367
O15   O     O_3   0.817065 0.086543 0.562633 -0.617641
C41   C     C_3   0.687941 0.116156 0.521658 0.158362
H37   H     H_    0.671982 0.122598 0.438240 0.115187
H38   H     H_    0.670552 0.204652 0.558174 0.208372
C42   C     C_3   0.583904 0.016447 0.544330 -0.897407
H39   H     H_    0.598578 0.004703 0.626622 0.269485
H40   H     H_    0.481934 0.042822 0.518790 0.236614
H41   H     H_    0.592770 0.927733 0.504066 0.238196
O16   O     O_3   0.182391 0.914765 0.422007 -0.624814
C43   C     C_3   0.246648 0.826046 0.375076 0.108144
H42   H     H_    0.172938 0.753564 0.329403 0.180388
H43   H     H_    0.318076 0.785345 0.432825 0.166883
C44   C     C_3   0.328306 0.884967 0.303268 -0.836407
H44   H     H_    0.409815 0.953107 0.344474 0.247734
H45   H     H_    0.372950 0.811833 0.266519 0.210880
H46   H     H_    0.263811 0.927877 0.243395 0.293453
O17   O     O_3   0.664641 0.578129 0.635189 -0.482728
C45   C     C_3   0.716915 0.701377 0.661545 0.232430
H47   H     H_    0.662974 0.763570 0.609892 0.078826
H48   H     H_    0.824646 0.714530 0.658078 0.219801
C46   C     C_3   0.698862 0.734869 0.768464 -0.773731
H49   H     H_    0.733457 0.834013 0.788787 0.202596
H50   H     H_    0.591511 0.717184 0.774316 0.249025
H51   H     H_    0.758051 0.678883 0.822414 0.276977
O18   O     O_3   0.342954 0.381083 0.378984 -0.599659
C47   C     C_3   0.253553 0.273463 0.362177 0.218770
H52   H     H_    0.150619 0.294815 0.334122 0.176008
H53   H     H_    0.259698 0.222204 0.431780 0.166188
C48   C     C_3   0.292975 0.191764 0.281290 -0.892093
H54   H     H_    0.386522 0.153098 0.312418 0.262568
H55   H     H_    0.210177 0.117424 0.254456 0.228962
H56   H     H_    0.312026 0.244589 0.216211 0.258529

loop_
_geom_bond_atom_site_label_1
_geom_bond_atom_site_label_2
_ccdc_geom_bond_type
C33   H18   S    
C40   H34   S    
C22   H1    S    
C32   H16   S    
O12   C35   S    
C18   C26   A    
C13   O5    A    
C45   H47   S    
C39   H32   S    
C38   H29   S    
C19   O10   S    
C15   C19   A    
C5    Cl1   S    
C42   H39   S    
C35   H23   S    
C3    C28   A    
C24   C26   A    
O17   C45   S    
C46   H50   S    
C36   H26   S    
C33   C34   S    
C43   H42   S    
C31   H13   S    
C32   H15   S    
O6    Zn2   S    
C34   H20   S    
C9    H4    S    
C10   H3    S    
C35   C36   S    
C3    O13   S    
C48   H56   S    
C29   H8    S    
C7    O16   S    
C23   C27   A    
C12   N2    D    
C9    C10   S    
C18   C20   A    
C1    O1    A    
C14   O6    A    
C30   H11   S    
C31   C32   S    
C30   H10   S    
C33   H17   S    
C42   H40   S    
C34   H19   S    
N2    O17   S    
O7    Zn2   S    
O15   C41   S    
C47   H52   S    
C36   H25   S    
O4    Zn1   S    
C29   C30   S    
C35   H22   S    
C38   H30   S    
N1    O18   S    
C4    C6    A    
C46   H51   S    
C31   H12   S    
C36   H24   S    
C37   H27   S    
O13   C37   S    
C34   H21   S    
C8    O15   S    
C20   O9    S    
C2    O2    A    
C39   H33   S    
C16   C20   A    
C29   H7    S    
N2    Zn1   S    
O18   C47   S    
C6    Cl2   S    
O3    Zn2   S    
C5    C25   A    
C8    C10   D    
O9    C29   S    
C40   H36   S    
C37   H28   S    
C13   C15   S    
C48   H54   S    
C14   C16   S    
C44   H46   S    
C47   H53   S    
C41   C42   S    
C13   O7    A    
C4    C27   A    
O8    Zn1   S    
C39   C40   S    
C14   O8    A    
C4    O14   S    
O16   C43   S    
C38   H31   S    
C7    C9    D    
C16   C22   A    
C1    C7    S    
C11   H6    S    
C2    C8    S    
C24   C28   A    
C3    C5    A    
C45   H48   S    
C11   C12   S    
C30   H9    S    
C42   H41   S    
C37   C38   S    
C21   H2    S    
C17   O11   S    
C17   C25   A    
C18   O12   S    
C47   C48   S    
C21   C23   A    
C12   H5    S    
C46   H49   S    
O10   C31   S    
C6    C26   A    
C43   H43   S    
C44   H45   S    
C11   N1    D    
C17   C19   A    
C22   C24   A    
O11   C33   S    
C32   H14   S    
C41   H38   S    
O2    Zn2   S    
C45   C46   S    
C1    O3    A    
C2    O4    A    
C15   C21   A    
C23   C25   A    
C40   H35   S    
C41   H37   S    
C27   C28   A    
C48   H55   S    
O5    Zn1   S    
O14   C39   S    
C44   H44   S    
N1    Zn2   S    
O1    Zn1   S    
C43   C44   S    
