data_mof_unit_26496.cif
_audit_creation_date              2012-12-10T17:11:05-0500
_audit_creation_method            fapswitch 2.2
_symmetry_space_group_name_H-M    P1
_symmetry_Int_Tables_number       1
_space_group_crystal_system       triclinic
_cell_length_a                    18.356068
_cell_length_b                    18.350252
_cell_length_c                    18.216791
_cell_angle_alpha                 89.843816
_cell_angle_beta                  120.207481
_cell_angle_gamma                 120.003238
_cell_volume                      4330.95338814

loop_
_atom_site_label
_atom_site_type_symbol
_atom_type_description
_atom_site_fract_x
_atom_site_fract_y
_atom_site_fract_z
_atom_type_partial_charge
C1    C     C_R   0.998784 0.858888 0.638681 0.542591
C2    C     C_R   0.973166 0.388825 0.282729 -0.092048
C3    C     C_2   0.035570 0.226261 0.918046 0.217737
C4    C     C_2   0.983439 0.386871 0.681822 0.215718
C5    C     C_R   0.984783 0.320989 0.267108 0.020637
C6    C     C_R   0.997789 0.139709 0.359805 0.498106
C7    C     C_R   0.983376 0.265186 0.321039 0.023996
C8    C     C_R   0.991636 0.195415 0.303468 0.019329
C9    C     C_R   0.994831 0.178244 0.230964 -0.150160
C10   C     C_R   0.995636 0.232297 0.178094 -0.146994
C11   C     C_R   0.993540 0.304698 0.196848 0.022009
C12   C     C_R   0.600124 0.843572 0.435341 -0.092686
C13   C     C_R   0.551526 0.810820 0.478381 -0.146065
C14   C     C_3   0.056374 0.296920 0.697443 -0.192691
C15   C     C_R   0.456745 0.728697 0.434158 -0.115543
C16   C     C_R   0.405643 0.684195 0.343893 -0.066511
C17   C     C_R   0.449046 0.721837 0.295988 0.013884
C18   C     C_R   0.279821 0.139860 0.640625 0.468834
C19   C     C_R   0.553642 0.794594 0.346334 0.025527
C20   C     C_R   0.607468 0.814516 0.305854 0.009546
C21   C     C_R   0.552565 0.777263 0.212849 -0.169792
C22   C     C_R   0.446302 0.719025 0.160349 -0.164289
C23   C     C_R   0.393216 0.690485 0.200428 0.009193
C24   C     C_R   0.811351 0.674332 0.567063 0.293845
C25   C     C_3   0.995785 0.198897 0.694366 0.016959
C26   C     C_R   0.722056 0.589924 0.540960 -0.140466
C27   C     C_R   0.725937 0.536322 0.594642 -0.021258
C28   C     C_R   0.816308 0.570516 0.680304 -0.068037
C29   C     C_R   0.904411 0.658524 0.713322 -0.084019
C30   C     C_R   0.719908 0.864586 0.360196 0.485214
C31   C     C_R   0.903075 0.711927 0.656916 0.012613
C32   C     C_R   0.995556 0.798805 0.691136 -0.042363
C33   C     C_R   0.088887 0.827281 0.774614 -0.016892
C34   C     C_R   0.089039 0.772422 0.827881 0.252716
C35   C     C_R   0.996370 0.691134 0.799327 0.009459
C36   C     C_3   0.996618 0.301943 0.795849 0.003639
C37   C     C_R   0.075760 0.745958 0.420927 -0.143753
C38   C     C_R   0.142064 0.719690 0.462568 -0.171955
C39   C     C_R   0.194226 0.717140 0.427271 0.294697
C40   C     C_R   0.167421 0.731120 0.343984 0.346206
C41   C     C_R   0.082787 0.737529 0.293446 -0.062292
C42   C     C_R   0.999393 0.858438 0.358408 0.518923
C43   C     C_R   0.053199 0.763576 0.339289 -0.067442
C44   C     C_R   0.003303 0.806573 0.301678 -0.019322
C45   C     C_R   0.968163 0.807618 0.212181 -0.005730
C46   C     C_R   0.973669 0.758472 0.159507 0.196905
C47   C     C_3   0.061192 0.265842 0.854354 -0.133279
C48   C     C_R   0.025680 0.718490 0.199055 0.009379
C49   C     C_R   0.393804 0.140948 0.823431 -0.127581
C50   C     C_R   0.448192 0.142302 0.911776 -0.078612
C51   C     C_R   0.555803 0.194363 0.965555 0.263540
C52   C     C_R   0.609167 0.247447 0.931375 -0.079633
C53   C     C_R   0.555515 0.247817 0.842357 -0.021862
C54   C     C_R   0.998311 0.141192 0.639473 0.507603
C55   C     C_R   0.446258 0.193500 0.787238 0.005066
C56   C     C_R   0.392413 0.196298 0.698960 0.002928
C57   C     C_R   0.446730 0.256371 0.667884 -0.010303
C58   C     C_3   0.049189 0.358309 0.748707 0.260509
C59   C     C_R   0.554272 0.310763 0.724120 -0.089803
C60   C     C_R   0.608287 0.304641 0.808642 0.005284
C61   C     C_R   0.280390 0.637045 0.141056 0.495467
C62   C     C_R   0.720273 0.360273 0.860918 0.494669
C63   C     C_R   0.998335 0.360377 0.140299 0.499071
C64   C     C_R   0.998938 0.638503 0.858899 0.508784
C65   C     C_R   0.008136 0.648128 0.141282 0.531455
C66   C     C_3   0.882486 0.165629 0.654451 0.149402
C67   C     C_R   0.998591 0.359026 0.856945 0.547756
C68   C     C_3   0.882856 0.217852 0.722361 -0.102717
C69   C     C_R   0.969520 0.278463 0.388361 -0.111859
C70   C     C_3   0.048338 0.196714 0.791868 -0.310711
C71   C     C_3   0.198751 0.510094 0.797112 0.040790
C72   C     C_3   0.223850 0.497140 0.731613 -0.295895
C73   C     C_3   0.287551 0.585867 0.722764 -0.480610
C74   C     C_3   0.759162 0.097476 0.498103 0.021633
C75   C     C_3   0.709176 0.115155 0.410108 -0.256096
C76   C     C_3   0.627029 0.028423 0.330075 -0.496768
C77   C     C_2   0.186522 0.915779 0.807496 0.250364
C78   C     C_3   0.753170 0.664902 0.417137 -0.009348
C79   C     C_3   0.804497 0.714671 0.371828 -0.234205
C80   C     C_R   0.960317 0.346865 0.403545 -0.132613
C81   C     C_3   0.734164 0.667034 0.270261 -0.466981
C82   C     C_2   0.636693 0.442312 0.557336 0.261571
C83   C     C_2   0.801007 0.236036 0.676497 0.297975
C84   C     C_3   0.203162 0.836393 0.981705 0.027693
C85   C     C_3   0.297717 0.846149 0.062865 -0.239746
C86   C     C_3   0.312574 0.874150 0.150662 -0.496066
C87   C     C_2   0.925248 0.858519 0.170135 0.266773
C88   C     C_3   0.315124 0.709370 0.558821 -0.008538
C89   C     C_3   0.390231 0.808846 0.615589 -0.280693
C90   C     C_3   0.444212 0.821579 0.715962 -0.469396
C91   C     C_R   0.962360 0.401987 0.351033 -0.113480
C92   C     C_3   0.322503 0.829342 0.363920 0.007062
C93   C     C_3   0.309087 0.905392 0.346861 -0.309895
C94   C     C_3   0.412791 0.994612 0.386855 -0.456548
C95   C     C_3   0.994922 0.813427 0.053972 0.015769
C96   C     C_3   0.936260 0.806282 0.954839 -0.245086
C97   C     C_3   0.002573 0.885595 0.937048 -0.490617
C98   C     C_2   0.392294 0.261582 0.576066 0.261222
C99   C     C_3   0.629910 0.135831 0.062132 0.004111
C100  C     C_3   0.690494 0.143992 0.161282 -0.259842
C101  C     C_3   0.713726 0.074061 0.174055 -0.471827
H1    H     H_    0.838403 0.093895 0.649183 0.103899
H2    H     H_    0.591755 0.793244 0.180264 0.144652
H3    H     H_    0.672903 0.908226 0.472268 0.127872
H4    H     H_    0.588947 0.847949 0.547027 0.110425
H5    H     H_    0.421715 0.700179 0.469221 0.157235
H6    H     H_    0.334495 0.618993 0.314620 0.171928
H7    H     H_    0.405766 0.695064 0.087983 0.147362
H8    H     H_    0.650383 0.563098 0.475446 0.086808
H9    H     H_    0.817563 0.526609 0.719945 0.176256
H10   H     H_    0.040163 0.749110 0.452126 0.157647
H11   H     H_    0.153946 0.705365 0.523564 0.112922
H12   H     H_    0.125681 0.212155 0.818041 0.128744
H13   H     H_    0.310614 0.100795 0.785007 0.124107
H14   H     H_    0.406717 0.103973 0.939260 0.156739
H15   H     H_    0.858061 0.172366 0.757837 0.086329
H16   H     H_    0.692593 0.290112 0.976268 0.130325
H17   H     H_    0.597098 0.357204 0.701477 0.209413
H18   H     H_    0.001193 0.127875 0.791240 0.116927
H19   H     H_    0.138503 0.321513 0.732163 0.150776
H20   H     H_    0.029244 0.298866 0.627855 0.111031
H21   H     H_    0.272822 0.561721 0.861462 0.154732
H22   H     H_    0.153796 0.539049 0.773867 0.192477
H23   H     H_    0.144300 0.322785 0.897091 0.206731
H24   H     H_    0.268400 0.467679 0.756444 0.174590
H25   H     H_    0.151552 0.452064 0.663772 0.143375
H26   H     H_    0.244622 0.616768 0.697903 0.146662
H27   H     H_    0.303286 0.574398 0.674105 0.151837
H28   H     H_    0.362441 0.632378 0.788824 0.150478
H29   H     H_    0.698412 0.054620 0.508862 0.152122
H30   H     H_    0.791308 0.062085 0.491845 0.136930
H31   H     H_    0.672858 0.147223 0.413990 0.196437
H32   H     H_    0.769086 0.161249 0.399807 0.159616
H33   H     H_    0.663569 0.999875 0.320065 0.147587
H34   H     H_    0.999459 0.123979 0.216640 0.171588
H35   H     H_    0.585744 0.041627 0.268030 0.149272
H36   H     H_    0.569917 0.978946 0.341464 0.141647
H37   H     H_    0.184122 0.971153 0.789140 0.068713
H38   H     H_    0.673628 0.647898 0.379609 0.149579
H39   H     H_    0.749519 0.602312 0.413978 0.119112
H40   H     H_    0.824924 0.783348 0.385483 0.202649
H41   H     H_    0.876856 0.719321 0.401080 0.141773
H42   H     H_    0.713105 0.598003 0.255552 0.147060
H43   H     H_    0.774596 0.703481 0.239526 0.158770
H44   H     H_    0.662845 0.664675 0.239350 0.155243
H45   H     H_    0.963031 0.235231 0.428480 0.130906
H46   H     H_    0.562878 0.420040 0.495882 0.143266
H47   H     H_    0.819797 0.302113 0.695322 0.156960
H48   H     H_    0.137072 0.797414 0.986906 0.102614
H49   H     H_    0.220707 0.904043 0.982945 0.135479
H50   H     H_    0.288223 0.781391 0.054543 0.199780
H51   H     H_    0.367743 0.896464 0.066533 0.173150
H52   H     H_    0.322703 0.939043 0.161300 0.146279
H53   H     H_    0.382191 0.881080 0.207761 0.148196
H54   H     H_    0.244754 0.822472 0.149122 0.150866
H55   H     H_    0.851034 0.824968 0.105193 0.123535
H56   H     H_    0.949960 0.356233 0.455406 0.110614
H57   H     H_    0.361249 0.681602 0.577152 0.151498
H58   H     H_    0.259315 0.669836 0.575191 0.125228
H59   H     H_    0.449273 0.842864 0.601393 0.157549
H60   H     H_    0.348662 0.840879 0.598111 0.170507
H61   H     H_    0.386694 0.790183 0.732027 0.159506
H62   H     H_    0.499049 0.893943 0.755347 0.161387
H63   H     H_    0.487911 0.791337 0.735980 0.144915
H64   H     H_    0.370535 0.832338 0.342377 0.164146
H65   H     H_    0.366111 0.839487 0.437268 0.152967
H66   H     H_    0.257669 0.890804 0.273370 0.163383
H67   H     H_    0.953729 0.454259 0.362217 0.121983
H68   H     H_    0.272954 0.911165 0.378381 0.162627
H69   H     H_    0.465367 0.010281 0.460458 0.183954
H70   H     H_    0.400898 0.048387 0.375614 0.173892
H71   H     H_    0.449218 0.992661 0.354065 0.144576
H72   H     H_    0.055973 0.803806 0.069953 0.117126
H73   H     H_    0.032151 0.881407 0.096480 0.145551
H74   H     H_    0.910428 0.743651 0.912394 0.195322
H75   H     H_    0.866704 0.803563 0.935087 0.177261
H76   H     H_    0.022415 0.948083 0.973621 0.163196
H77   H     H_    0.959281 0.875450 0.863788 0.152404
H78   H     H_    0.969809 0.431061 0.241507 0.138286
H79   H     H_    0.074665 0.892493 0.959289 0.124878
H80   H     H_    0.310928 0.210700 0.525668 0.123881
H81   H     H_    0.677224 0.146263 0.036673 0.137084
H82   H     H_    0.556466 0.067525 0.023489 0.154387
H83   H     H_    0.764218 0.211549 0.200158 0.187613
H84   H     H_    0.645257 0.135763 0.188110 0.173144
H85   H     H_    0.640793 0.005881 0.138635 0.149954
H86   H     H_    0.759648 0.083350 0.246915 0.150335
H87   H     H_    0.758924 0.081083 0.147559 0.165824
H88   H     H_    0.960647 0.165389 0.892255 0.109049
H89   H     H_    0.000541 0.218855 0.123400 0.163154
H90   H     H_    0.946612 0.361656 0.610170 0.117460
O1    O     O_3   0.000000 0.000000 0.500000 -0.446061
O2    O     O_R   0.939290 0.616110 0.884440 -0.578371
O3    O     O_R   0.060700 0.616880 0.177520 -0.509180
O4    O     O_R   0.939250 0.884470 0.616070 -0.498716
O5    O     O_R   0.060740 0.443890 0.883140 -0.456408
O6    O     O_R   0.939270 0.616890 0.056080 -0.497530
O7    O     O_R   0.939290 0.322450 0.883140 -0.558169
O8    O     O_R   0.939260 0.323230 0.054780 -0.539880
O9    O     O_R   0.060750 0.615550 0.883900 -0.486086
O10   O     O_R   0.231610 0.616100 0.176760 -0.537998
O11   O     O_R   0.768390 0.445230 0.884440 -0.536149
O12   O     O_R   0.231620 0.176800 0.616070 -0.545840
O13   O     O_R   0.060740 0.176800 0.445190 -0.543059
O14   O     O_R   0.231610 0.054800 0.615530 -0.537514
O15   O     O_R   0.768390 0.883920 0.323210 -0.565304
O16   O     O_R   0.060730 0.883140 0.443890 -0.550965
O17   O     O_R   0.939260 0.056140 0.616830 -0.575177
O18   O     O_R   0.939300 0.883140 0.322450 -0.512252
O19   O     O_R   0.060710 0.177580 0.616830 -0.553612
O20   O     O_3   0.152946 0.432174 0.818509 -0.569073
O21   O     O_3   0.838784 0.179376 0.569933 -0.574435
O22   O     O_2   0.270310 0.927408 0.854111 -0.489661
O23   O     O_R   0.768380 0.884480 0.445190 -0.538583
O24   O     O_3   0.810638 0.720816 0.506375 -0.549172
O25   O     O_2   0.645410 0.387888 0.592657 -0.496837
O26   O     O_2   0.710844 0.174817 0.620298 -0.504265
O27   O     O_3   0.181909 0.793008 0.902627 -0.503929
O28   O     O_2   0.975835 0.939204 0.204510 -0.506608
O29   O     O_3   0.266134 0.696226 0.465556 -0.567529
O30   O     O_3   0.227214 0.743830 0.313445 -0.521950
O31   O     O_3   0.924201 0.746852 0.068252 -0.555243
O32   O     O_2   0.437784 0.323269 0.555388 -0.503250
O33   O     O_3   0.609243 0.200921 0.054951 -0.573875
O34   O     O_R   0.060710 0.883920 0.615530 -0.547221
O35   O     O_2   0.099529 0.262164 0.999434 -0.505849
O36   O     O_2   0.970009 0.437684 0.707252 -0.526653
O37   O     O_R   0.939300 0.054810 0.323210 -0.524779
O38   O     O_3   1.000000 0.500030 0.999970 -0.461083
O39   O     O_R   0.231620 0.615550 0.054780 -0.552749
O40   O     O_R   0.768380 0.323230 0.883900 -0.544234
O41   O     O_R   0.060700 0.445220 0.176760 -0.545125
Zn1   Zn    Zn3+2 0.086760 0.130530 0.543760 0.921786
Zn2   Zn    Zn3+2 0.086760 0.956230 0.542990 0.935232
Zn3   Zn    Zn3+2 0.913250 0.956230 0.369490 0.940014
Zn4   Zn    Zn3+2 0.913230 0.957020 0.543760 0.922146
Zn5   Zn    Zn3+2 0.913240 0.369500 0.956210 0.948338
Zn6   Zn    Zn3+2 0.086750 0.543800 0.130490 0.961159
Zn7   Zn    Zn3+2 0.913240 0.543800 0.956980 0.941750
Zn8   Zn    Zn3+2 0.086770 0.543010 0.956210 0.990656

loop_
_geom_bond_atom_site_label_1
_geom_bond_atom_site_label_2
_ccdc_geom_bond_type
C66   C68   S    
C55   C56   A    
C93   C94   S    
C24   C31   A    
C96   H74   S    
C66   H1    S    
C71   H21   S    
O39   Zn8   S    
C19   C20   A    
C43   C44   A    
C67   O7    A    
C78   H38   S    
O18   Zn3   S    
C82   H46   S    
C76   H35   S    
C36   C67   S    
C77   O22   D    
O10   Zn6   S    
C20   C30   S    
C45   C46   A    
C75   H31   S    
C73   H26   S    
C93   H68   S    
C26   C27   A    
C10   H89   S    
C90   H61   S    
C18   O14   A    
C90   H63   S    
O34   Zn2   S    
C15   H5    S    
C71   H22   S    
C92   O30   S    
C1    O4    A    
C95   H73   S    
C24   C26   A    
O12   Zn1   S    
C11   C63   S    
C87   O28   D    
C3    H88   S    
C38   C39   A    
C83   O26   D    
C24   O24   S    
C57   C59   A    
C79   H41   S    
C15   C16   A    
C30   O15   A    
C56   C57   A    
C36   C47   S    
C60   C62   S    
C50   H14   S    
C88   H58   S    
C62   O11   A    
C99   H81   S    
C16   H6    S    
C61   O10   A    
C92   H64   S    
C81   H43   S    
O2    Zn7   S    
C95   C96   S    
C63   O8    A    
C16   C17   A    
O37   Zn3   S    
C6    O37   A    
C18   O12   A    
C88   H57   S    
C48   C65   S    
O38   Zn7   S    
C101  H87   S    
C9    C10   A    
O17   Zn4   S    
C99   H82   S    
C18   C56   S    
C94   H71   S    
C52   H16   S    
C49   H13   S    
C80   H56   S    
C59   C60   A    
C14   H20   S    
C21   C22   A    
C98   O32   D    
O41   Zn6   S    
C69   H45   S    
C41   C43   A    
C4    H90   S    
C42   C44   S    
C34   C35   A    
O8    Zn5   S    
C54   O17   A    
C89   H60   S    
C53   C60   A    
O1    Zn4   S    
C90   H62   S    
C46   C48   A    
C89   H59   S    
C53   C55   A    
C70   H12   S    
C76   H36   S    
C75   H32   S    
C14   C58   S    
C73   H28   S    
C95   O31   S    
C74   C75   S    
C25   C66   S    
C51   C52   A    
C39   O29   S    
O1    Zn1   S    
C84   C85   S    
O14   Zn2   S    
C77   H37   S    
C13   H4    S    
C14   H19   S    
C39   C40   A    
C5    C7    A    
C76   H33   S    
C78   C79   S    
C8    C9    A    
C97   H79   S    
C6    C8    S    
C28   H9    S    
C85   C86   S    
C1    C32   S    
O3    Zn6   S    
C88   O29   S    
C72   H25   S    
O15   Zn3   S    
C21   H2    S    
C37   C43   A    
C75   C76   S    
C85   H50   S    
C47   C70   S    
C6    O13   A    
C37   C38   A    
O7    Zn5   S    
C94   H70   S    
C30   O23   A    
C91   H67   S    
C97   H76   S    
C31   C32   A    
C26   H8    S    
C81   H42   S    
C51   O33   S    
C64   O2    A    
C20   C21   A    
C36   C68   S    
C61   O39   A    
C42   O16   A    
C50   C51   A    
C86   H54   S    
C17   C23   A    
C88   C89   S    
O38   Zn8   S    
O1    Zn2   S    
C3    O35   D    
C85   H51   S    
C35   C64   S    
C42   O18   A    
C84   O27   S    
C25   C54   S    
C68   H15   S    
C65   O6    A    
C9    H34   S    
C4    O36   D    
C40   C41   A    
C49   C50   A    
C59   H17   S    
C81   H44   S    
C13   C15   A    
C5    C11   A    
C82   O25   D    
O4    Zn4   S    
C70   H18   S    
C2    H78   S    
O38   Zn5   S    
C67   O5    A    
C89   C90   S    
C74   H29   S    
O11   Zn7   S    
C52   C53   A    
O1    Zn3   S    
C79   C81   S    
C65   O3    A    
O5    Zn8   S    
C23   C61   S    
C1    O34   A    
C58   O20   S    
C99   O33   S    
C28   C29   A    
C96   H75   S    
C96   C97   S    
C45   C87   S    
C22   C23   A    
C68   C83   S    
C86   H52   S    
C27   C82   S    
O23   Zn4   S    
C44   C45   A    
C47   H23   S    
C72   C73   S    
C69   C80   A    
C78   H39   S    
C78   O24   S    
C7    C69   A    
C2    C5    A    
C34   O27   S    
C12   H3    S    
C73   H27   S    
C29   C35   A    
C36   C58   S    
C46   O31   S    
C99   C100  S    
C72   H24   S    
O40   Zn5   S    
C32   C33   A    
C80   C91   A    
C64   O9    A    
C100  H84   S    
C95   H72   S    
C40   O30   S    
C71   C72   S    
C29   C31   A    
C49   C55   A    
C84   H48   S    
O6    Zn7   S    
C33   C77   S    
C97   H77   S    
C79   H40   S    
O9    Zn8   S    
C98   H80   S    
C22   H7    S    
C57   C98   S    
C12   C19   A    
C3    C47   S    
C92   C93   S    
C17   C19   A    
C41   C48   A    
C33   C34   A    
C14   C25   S    
C86   H53   S    
C2    C91   A    
C100  H83   S    
C37   H10   S    
C7    C8    A    
C10   C11   A    
C4    C58   S    
C83   H47   S    
O19   Zn1   S    
C92   H65   S    
C54   O19   A    
C38   H11   S    
C12   C13   A    
C93   H66   S    
O13   Zn1   S    
C62   O40   A    
C74   O21   S    
C27   C28   A    
C87   H55   S    
C71   O20   S    
C100  C101  S    
C25   C70   S    
O38   Zn6   S    
C74   H30   S    
C66   O21   S    
C94   H69   S    
C101  H86   S    
C101  H85   S    
O16   Zn2   S    
C63   O41   A    
C84   H49   S    
