data_mof_unit_62137.cif
_audit_creation_date              2013-03-05T16:23:06-0500
_audit_creation_method            fapswitch 2.2
_symmetry_space_group_name_H-M    P1
_symmetry_Int_Tables_number       1
_space_group_crystal_system       triclinic
_cell_length_a                    18.356409
_cell_length_b                    30.933155
_cell_length_c                    30.59184
_cell_angle_alpha                 89.991081
_cell_angle_beta                  89.811533
_cell_angle_gamma                 90.005635
_cell_volume                      17370.6146371

loop_
_atom_site_label
_atom_site_type_symbol
_atom_site_description
_atom_site_fract_x
_atom_site_fract_y
_atom_site_fract_z
_atom_type_partial_charge
O1    O     O_R   0.500000 0.731000 0.321180 -0.601449
O2    O     O_R   0.500000 0.731000 0.678820 -0.601059
O3    O     O_R   1.000000 0.231000 0.321180 -0.599836
O4    O     O_R   1.000000 0.231000 0.678820 -0.603276
O5    O     O_R   1.000000 0.731000 0.821180 -0.596655
O6    O     O_R   1.000000 0.731000 0.178820 -0.598526
O7    O     O_R   0.500000 0.231000 0.821180 -0.600926
O8    O     O_R   0.500000 0.231000 0.178820 -0.598876
O9    O     O_R   0.500000 0.678810 0.268980 -0.575720
O10   O     O_R   0.500000 0.678810 0.731020 -0.576983
O11   O     O_R   0.000000 0.178810 0.268980 -0.572875
O12   O     O_R   0.000000 0.178810 0.731020 -0.579255
O13   O     O_R   0.000000 0.678810 0.768980 -0.574961
O14   O     O_R   0.000000 0.678810 0.231020 -0.587370
O15   O     O_R   0.500000 0.178810 0.768980 -0.585762
O16   O     O_R   0.500000 0.178810 0.231020 -0.578639
C1    C     C_R   0.500240 0.690844 0.309512 0.796404
C2    C     C_R   0.499767 0.690842 0.690487 0.796717
C3    C     C_R   0.001133 0.190864 0.309396 0.796432
C4    C     C_R   0.998552 0.190743 0.690459 0.799297
C5    C     C_R   0.999205 0.690877 0.809454 0.797503
C6    C     C_R   0.999909 0.690631 0.190398 0.794295
C7    C     C_R   0.498832 0.190721 0.809564 0.796464
C8    C     C_R   0.500202 0.190823 0.190580 0.794840
O17   O     O_R   0.394200 0.776090 0.276090 -0.568021
O18   O     O_R   0.394200 0.776090 0.723910 -0.554343
O19   O     O_R   0.605800 0.776090 0.276090 -0.563924
O20   O     O_R   0.605800 0.776090 0.723910 -0.590342
O21   O     O_R   0.894200 0.276090 0.276090 -0.568670
O22   O     O_R   0.894200 0.276090 0.723910 -0.575529
O23   O     O_R   0.105800 0.276090 0.276090 -0.571038
O24   O     O_R   0.105800 0.276090 0.723910 -0.557573
O25   O     O_R   0.894200 0.776090 0.776090 -0.586918
O26   O     O_R   0.894200 0.776090 0.223910 -0.561383
O27   O     O_R   0.105800 0.776090 0.776090 -0.533527
O28   O     O_R   0.105800 0.776090 0.223910 -0.567193
O29   O     O_R   0.394200 0.276090 0.776090 -0.551319
O30   O     O_R   0.394200 0.276090 0.223910 -0.556125
O31   O     O_R   0.605800 0.276090 0.776090 -0.578511
O32   O     O_R   0.605800 0.276090 0.223910 -0.563599
O33   O     O_R   0.394210 0.723900 0.223890 -0.579524
O34   O     O_R   0.394210 0.723900 0.776110 -0.586342
O35   O     O_R   0.605790 0.723900 0.223890 -0.593695
O36   O     O_R   0.605790 0.723900 0.776110 -0.577546
O37   O     O_R   0.894210 0.223900 0.223890 -0.586964
O38   O     O_R   0.894210 0.223900 0.776110 -0.592113
O39   O     O_R   0.105790 0.223900 0.223890 -0.580031
O40   O     O_R   0.105790 0.223900 0.776110 -0.581973
O41   O     O_R   0.894210 0.723900 0.723890 -0.582155
O42   O     O_R   0.894210 0.723900 0.276110 -0.587378
O43   O     O_R   0.105790 0.723900 0.723890 -0.595040
O44   O     O_R   0.105790 0.723900 0.276110 -0.588033
O45   O     O_R   0.394210 0.223900 0.723890 -0.588915
O46   O     O_R   0.394210 0.223900 0.276110 -0.592352
O47   O     O_R   0.605790 0.223900 0.723890 -0.588669
O48   O     O_R   0.605790 0.223900 0.276110 -0.587409
C9    C     C_R   0.360277 0.750029 0.250015 0.841904
C10   C     C_R   0.360274 0.749969 0.750042 0.852236
C11   C     C_R   0.639722 0.749953 0.249975 0.812247
C12   C     C_R   0.639729 0.749831 0.749784 0.810639
C13   C     C_R   0.860277 0.249850 0.250195 0.808669
C14   C     C_R   0.860273 0.249955 0.750030 0.811989
C15   C     C_R   0.139726 0.249938 0.249993 0.844305
C16   C     C_R   0.139723 0.250044 0.749996 0.847235
C17   C     C_R   0.860275 0.750026 0.750006 0.809813
C18   C     C_R   0.860274 0.749958 0.250027 0.845067
C19   C     C_R   0.139721 0.749958 0.749976 0.842072
C20   C     C_R   0.139725 0.750039 0.250000 0.815756
C21   C     C_R   0.360279 0.250063 0.749975 0.844862
C22   C     C_R   0.360272 0.249940 0.250017 0.807404
C23   C     C_R   0.639722 0.249940 0.749993 0.817376
C24   C     C_R   0.639726 0.250053 0.250015 0.840359
Cu1   Cu    Cu3+1 0.500000 0.780890 0.280900 1.051355
Cu2   Cu    Cu3+1 0.500000 0.780890 0.719100 1.022071
Cu3   Cu    Cu3+1 1.000000 0.280890 0.280900 1.032711
Cu4   Cu    Cu3+1 0.000000 0.280890 0.719100 1.047238
Cu5   Cu    Cu3+1 0.000000 0.780890 0.780900 1.063715
Cu6   Cu    Cu3+1 1.000000 0.780890 0.219100 1.056939
Cu7   Cu    Cu3+1 0.500000 0.280890 0.780900 1.050784
Cu8   Cu    Cu3+1 0.500000 0.280890 0.219100 1.066524
Cu9   Cu    Cu3+1 0.500000 0.719080 0.219090 0.993680
Cu10  Cu    Cu3+1 0.500000 0.719080 0.780910 1.004736
Cu11  Cu    Cu3+1 0.000000 0.219080 0.219090 1.003300
Cu12  Cu    Cu3+1 0.000000 0.219080 0.780910 0.988760
Cu13  Cu    Cu3+1 0.000000 0.719080 0.719090 0.986143
Cu14  Cu    Cu3+1 1.000000 0.719080 0.280910 0.973019
Cu15  Cu    Cu3+1 0.500000 0.219080 0.719090 0.977351
Cu16  Cu    Cu3+1 0.500000 0.219080 0.280910 0.982781
O49   O     O_R   0.500000 0.821170 0.231010 -0.517836
O50   O     O_R   0.500000 0.821170 0.768990 -0.545044
O51   O     O_R   1.000000 0.321170 0.231010 -0.535450
O52   O     O_R   0.000000 0.321170 0.768990 -0.518514
O53   O     O_R   1.000000 0.821170 0.731010 -0.521250
O54   O     O_R   0.000000 0.821170 0.268990 -0.514908
O55   O     O_R   0.500000 0.321170 0.731010 -0.516849
O56   O     O_R   0.500000 0.321170 0.268990 -0.514151
O57   O     O_R   0.500000 0.768980 0.178810 -0.592578
O58   O     O_R   0.500000 0.768980 0.821190 -0.583950
O59   O     O_R   0.000000 0.268980 0.178810 -0.588743
O60   O     O_R   0.000000 0.268980 0.821190 -0.592154
O61   O     O_R   0.000000 0.768980 0.678810 -0.596931
O62   O     O_R   0.000000 0.768980 0.321190 -0.599357
O63   O     O_R   0.500000 0.268980 0.678810 -0.594688
O64   O     O_R   0.500000 0.268980 0.321190 -0.596542
C25   C     C_R   0.502172 0.809131 0.190470 0.839049
C26   C     C_R   0.497804 0.808964 0.809387 0.862202
C27   C     C_R   0.001991 0.308994 0.190631 0.856279
C28   C     C_R   0.997475 0.309102 0.809523 0.838754
C29   C     C_R   0.997956 0.809103 0.690435 0.841640
C30   C     C_R   0.002551 0.809099 0.309580 0.843379
C31   C     C_R   0.503070 0.309082 0.690443 0.837043
C32   C     C_R   0.496878 0.309081 0.309557 0.836435
C33   C     C_1   0.282673 0.750119 0.250034 -0.135990
C34   C     C_1   0.282673 0.749883 0.750045 -0.103211
C35   C     C_1   0.717320 0.749869 0.249966 -0.146672
C36   C     C_1   0.717331 0.750005 0.749865 -0.162823
C37   C     C_1   0.782678 0.250030 0.250111 -0.150327
C38   C     C_1   0.782671 0.249867 0.750040 -0.158484
C39   C     C_1   0.217327 0.249842 0.249997 -0.122072
C40   C     C_1   0.217325 0.250141 0.749971 -0.126495
C41   C     C_1   0.782677 0.750083 0.749976 -0.164326
C42   C     C_1   0.782670 0.749868 0.250013 -0.141201
C43   C     C_1   0.217324 0.749877 0.749993 -0.111097
C44   C     C_1   0.217324 0.750127 0.250005 -0.145217
C45   C     C_1   0.282675 0.250150 0.749983 -0.126191
C46   C     C_1   0.282674 0.249843 0.250030 -0.135333
C47   C     C_1   0.717322 0.249860 0.749998 -0.159722
C48   C     C_1   0.717330 0.250111 0.250020 -0.141094
C49   C     C_R   0.447037 0.654882 0.374227 0.098140
C50   C     C_R   0.553001 0.654868 0.625791 0.100256
C51   C     C_R   0.061593 0.148704 0.367068 0.097409
C52   C     C_R   0.041722 0.159965 0.620296 0.109252
C53   C     C_R   0.941485 0.651681 0.870607 0.096137
C54   C     C_R   0.005533 0.667102 0.112634 0.130546
C55   C     C_R   0.538381 0.161679 0.881294 0.106840
C56   C     C_R   0.460402 0.159697 0.120296 0.113140
C57   C     C_R   0.501688 0.657598 0.342652 -0.126988
C58   C     C_R   0.498327 0.657595 0.657350 -0.127134
C59   C     C_R   0.000060 0.157542 0.342219 -0.125222
C60   C     C_R   0.997448 0.157211 0.657318 -0.142982
C61   C     C_R   0.000394 0.657694 0.842486 -0.126375
C62   C     C_R   0.996028 0.657229 0.156894 -0.146744
C63   C     C_R   0.498638 0.157139 0.842730 -0.141513
C64   C     C_R   0.502956 0.157693 0.157515 -0.131901
C65   C     C_R   0.551355 0.623398 0.338666 -0.192804
C66   C     C_R   0.448631 0.623400 0.661323 -0.193803
C67   C     C_R   0.941613 0.128483 0.343500 -0.177529
C68   C     C_R   0.960210 0.118279 0.665492 -0.193864
C69   C     C_R   0.056084 0.626768 0.841778 -0.172126
C70   C     C_R   0.978943 0.614292 0.168459 -0.193932
C71   C     C_R   0.466676 0.116798 0.833567 -0.178426
C72   C     C_R   0.546701 0.120702 0.163339 -0.194074
H1    H     H_    0.591319 0.623826 0.312466 0.160184
H2    H     H_    0.408645 0.623828 0.687511 0.160906
H3    H     H_    0.895997 0.133218 0.321572 0.149470
H4    H     H_    0.928876 0.114554 0.695369 0.168894
H5    H     H_    0.099795 0.629815 0.818039 0.152668
H6    H     H_    0.967260 0.606068 0.202204 0.181647
H7    H     H_    0.439258 0.111766 0.802657 0.170576
H8    H     H_    0.580591 0.117980 0.192175 0.167165
C73   C     C_R   0.551916 0.589460 0.369200 0.112925
C74   C     C_R   0.448066 0.589465 0.630791 0.108440
C75   C     C_R   0.939885 0.094874 0.374459 0.129076
C76   C     C_R   0.960706 0.084591 0.634626 0.140774
C77   C     C_R   0.058092 0.593611 0.873179 0.118877
C78   C     C_R   0.979785 0.581184 0.137023 0.123481
C79   C     C_R   0.466771 0.083583 0.864957 0.064409
C80   C     C_R   0.546333 0.086776 0.132342 0.138492
C81   C     C_R   0.499704 0.589498 0.403708 -0.074013
C82   C     C_R   0.500303 0.589498 0.596293 -0.074165
C83   C     C_R   0.999838 0.089753 0.403548 -0.089612
C84   C     C_R   0.001040 0.089973 0.595380 -0.059676
C85   C     C_R   0.000522 0.590418 0.904355 -0.087638
C86   C     C_R   0.998057 0.591595 0.093295 -0.040608
C87   C     C_R   0.501653 0.090748 0.905467 -0.073130
C88   C     C_R   0.500572 0.090143 0.094932 -0.053695
C89   C     C_R   0.444879 0.620784 0.403218 0.028085
C90   C     C_R   0.555154 0.620776 0.596802 0.027260
C91   C     C_R   0.061998 0.114888 0.396336 0.042061
C92   C     C_R   0.045335 0.126326 0.590801 0.024977
C93   C     C_R   0.940657 0.617915 0.899980 0.035579
C94   C     C_R   0.005831 0.634809 0.081513 -0.047899
C95   C     C_R   0.542217 0.128391 0.911189 0.013827
C96   C     C_R   0.457772 0.126878 0.091203 -0.017281
C97   C     C_3   0.414451 0.647654 0.439496 -0.456346
C98   C     C_3   0.585663 0.647648 0.560538 -0.456779
C99   C     C_3   0.111050 0.137886 0.427502 -0.448781
C100  C     C_3   0.055968 0.155521 0.552486 -0.495157
C101  C     C_3   0.899424 0.643018 0.933658 -0.447547
C102  C     C_3   0.062626 0.656278 0.054071 -0.465342
C103  C     C_3   0.546330 0.158081 0.949511 -0.475931
C104  C     C_3   0.399251 0.147111 0.064401 -0.439671
C105  C     C_3   0.418561 0.686094 0.407975 0.304197
C106  C     C_3   0.581566 0.686080 0.592059 0.305153
C107  C     C_3   0.109870 0.176019 0.395494 0.287346
C108  C     C_3   0.049687 0.193275 0.584658 0.316950
C109  C     C_3   0.901507 0.681126 0.901640 0.288758
C110  C     C_3   0.063363 0.692232 0.088518 0.308822
C111  C     C_3   0.539515 0.195396 0.916838 0.317558
C112  C     C_3   0.401732 0.184764 0.097778 0.281033
H9    H     H_    0.358134 0.637516 0.448242 0.199913
H10   H     H_    0.548064 0.649551 0.532135 0.166919
H11   H     H_    0.452087 0.649535 0.467883 0.166758
H12   H     H_    0.641977 0.637494 0.551817 0.199674
H13   H     H_    0.083764 0.144178 0.459313 0.169932
H14   H     H_    0.010561 0.152983 0.528599 0.171893
H15   H     H_    0.164764 0.121520 0.430331 0.201999
H16   H     H_    0.111062 0.151409 0.537848 0.194844
H17   H     H_    0.844199 0.629272 0.939274 0.201433
H18   H     H_    0.040572 0.666159 0.021748 0.177976
H19   H     H_    0.931545 0.647759 0.964084 0.170103
H20   H     H_    0.113654 0.636948 0.052081 0.206281
H21   H     H_    0.499081 0.154053 0.971897 0.169640
H22   H     H_    0.348171 0.127797 0.065223 0.210000
H23   H     H_    0.600106 0.155922 0.966004 0.195338
H24   H     H_    0.418473 0.155594 0.031057 0.171124
C113  C     C_R   0.449483 0.872156 0.154707 -0.223045
C114  C     C_R   0.438337 0.854397 0.863112 -0.234487
C115  C     C_R   0.061857 0.358343 0.140686 -0.233413
C116  C     C_R   0.048941 0.372889 0.844287 -0.225174
C117  C     C_R   0.052118 0.871127 0.653296 -0.230450
C118  C     C_R   0.951190 0.872988 0.344785 -0.225480
C119  C     C_R   0.451430 0.372583 0.655400 -0.229021
C120  C     C_R   0.548475 0.372588 0.344598 -0.225306
C121  C     C_R   0.504714 0.841420 0.156107 -0.072594
C122  C     C_R   0.502442 0.840841 0.843410 -0.055752
C123  C     C_R   0.997475 0.341009 0.156712 -0.053565
C124  C     C_R   0.995045 0.341343 0.843882 -0.080034
C125  C     C_R   0.995830 0.841211 0.655863 -0.077640
C126  C     C_R   0.004664 0.841232 0.344178 -0.078072
C127  C     C_R   0.505589 0.341255 0.655939 -0.077127
C128  C     C_R   0.494322 0.341250 0.344060 -0.073391
C129  C     C_R   0.553997 0.838086 0.120260 0.169932
C130  C     C_R   0.570114 0.852382 0.862056 0.162929
C131  C     C_R   0.930907 0.349888 0.135353 0.160496
C132  C     C_R   0.947358 0.337446 0.880421 0.174128
C133  C     C_R   0.945324 0.838233 0.620811 0.164552
C134  C     C_R   0.052077 0.837045 0.380670 0.168758
C135  C     C_R   0.553101 0.337329 0.619271 0.168476
C136  C     C_R   0.446788 0.337317 0.380721 0.171271
C137  C     C_R   0.549029 0.868443 0.085375 0.170253
C138  C     C_R   0.571239 0.882622 0.897221 0.165671
C139  C     C_R   0.930002 0.380720 0.100742 0.163127
C140  C     C_R   0.952723 0.367908 0.915158 0.170373
C141  C     C_R   0.949866 0.868427 0.585678 0.159584
C142  C     C_R   0.047202 0.867520 0.415520 0.156641
C143  C     C_R   0.547381 0.367534 0.584293 0.149583
C144  C     C_R   0.452509 0.367523 0.415698 0.149645
C145  C     C_R   0.499421 0.903505 0.089029 -0.094018
C146  C     C_R   0.504057 0.902711 0.910759 -0.119464
C147  C     C_R   0.996219 0.403162 0.089641 -0.117644
C148  C     C_R   0.000620 0.403699 0.910669 -0.089145
C149  C     C_R   0.000620 0.903023 0.588461 -0.097583
C150  C     C_R   0.999355 0.903360 0.411256 -0.088580
C151  C     C_R   0.499055 0.403149 0.588627 -0.086919
C152  C     C_R   0.500890 0.403130 0.411384 -0.087112
C153  C     C_R   0.447040 0.902572 0.121959 -0.176607
C154  C     C_R   0.439031 0.885189 0.895389 -0.187522
C155  C     C_R   0.061170 0.389055 0.108245 -0.184061
C156  C     C_R   0.051512 0.403482 0.876876 -0.164890
C157  C     C_R   0.054315 0.901385 0.620440 -0.182618
C158  C     C_R   0.948641 0.903360 0.377552 -0.169766
C159  C     C_R   0.448478 0.402988 0.622626 -0.163330
C160  C     C_R   0.551449 0.402980 0.377376 -0.161514
C161  C     C_3   0.420349 0.937197 0.151992 1.002451
C162  C     C_3   0.369772 0.905225 0.879616 1.041012
C163  C     C_3   0.122739 0.413649 0.128310 1.039656
C164  C     C_3   0.074597 0.438329 0.846042 0.959405
C165  C     C_3   0.084616 0.935498 0.649746 1.007555
C166  C     C_3   0.925421 0.938424 0.347084 0.968922
C167  C     C_3   0.425801 0.437929 0.653467 0.952351
C168  C     C_3   0.574100 0.437936 0.346531 0.953053
C169  C     C_3   0.423534 0.903748 0.188346 1.034331
C170  C     C_3   0.369178 0.871051 0.843881 1.010987
C171  C     C_3   0.123462 0.379617 0.164127 1.001164
C172  C     C_3   0.071482 0.404659 0.809992 1.062479
C173  C     C_3   0.081594 0.902169 0.686259 1.040880
C174  C     C_3   0.928845 0.904997 0.310757 1.052225
C175  C     C_3   0.429009 0.404409 0.689620 1.065340
C176  C     C_3   0.570862 0.404432 0.310376 1.053921
O65   O     O_R   0.438730 0.954890 0.954890 -0.526892
O66   O     O_R   0.438730 0.954890 0.045110 -0.541649
O67   O     O_R   0.561270 0.954890 0.954890 -0.609210
O68   O     O_R   0.561270 0.954890 0.045110 -0.599755
O69   O     O_R   0.938730 0.454890 0.954890 -0.585582
O70   O     O_R   0.938730 0.454890 0.045110 -0.612344
O71   O     O_R   0.061270 0.454890 0.954890 -0.557223
O72   O     O_R   0.061270 0.454890 0.045110 -0.523708
O73   O     O_R   0.938730 0.954890 0.454890 -0.568791
O74   O     O_R   0.938730 0.954890 0.545110 -0.593042
O75   O     O_R   0.061270 0.954890 0.454890 -0.575078
O76   O     O_R   0.061270 0.954890 0.545110 -0.553832
O77   O     O_R   0.438730 0.454890 0.454890 -0.573800
O78   O     O_R   0.438730 0.454890 0.545110 -0.573858
O79   O     O_R   0.561270 0.454890 0.454890 -0.574765
O80   O     O_R   0.561270 0.454890 0.545110 -0.574989
C177  C     C_R   0.500792 0.939369 0.941306 0.828270
C178  C     C_R   0.499925 0.939646 0.058588 0.855331
C179  C     C_R   0.000092 0.439753 0.941265 0.863865
C180  C     C_R   0.999208 0.439441 0.058724 0.828728
C181  C     C_R   0.999987 0.939617 0.441478 0.850695
C182  C     C_R   1.000000 0.939473 0.558397 0.834809
C183  C     C_R   0.500127 0.439546 0.441510 0.846147
C184  C     C_R   0.499860 0.439563 0.558505 0.845503
O81   O     O_R   0.438760 0.545060 0.454900 -0.571801
O82   O     O_R   0.438760 0.545060 0.545100 -0.595245
O83   O     O_R   0.561240 0.545060 0.454900 -0.595722
O84   O     O_R   0.561240 0.545060 0.545100 -0.572390
O85   O     O_R   0.938760 0.045060 0.454900 -0.591527
O86   O     O_R   0.938760 0.045060 0.545100 -0.598643
O87   O     O_R   0.061240 0.045060 0.454900 -0.578305
O88   O     O_R   0.061240 0.045060 0.545100 -0.559667
O89   O     O_R   0.938760 0.545060 0.954900 -0.575389
O90   O     O_R   0.938760 0.545060 0.045100 -0.592606
O91   O     O_R   0.061240 0.545060 0.954900 -0.595276
O92   O     O_R   0.061240 0.545060 0.045100 -0.565386
O93   O     O_R   0.438760 0.045060 0.954900 -0.582527
O94   O     O_R   0.438760 0.045060 0.045100 -0.563685
O95   O     O_R   0.561240 0.045060 0.954900 -0.583137
O96   O     O_R   0.561240 0.045060 0.045100 -0.598496
C185  C     C_R   0.500148 0.558287 0.439325 0.817109
C186  C     C_R   0.499855 0.558290 0.560674 0.816511
C187  C     C_R   0.999874 0.058628 0.439498 0.824462
C188  C     C_R   0.000020 0.058569 0.560250 0.817612
C189  C     C_R   0.000273 0.558822 0.939747 0.819511
C190  C     C_R   0.999799 0.559286 0.059376 0.806333
C191  C     C_R   0.500206 0.059000 0.940206 0.800183
C192  C     C_R   0.499992 0.058321 0.060406 0.820436
Cu17  Cu    Cu3+1 0.427490 0.999980 0.000000 1.089959
Cu18  Cu    Cu3+1 0.572510 0.999980 0.000000 0.958929
Cu19  Cu    Cu3+1 0.927490 0.499980 0.000000 0.972969
Cu20  Cu    Cu3+1 0.072510 0.499980 0.000000 1.076734
Cu21  Cu    Cu3+1 0.927490 0.999980 0.500000 0.993159
Cu22  Cu    Cu3+1 0.072510 0.999980 0.500000 1.040388
Cu23  Cu    Cu3+1 0.427490 0.499980 0.500000 1.014133
Cu24  Cu    Cu3+1 0.572510 0.499980 0.500000 1.010746
C193  C     C_3   0.609425 0.555182 0.363514 -0.630430
H25   H     H_    0.599194 0.526164 0.383589 0.287372
H26   H     H_    0.610803 0.544323 0.328909 0.263259
H27   H     H_    0.663533 0.568727 0.372068 0.205786
C194  C     C_3   0.390528 0.555194 0.636469 -0.619551
H28   H     H_    0.400762 0.526172 0.616411 0.285763
H29   H     H_    0.389103 0.544339 0.671078 0.266084
H30   H     H_    0.336438 0.568745 0.627888 0.207868
C195  C     C_3   0.873506 0.066229 0.375908 -0.665346
H31   H     H_    0.890244 0.031837 0.375623 0.302293
H32   H     H_    0.841051 0.073192 0.405752 0.221242
H33   H     H_    0.837615 0.071556 0.347240 0.222385
C196  C     C_3   0.917584 0.044380 0.644997 -0.703349
H34   H     H_    0.927755 0.017693 0.621642 0.257210
H35   H     H_    0.932715 0.032376 0.677957 0.269684
H36   H     H_    0.858535 0.052123 0.644916 0.206050
C197  C     C_3   0.122601 0.563524 0.873148 -0.646440
H37   H     H_    0.103725 0.529600 0.874562 0.300254
H38   H     H_    0.156293 0.567259 0.843152 0.228797
H39   H     H_    0.157837 0.570489 0.901702 0.221971
C198  C     C_3   0.964666 0.535589 0.152027 -0.730193
H40   H     H_    0.969030 0.511461 0.125380 0.233607
H41   H     H_    0.004279 0.526439 0.177784 0.270089
H42   H     H_    0.908765 0.533743 0.165877 0.222513
C199  C     C_3   0.429973 0.041296 0.854813 -0.651009
H43   H     H_    0.469479 0.014410 0.858820 0.238846
H44   H     H_    0.383032 0.036340 0.877200 0.269207
H45   H     H_    0.409279 0.040389 0.820748 0.240605
C200  C     C_3   0.592500 0.047582 0.141816 -0.690523
H46   H     H_    0.579619 0.019699 0.120505 0.258332
H47   H     H_    0.650926 0.056016 0.137852 0.211457
H48   H     H_    0.583006 0.036806 0.176000 0.264003
C201  C     C_3   0.343992 0.704861 0.395725 -0.802909
H49   H     H_    0.305890 0.678934 0.385284 0.222930
H50   H     H_    0.319913 0.721914 0.424262 0.235664
H51   H     H_    0.350166 0.728193 0.368350 0.234325
C202  C     C_3   0.526721 0.720573 0.576996 -0.779952
H52   H     H_    0.471208 0.706613 0.573668 0.217679
H53   H     H_    0.524601 0.747881 0.600407 0.253277
H54   H     H_    0.543787 0.733654 0.544730 0.222615
C203  C     C_3   0.473473 0.720562 0.423014 -0.778349
H55   H     H_    0.475598 0.747878 0.399605 0.253862
H56   H     H_    0.456468 0.733635 0.455289 0.223066
H57   H     H_    0.528972 0.706580 0.426314 0.216861
C204  C     C_3   0.656144 0.704816 0.604347 -0.804168
H58   H     H_    0.649964 0.728138 0.631721 0.234926
H59   H     H_    0.694196 0.678871 0.614803 0.223884
H60   H     H_    0.680284 0.721872 0.575822 0.234375
C205  C     C_3   0.073135 0.216398 0.414885 -0.782551
H61   H     H_    0.016453 0.209203 0.425531 0.218957
H62   H     H_    0.104415 0.227754 0.443708 0.225094
H63   H     H_    0.072008 0.242963 0.390563 0.252005
C206  C     C_3   0.981492 0.221008 0.576441 -0.779767
H64   H     H_    0.977539 0.247723 0.600453 0.251141
H65   H     H_    0.984629 0.235558 0.543288 0.224827
H66   H     H_    0.931166 0.201109 0.578506 0.216562
C207  C     C_3   0.183856 0.185523 0.374057 -0.796274
H67   H     H_    0.176903 0.209016 0.346920 0.221977
H68   H     H_    0.221685 0.199502 0.398536 0.235464
H69   H     H_    0.208644 0.155567 0.360533 0.229783
C208  C     C_3   0.119815 0.219927 0.588848 -0.785470
H70   H     H_    0.167633 0.198700 0.594795 0.220272
H71   H     H_    0.129498 0.238526 0.558318 0.231699
H72   H     H_    0.114942 0.242918 0.616584 0.243470
C209  C     C_3   0.826386 0.694448 0.884386 -0.799549
H73   H     H_    0.832779 0.717673 0.856932 0.228848
H74   H     H_    0.795564 0.665928 0.872327 0.227699
H75   H     H_    0.794348 0.710117 0.910853 0.234915
C210  C     C_3   0.035668 0.735784 0.071145 -0.765498
H76   H     H_    0.029708 0.759284 0.098330 0.247476
H77   H     H_    0.075055 0.749049 0.046982 0.237063
H78   H     H_    0.981917 0.732070 0.054913 0.210318
C211  C     C_3   0.946441 0.719367 0.919048 -0.771022
H79   H     H_    0.003412 0.709407 0.926048 0.220861
H80   H     H_    0.947167 0.746292 0.895142 0.253976
H81   H     H_    0.921544 0.731610 0.949786 0.221660
C212  C     C_3   0.136210 0.695758 0.112961 -0.777345
H82   H     H_    0.152715 0.663924 0.126586 0.224156
H83   H     H_    0.179467 0.707046 0.090198 0.239912
H84   H     H_    0.131710 0.719249 0.140258 0.235018
C213  C     C_3   0.467926 0.220681 0.922643 -0.769397
H85   H     H_    0.463458 0.246909 0.898124 0.252887
H86   H     H_    0.420005 0.198952 0.919409 0.218505
H87   H     H_    0.466424 0.235667 0.955633 0.224529
C214  C     C_3   0.332386 0.189369 0.125537 -0.760757
H88   H     H_    0.341826 0.212511 0.152688 0.228791
H89   H     H_    0.287106 0.201608 0.104982 0.243494
H90   H     H_    0.315972 0.157768 0.139801 0.226559
C215  C     C_3   0.607187 0.224449 0.914657 -0.799450
H91   H     H_    0.657534 0.204913 0.910367 0.217297
H92   H     H_    0.602814 0.247153 0.886668 0.243610
H93   H     H_    0.611994 0.243459 0.945306 0.232436
C216  C     C_3   0.428601 0.227544 0.078079 -0.760767
H94   H     H_    0.481023 0.222990 0.060361 0.210362
H95   H     H_    0.387606 0.240099 0.054675 0.235512
H96   H     H_    0.436692 0.251968 0.104179 0.253590
C217  C     C_3   0.615292 0.805224 0.120659 -0.809563
H97   H     H_    0.624884 0.791160 0.153451 0.224338
H98   H     H_    0.602999 0.778655 0.097443 0.235370
H99   H     H_    0.667423 0.820944 0.111241 0.237290
C218  C     C_3   0.640685 0.834457 0.843345 -0.833148
H100  H     H_    0.666844 0.812738 0.867548 0.230678
H101  H     H_    0.633273 0.815617 0.812994 0.214500
H102  H     H_    0.678095 0.861407 0.834825 0.243270
C219  C     C_3   0.860714 0.328781 0.150934 -0.811672
H103  H     H_    0.839240 0.307083 0.125107 0.228550
H104  H     H_    0.867118 0.309106 0.180821 0.214061
H105  H     H_    0.819812 0.354008 0.159044 0.250080
C220  C     C_3   0.887071 0.303919 0.880897 -0.815546
H106  H     H_    0.876202 0.290047 0.848168 0.224380
H107  H     H_    0.901342 0.277314 0.903663 0.236320
H108  H     H_    0.834948 0.318987 0.891363 0.235240
C221  C     C_3   0.885328 0.804534 0.622445 -0.820469
H109  H     H_    0.907545 0.772543 0.612829 0.244661
H110  H     H_    0.862250 0.802388 0.655984 0.216117
H111  H     H_    0.838862 0.812378 0.600839 0.233812
C222  C     C_3   0.109514 0.801783 0.380925 -0.805671
H112  H     H_    0.084311 0.770568 0.390523 0.240836
H113  H     H_    0.134589 0.798512 0.347998 0.221674
H114  H     H_    0.155104 0.808743 0.403486 0.233952
C223  C     C_3   0.612575 0.303318 0.618193 -0.811141
H115  H     H_    0.623301 0.288918 0.650706 0.225078
H116  H     H_    0.597497 0.277174 0.595085 0.234540
H117  H     H_    0.664958 0.317994 0.607678 0.235502
C224  C     C_3   0.387300 0.303296 0.381796 -0.811003
H118  H     H_    0.376661 0.288842 0.349301 0.226050
H119  H     H_    0.402296 0.277183 0.404964 0.232178
H120  H     H_    0.334886 0.317980 0.392234 0.236315
C225  C     C_3   0.595720 0.863849 0.044733 -0.831125
H121  H     H_    0.562689 0.871204 0.015323 0.215419
H122  H     H_    0.642848 0.886252 0.046426 0.248335
H123  H     H_    0.616327 0.830514 0.039979 0.234449
C226  C     C_3   0.643437 0.893808 0.918726 -0.789366
H124  H     H_    0.638452 0.891179 0.954728 0.234671
H125  H     H_    0.688758 0.871842 0.910168 0.224078
H126  H     H_    0.660541 0.926910 0.909146 0.248865
C227  C     C_3   0.858581 0.390581 0.077698 -0.787624
H127  H     H_    0.866139 0.389488 0.041849 0.233366
H128  H     H_    0.814515 0.367103 0.084266 0.224971
H129  H     H_    0.838242 0.422841 0.087913 0.251313
C228  C     C_3   0.908779 0.362519 0.956724 -0.841929
H130  H     H_    0.944178 0.369111 0.985308 0.213417
H131  H     H_    0.861829 0.385110 0.956719 0.248820
H132  H     H_    0.888040 0.329193 0.961325 0.236776
C229  C     C_3   0.902967 0.862693 0.545440 -0.815441
H133  H     H_    0.924987 0.880168 0.516646 0.225023
H134  H     H_    0.901712 0.828136 0.535654 0.230896
H135  H     H_    0.846739 0.874115 0.552236 0.244171
C230  C     C_3   0.090895 0.860944 0.456923 -0.813869
H136  H     H_    0.069024 0.879706 0.484901 0.220625
H137  H     H_    0.088157 0.826569 0.467265 0.230672
H138  H     H_    0.148521 0.870321 0.451241 0.249019
C231  C     C_3   0.592854 0.361608 0.543294 -0.810022
H139  H     H_    0.570480 0.379609 0.515022 0.220434
H140  H     H_    0.649596 0.372398 0.549346 0.247778
H141  H     H_    0.593082 0.327141 0.533229 0.230552
C232  C     C_3   0.406981 0.361596 0.456678 -0.810169
H142  H     H_    0.406791 0.327135 0.466775 0.229612
H143  H     H_    0.429272 0.379631 0.484946 0.220655
H144  H     H_    0.350230 0.372339 0.450580 0.248478
F1    F     F_    0.469270 0.970903 0.156921 -0.671682
F2    F     F_    0.378672 0.946875 0.864052 -0.663058
F3    F     F_    0.350499 0.950728 0.141980 -0.600385
F4    F     F_    0.313361 0.901174 0.909473 -0.605130
F5    F     F_    0.184637 0.413628 0.102345 -0.605274
F6    F     F_    0.144231 0.453223 0.854522 -0.627768
F7    F     F_    0.102810 0.454448 0.142694 -0.651629
F8    F     F_    0.023323 0.470901 0.841762 -0.666838
F9    F     F_    0.154589 0.947627 0.638037 -0.603330
F10   F     F_    0.976387 0.971218 0.342964 -0.659524
F11   F     F_    0.037981 0.970145 0.655790 -0.674341
F12   F     F_    0.855681 0.953081 0.355928 -0.638753
F13   F     F_    0.477402 0.470340 0.657560 -0.672207
F14   F     F_    0.643725 0.452962 0.354795 -0.648009
F15   F     F_    0.356183 0.452950 0.645185 -0.636174
F16   F     F_    0.522497 0.470343 0.342458 -0.669326
F17   F     F_    0.475100 0.912805 0.220009 -0.614806
F18   F     F_    0.377942 0.887523 0.802084 -0.609055
F19   F     F_    0.356070 0.892850 0.205428 -0.612055
F20   F     F_    0.312496 0.841729 0.847423 -0.619091
F21   F     F_    0.185746 0.354397 0.164538 -0.625759
F22   F     F_    0.138646 0.394920 0.791797 -0.591540
F23   F     F_    0.104172 0.395274 0.204975 -0.620739
F24   F     F_    0.017938 0.412549 0.779200 -0.613415
F25   F     F_    0.149310 0.889979 0.701757 -0.595637
F26   F     F_    0.982627 0.913111 0.279963 -0.606914
F27   F     F_    0.032285 0.912219 0.719087 -0.618958
F28   F     F_    0.861827 0.895357 0.292580 -0.618349
F29   F     F_    0.482635 0.412406 0.720333 -0.613490
F30   F     F_    0.637957 0.394744 0.292063 -0.625822
F31   F     F_    0.361896 0.394704 0.707909 -0.593474
F32   F     F_    0.517205 0.412433 0.279682 -0.608421

loop_
_geom_bond_atom_site_label_1
_geom_bond_atom_site_label_2
_geom_bond_distance
_ccdc_geom_bond_type
Cu15  O63   1.974947 S    
O73   Cu21  1.972599 S    
C198  H40   1.108035 S    
O29   C21   1.295172 A    
C215  H91   1.111688 S    
C106  C204  1.534471 S    
O68   Cu18  1.972264 S    
O34   C10   1.295170 A    
Cu7   Cu15  2.689281 S    
C193  H25   1.103267 S    
Cu21  Cu22  2.662045 S    
C227  H129  1.110090 S    
O77   Cu23  1.972599 S    
C138  C226  1.521405 S    
C163  C171  1.519449 S    
C110  C210  1.535441 S    
O81   C185  1.288636 A    
C176  F32   1.385328 S    
O7    Cu7   1.974705 S    
C205  H61   1.111708 S    
C208  H71   1.110688 S    
O74   Cu21  1.973243 S    
C55   C111  1.507011 S    
C72   H8    1.084377 S    
C86   C190  1.441084 S    
C149  C157  1.391925 A    
C225  H123  1.107828 S    
C113  C153  1.375108 A    
O12   Cu12  1.970199 S    
O83   C185  1.286691 A    
C82   C186  1.455933 S    
C102  H20   1.112815 S    
C229  H134  1.110391 S    
C203  H57   1.111694 S    
C30   C126  1.452693 S    
C213  H86   1.111678 S    
C73   C193  1.505997 S    
C109  C211  1.538220 S    
O48   C24   1.294700 A    
C18   C42   1.424540 S    
O3    C3    1.293008 A    
O39   Cu11  1.953633 S    
C67   H3    1.084561 S    
C201  H51   1.110950 S    
O57   C25   1.292914 A    
C22   C46   1.424430 S    
C167  C175  1.517178 S    
O45   C21   1.294912 A    
C212  H83   1.110667 S    
Cu10  O58   1.975247 S    
C7    C63   1.451967 S    
Cu1   Cu9   2.689281 S    
C197  H38   1.110893 S    
C16   C40   1.424489 S    
C199  H45   1.110721 S    
O16   Cu16  1.970199 S    
C78   C86   1.415126 A    
C36   C41   1.199534 T    
Cu12  O60   1.975247 S    
O51   C27   1.291871 A    
C153  C161  1.492906 S    
C202  H54   1.110850 S    
C40   C45   1.199598 T    
C219  H105  1.110472 S    
C28   C124  1.449669 S    
O93   Cu17  1.971890 S    
C226  H124  1.107841 S    
C141  C149  1.421577 A    
C76   C196  1.507466 S    
O10   Cu10  1.970199 S    
C222  H114  1.107649 S    
O85   Cu21  1.971890 S    
C218  H102  1.110465 S    
O22   Cu4   1.952830 S    
C118  C158  1.374640 A    
O46   C22   1.295090 A    
C217  H99   1.110516 S    
C175  F31   1.384267 S    
O12   C4    1.294877 A    
C115  C171  1.493798 S    
O72   C180  1.302459 A    
O94   C192  1.286198 A    
C195  H33   1.110901 S    
C131  C139  1.425055 A    
O38   Cu12  1.953661 S    
O38   C14   1.295139 A    
C198  H42   1.110340 S    
C152  C160  1.391886 A    
C204  H58   1.110952 S    
C223  H117  1.109967 S    
C210  H78   1.111982 S    
C120  C128  1.388529 A    
C169  F17   1.385198 S    
C50   C58   1.392876 A    
C193  H27   1.110047 S    
O84   C186  1.288710 A    
C148  C156  1.391092 A    
C87   C95   1.393466 A    
C226  H126  1.110041 S    
C101  C109  1.532891 S    
C88   C96   1.386445 A    
C175  F29   1.385322 S    
C53   C109  1.505060 S    
C51   C107  1.503539 S    
C19   C43   1.424509 S    
O87   C187  1.292514 A    
C6    C62   1.457386 S    
O28   C20   1.295132 A    
O69   Cu19  1.972599 S    
C169  F19   1.384183 S    
C207  H67   1.110912 S    
C117  C157  1.373845 A    
C147  C180  1.468426 S    
O58   C26   1.289087 A    
Cu2   O50   1.970390 S    
O44   Cu14  1.952669 S    
C102  H18   1.112517 S    
C121  C129  1.423073 A    
Cu8   Cu16  2.688862 S    
C210  H76   1.109805 S    
C172  F24   1.385271 S    
O46   Cu16  1.953661 S    
C168  F16   1.385174 S    
C166  C174  1.519224 S    
C33   C44   1.199584 T    
C65   C73   1.405175 A    
O10   C2    1.294597 A    
C71   C79   1.406208 A    
C118  C174  1.494937 S    
C104  C112  1.549804 S    
C220  H106  1.108076 S    
C37   C48   1.199561 T    
C56   C112  1.496816 S    
C219  H104  1.104878 S    
Cu1   O49   1.970089 S    
Cu23  Cu24  2.662045 S    
C90   C98   1.493595 S    
C39   C46   1.199538 T    
O40   Cu12  1.952669 S    
C49   C57   1.392855 A    
C196  H36   1.110103 S    
C3    C59   1.438970 S    
C199  H43   1.110532 S    
O13   Cu13  1.969898 S    
O31   C23   1.294772 A    
C1    C57   1.444296 S    
C94   C102  1.492198 S    
O89   C189  1.291316 A    
C211  H79   1.111737 S    
O19   Cu1   1.952861 S    
C105  C201  1.534464 S    
C114  C122  1.385405 A    
O47   C23   1.295320 A    
C71   H7    1.083915 S    
C205  H62   1.110823 S    
C196  H34   1.107322 S    
C135  C143  1.424600 A    
C136  C144  1.424788 A    
C173  F25   1.384184 S    
C31   C127  1.451226 S    
C162  F2    1.382939 S    
C55   C95   1.379059 A    
C141  C229  1.514862 S    
O66   Cu17  1.973243 S    
C209  H73   1.111035 S    
O88   Cu22  1.972221 S    
C216  H94   1.111864 S    
C113  C169  1.496028 S    
C98   H10   1.112987 S    
O63   C31   1.291856 A    
C8    C64   1.440790 S    
O48   Cu16  1.952669 S    
C119  C175  1.493998 S    
C84   C92   1.394391 A    
C120  C176  1.493979 S    
C222  H113  1.110728 S    
O37   C13   1.294957 A    
O52   C28   1.295579 A    
C27   C123  1.436866 S    
C204  H60   1.110600 S    
O27   C19   1.294730 A    
C156  C164  1.492709 S    
O67   Cu18  1.973520 S    
O3    Cu3   1.974705 S    
C157  C165  1.493348 S    
Cu3   O51   1.970089 S    
C172  F22   1.384254 S    
C159  C167  1.493132 S    
C145  C178  1.454888 S    
Cu5   Cu13  2.689281 S    
C108  C208  1.534334 S    
C168  C176  1.517151 S    
C112  C216  1.534703 S    
C66   C74   1.405272 A    
C83   C91   1.397601 A    
O37   Cu11  1.952704 S    
C168  F14   1.384002 S    
C54   C94   1.380046 A    
C81   C89   1.396387 A    
Cu16  O64   1.975247 S    
O90   Cu19  1.973144 S    
C78   C198  1.508581 S    
C194  H29   1.110897 S    
C207  H69   1.111664 S    
O21   C13   1.295173 A    
O60   C28   1.292215 A    
C139  C147  1.439359 A    
C68   C76   1.406351 A    
O23   C15   1.294856 A    
C69   C77   1.405717 A    
O24   C16   1.294941 A    
O94   Cu17  1.973144 S    
C200  H48   1.110775 S    
O92   Cu20  1.972221 S    
O64   C32   1.291757 A    
C9    C33   1.424526 S    
C111  C213  1.539116 S    
C228  H131  1.109608 S    
C221  H110  1.110723 S    
C99   H13   1.110230 S    
C129  C217  1.516504 S    
O4    C4    1.295386 A    
C220  H108  1.110543 S    
C230  H136  1.108387 S    
C15   C39   1.424483 S    
O67   C177  1.280092 A    
O92   C190  1.285810 A    
C164  C172  1.518264 S    
O80   Cu24  1.972264 S    
C229  H133  1.108596 S    
C165  C173  1.520817 S    
O45   Cu15  1.952704 S    
O43   C19   1.295350 A    
O36   C12   1.294808 A    
C211  H81   1.110786 S    
C231  H140  1.109857 S    
C88   C192  1.443975 S    
C34   C43   1.199583 T    
C161  C169  1.520165 S    
O33   C9    1.295013 A    
C130  C138  1.425878 A    
C214  H90   1.111612 S    
O35   Cu9   1.953633 S    
C76   C84   1.418249 A    
C195  H32   1.109676 S    
C38   C47   1.199585 T    
C99   H15   1.112033 S    
Cu14  O62   1.975247 S    
C209  H75   1.110588 S    
O79   C183  1.286660 A    
C224  H120  1.109979 S    
C53   C93   1.377765 A    
O80   C184  1.288499 A    
C223  H115  1.107991 S    
O32   C24   1.295152 A    
O70   C180  1.279593 A    
C98   C106  1.532533 S    
C137  C145  1.420446 A    
O95   C191  1.283192 A    
C74   C194  1.506004 S    
O24   Cu4   1.953820 S    
O95   Cu18  1.972871 S    
C227  H128  1.104928 S    
C109  C209  1.534529 S    
C61   C69   1.400259 A    
O1    C1    1.292482 A    
C122  C130  1.414400 A    
C52   C92   1.378842 A    
C163  F7    1.385398 S    
O79   Cu24  1.973520 S    
O14   C6    1.295327 A    
C64   C72   1.409584 A    
C12   C36   1.424505 S    
C67   C75   1.406517 A    
C208  H70   1.111689 S    
O13   C5    1.293290 A    
O25   Cu5   1.953796 S    
O71   Cu20  1.973520 S    
C58   C66   1.401734 A    
O7    C7    1.295889 A    
C63   C71   1.407506 A    
O8    C8    1.293783 A    
O5    Cu5   1.974705 S    
C136  C224  1.516762 S    
C79   C87   1.414280 A    
O17   Cu1   1.953796 S    
O47   Cu15  1.953633 S    
C203  H56   1.110849 S    
C51   C59   1.390717 A    
C173  F27   1.385144 S    
C171  F23   1.385208 S    
C118  C126  1.388839 A    
C160  C168  1.493142 S    
C221  H109  1.109720 S    
O49   C25   1.295441 A    
C10   C34   1.424466 S    
C162  F4    1.384178 S    
C218  H100  1.110124 S    
O53   C29   1.296876 A    
C201  H50   1.110598 S    
C154  C162  1.495796 S    
O30   C22   1.294788 A    
C212  H82   1.111755 S    
O73   C181  1.285731 A    
C144  C232  1.515493 S    
O20   Cu2   1.953820 S    
O82   Cu23  1.973144 S    
Cu4   Cu12  2.688862 S    
C119  C159  1.375807 A    
C197  H37   1.105857 S    
C93   C101  1.494148 S    
C120  C160  1.375854 A    
C167  F15   1.384004 S    
C134  C222  1.517133 S    
C199  H44   1.109526 S    
O11   C3    1.291683 A    
C107  C205  1.537682 S    
O71   C179  1.287314 A    
C57   C65   1.401702 A    
C116  C156  1.375609 A    
C139  C227  1.521486 S    
C230  H138  1.109967 S    
O36   Cu10  1.952669 S    
C202  H53   1.108140 S    
O39   C15   1.295308 A    
O40   C16   1.294859 A    
C91   C99   1.493859 S    
C214  H89   1.110406 S    
O61   C29   1.291662 A    
O6    C6    1.297937 A    
O89   Cu19  1.971890 S    
C229  H135  1.109980 S    
C89   C97   1.493584 S    
C116  C124  1.389640 A    
C80   C88   1.425662 A    
C97   H9    1.112075 S    
C2    C58   1.444489 S    
C11   C35   1.424437 S    
O83   Cu24  1.972871 S    
O18   Cu2   1.952830 S    
C103  H23   1.112105 S    
C50   C90   1.378508 A    
C147  C155  1.392962 A    
C29   C125  1.451375 S    
Cu4   O52   1.970390 S    
C217  H98   1.109955 S    
C96   C104  1.491219 S    
C130  C218  1.519421 S    
C151  C159  1.391911 A    
C17   C41   1.424442 S    
O77   C183  1.288476 A    
C75   C83   1.426391 A    
O78   C184  1.286460 A    
O86   Cu21  1.973144 S    
O93   C191  1.287154 A    
C77   C197  1.506191 S    
C21   C45   1.424522 S    
C198  H41   1.110617 S    
Cu11  O59   1.974947 S    
C232  H142  1.109790 S    
C215  H92   1.110443 S    
C86   C94   1.391621 A    
C148  C179  1.456119 S    
Cu2   Cu10  2.688862 S    
C149  C182  1.454990 S    
C110  C212  1.538098 S    
C193  H26   1.110893 S    
C119  C127  1.388537 A    
C218  H101  1.105096 S    
C165  F11   1.383777 S    
C204  H59   1.111684 S    
C132  C220  1.516609 S    
C13   C37   1.424470 S    
C114  C154  1.372152 A    
O50   C26   1.292649 A    
C208  H72   1.110592 S    
O65   C177  1.303115 A    
O87   Cu22  1.972871 S    
O90   C190  1.281790 A    
O86   C188  1.287390 A    
C142  C150  1.420721 A    
O11   Cu11  1.969898 S    
O88   C188  1.284155 A    
C49   C89   1.378447 A    
O54   C30   1.297589 A    
C95   C103  1.491445 S    
C106  C202  1.538669 S    
C163  F5    1.384206 S    
C211  H80   1.108369 S    
Cu19  Cu20  2.662045 S    
Cu7   O55   1.970089 S    
C228  H130  1.110064 S    
C105  C203  1.538677 S    
C54   C62   1.398331 A    
O29   Cu7   1.953796 S    
C131  C219  1.519654 S    
O23   Cu3   1.952861 S    
C74   C82   1.423570 A    
C146  C177  1.470617 S    
O33   Cu9   1.952704 S    
C56   C96   1.351153 A    
C137  C225  1.514473 S    
O9    C1    1.294691 A    
O18   C10   1.294685 A    
O91   C189  1.285297 A    
O21   Cu3   1.953796 S    
C212  H84   1.109915 S    
O22   C14   1.294735 A    
C83   C187  1.461544 S    
O62   C30   1.291590 A    
C72   C80   1.414540 A    
O19   C11   1.294860 A    
O75   C181  1.288411 A    
C197  H39   1.109755 S    
C165  F9    1.384106 S    
C216  H96   1.109653 S    
Cu6   O54   1.970390 S    
C167  F13   1.385173 S    
C100  H16   1.112001 S    
C70   H6    1.083913 S    
C145  C153  1.390621 A    
C50   C106  1.505995 S    
O72   Cu20  1.972264 S    
C200  H46   1.107272 S    
C52   C60   1.394394 A    
O59   C27   1.290098 A    
O75   Cu22  1.973520 S    
C53   C61   1.392048 A    
C87   C191  1.447062 S    
O1    Cu1   1.974705 S    
C135  C223  1.516511 S    
C200  H47   1.109981 S    
C138  C146  1.440610 A    
C5    C61   1.440498 S    
C56   C64   1.384310 A    
C101  H17   1.112074 S    
C103  H21   1.110322 S    
Cu3   Cu11  2.689281 S    
O15   Cu15  1.969898 S    
C162  C170  1.520897 S    
C164  F6    1.384035 S    
Cu5   O53   1.970089 S    
C108  C206  1.538950 S    
O56   C32   1.297178 A    
O27   Cu5   1.952861 S    
C214  H88   1.110620 S    
C14   C38   1.424484 S    
O6    Cu6   1.975004 S    
C166  F12   1.384010 S    
O30   Cu8   1.952830 S    
O5    C5    1.292094 A    
C232  H144  1.109860 S    
C117  C125  1.389028 A    
C140  C228  1.512794 S    
C206  H65   1.110828 S    
O55   C31   1.297235 A    
O43   Cu13  1.953633 S    
C68   H4    1.084429 S    
C115  C123  1.385853 A    
C69   H5    1.084529 S    
C143  C231  1.515503 S    
O31   Cu7   1.952861 S    
C82   C90   1.396427 A    
C143  C151  1.420429 A    
O14   Cu14  1.970199 S    
C111  C215  1.534412 S    
C133  C221  1.517055 S    
C80   C200  1.507909 S    
C116  C172  1.494793 S    
Cu17  Cu18  2.662045 S    
O16   C8    1.291684 A    
C117  C173  1.495151 S    
O34   Cu10  1.953661 S    
C62   C70   1.409462 A    
C161  F1    1.384559 S    
C60   C68   1.406677 A    
C20   C44   1.424431 S    
C213  H85   1.108075 S    
O25   C17   1.295344 A    
C194  H28   1.103265 S    
C207  H68   1.110617 S    
C59   C67   1.400051 A    
O41   C17   1.294788 A    
C24   C48   1.424536 S    
C103  C111  1.532162 S    
C228  H132  1.107667 S    
C210  H77   1.110777 S    
C158  C166  1.493065 S    
O78   Cu23  1.973243 S    
C77   C85   1.424605 A    
C128  C136  1.423896 A    
C127  C135  1.423827 A    
C223  H116  1.109844 S    
C151  C184  1.455232 S    
C220  H107  1.109974 S    
C174  F26   1.385223 S    
C152  C183  1.455576 S    
C225  H122  1.109728 S    
C66   H2    1.084836 S    
C97   H11   1.112989 S    
C26   C122  1.436583 S    
O76   C182  1.286243 A    
O74   C182  1.288662 A    
Cu8   O56   1.970390 S    
C231  H139  1.108607 S    
C170  F20   1.384217 S    
O2    Cu2   1.975004 S    
C102  C110  1.532322 S    
C205  H63   1.108708 S    
C65   H1    1.084841 S    
C221  H111  1.107696 S    
O15   C7    1.295217 A    
C114  C170  1.492673 S    
C35   C42   1.199591 T    
O69   C179  1.287938 A    
C92   C100  1.491868 S    
C150  C181  1.453657 S    
C84   C188  1.448917 S    
C104  H22   1.111975 S    
O26   C18   1.294619 A    
C209  H74   1.111687 S    
C224  H119  1.109851 S    
C70   C78   1.405055 A    
C170  F18   1.385216 S    
C216  H95   1.110512 S    
C133  C141  1.426034 A    
O17   C9    1.295098 A    
C206  H66   1.111655 S    
O41   Cu13  1.952704 S    
C79   C199  1.504971 S    
C101  H19   1.113176 S    
C51   C91   1.376843 A    
C32   C128  1.451377 S    
C227  H127  1.105476 S    
C164  F8    1.385317 S    
O81   Cu23  1.971890 S    
C176  F30   1.384252 S    
C224  H118  1.107993 S    
O68   C178  1.287322 A    
O84   Cu24  1.972221 S    
C134  C142  1.425847 A    
O32   Cu8   1.953820 S    
C225  H121  1.110161 S    
C98   H12   1.112074 S    
O82   C186  1.286737 A    
O42   C18   1.295225 A    
C150  C158  1.391436 A    
C203  H55   1.108139 S    
O20   C12   1.295135 A    
C171  F21   1.384271 S    
O76   Cu22  1.972264 S    
C129  C137  1.424564 A    
C25   C121  1.450571 S    
C107  C207  1.534591 S    
O4    Cu4   1.975004 S    
C100  H14   1.113061 S    
C126  C134  1.423680 A    
C115  C155  1.373813 A    
C85   C189  1.458482 S    
C161  F3    1.384096 S    
C4    C60   1.450735 S    
C213  H87   1.110932 S    
Cu13  O61   1.974947 S    
O66   C178  1.287357 A    
C52   C108  1.506737 S    
C201  H49   1.111684 S    
C194  H30   1.110047 S    
C54   C110  1.506649 S    
C81   C185  1.455704 S    
C140  C148  1.420055 A    
C99   C107  1.533146 S    
C97   C105  1.532499 S    
O2    C2    1.292423 A    
O44   C20   1.294705 A    
C49   C105  1.506025 S    
C144  C152  1.420663 A    
C166  F10   1.385364 S    
O35   C11   1.295222 A    
C123  C131  1.414485 A    
C112  C214  1.534523 S    
C23   C47   1.424458 S    
C226  H125  1.105024 S    
C132  C140  1.424023 A    
C232  H143  1.108583 S    
C73   C81   1.423508 A    
C230  H137  1.110428 S    
O28   Cu6   1.953820 S    
C202  H52   1.111694 S    
O26   Cu6   1.952830 S    
O70   Cu19  1.973243 S    
Cu6   Cu14  2.688862 S    
C219  H103  1.110083 S    
C206  H64   1.108000 S    
Cu9   O57   1.974947 S    
C155  C163  1.495802 S    
C75   C195  1.507041 S    
C55   C63   1.396219 A    
C215  H93   1.110604 S    
C104  H24   1.109660 S    
O65   Cu17  1.972599 S    
C85   C93   1.396463 A    
C222  H112  1.109730 S    
O85   C187  1.285694 A    
C231  H141  1.109781 S    
C124  C132  1.422588 A    
O42   Cu14  1.953661 S    
C142  C230  1.515097 S    
C174  F28   1.384202 S    
C100  C108  1.531502 S    
C196  H35   1.110605 S    
C217  H97   1.107998 S    
C113  C121  1.390721 A    
O8    Cu8   1.975004 S    
O96   Cu18  1.972221 S    
O96   C192  1.283838 A    
C195  H31   1.107402 S    
C125  C133  1.422801 A    
O91   Cu20  1.972871 S    
C146  C154  1.394015 A    
O9    Cu9   1.969898 S    
