data_mof_unit_30309.cif
_audit_creation_date              2012-10-26T20:20:36-0400
_audit_creation_method            fapswitch 2.2
_symmetry_space_group_name_H-M    P1
_symmetry_Int_Tables_number       1
_space_group_crystal_system       triclinic
_cell_length_a                    8.887126
_cell_length_b                    10.752082
_cell_length_c                    9.658705
_cell_angle_alpha                 93.379769
_cell_angle_beta                  98.514699
_cell_angle_gamma                 89.489746
_cell_volume                      911.178300911

loop_
_atom_site_label
_atom_site_type_symbol
_atom_type_description
_atom_site_fract_x
_atom_site_fract_y
_atom_site_fract_z
_atom_type_partial_charge
C1    C     C_R   0.502738 0.262653 0.497054 0.541739
C2    C     C_R   0.374095 0.070646 0.527909 -0.131852
C3    C     C_R   0.498387 0.871715 0.508505 0.023252
C4    C     C_R   0.501610 0.128286 0.491495 0.023252
C5    C     C_R   0.464953 0.393854 0.058382 0.095360
C6    C     C_R   0.535048 0.606147 0.941618 0.095362
C7    C     C_R   0.462984 0.396236 0.911668 0.021513
C8    C     C_R   0.537019 0.603763 0.088333 0.021512
C9    C     C_3   0.963584 0.399543 0.317311 -0.269227
C10   C     C_3   0.065338 0.314822 0.239324 -0.443691
C11   C     C_3   0.036415 0.600456 0.682687 -0.269225
C12   C     C_R   0.497259 0.737348 0.502945 0.541744
C13   C     C_3   0.934660 0.685177 0.760675 -0.443687
C14   C     C_3   0.770098 0.118106 0.429427 -0.401250
C15   C     C_3   0.229906 0.881897 0.570589 -0.401267
C16   C     C_3   0.435157 0.267895 0.107855 -0.352296
C17   C     C_3   0.564836 0.732110 0.892145 -0.352283
C18   C     C_R   0.204652 0.495956 0.463871 0.559155
C19   C     C_R   0.795347 0.504043 0.536129 0.559152
C20   C     C_2   0.039847 0.477805 0.447153 -0.028219
C21   C     C_2   0.960152 0.522193 0.552847 -0.028219
C22   C     C_R   0.629487 0.058038 0.464113 -0.017572
C23   C     C_R   0.370513 0.941964 0.535892 -0.017573
C24   C     C_R   0.625903 0.929355 0.472093 -0.131855
Cu1   Cu    Cu3+1 0.500000 0.500020 0.640660 0.904934
Cu2   Cu    Cu3+1 0.500000 0.499980 0.359340 0.904935
H1    H     H_    0.722512 0.873278 0.449741 0.103618
H2    H     H_    0.850910 0.734196 0.685720 0.152563
H3    H     H_    0.878365 0.629732 0.831564 0.174291
H4    H     H_    0.005349 0.756583 0.827901 0.121393
H5    H     H_    0.098908 0.537902 0.759111 0.174148
H6    H     H_    0.117652 0.664867 0.648636 0.158735
H7    H     H_    0.811574 0.191081 0.512093 0.131796
H8    H     H_    0.863496 0.049719 0.422273 0.116083
H9    H     H_    0.742743 0.159431 0.326421 0.127844
H10   H     H_    0.188386 0.808958 0.487900 0.131791
H11   H     H_    0.257284 0.840528 0.673562 0.127850
H12   H     H_    0.277487 0.126724 0.550262 0.103617
H13   H     H_    0.136539 0.950292 0.577814 0.116084
H14   H     H_    0.396011 0.198799 0.020086 0.065150
H15   H     H_    0.542336 0.229645 0.162500 0.150537
H16   H     H_    0.343282 0.272277 0.172295 0.161914
H17   H     H_    0.457648 0.770349 0.837488 0.150542
H18   H     H_    0.603963 0.801221 0.979919 0.065154
H19   H     H_    0.656727 0.727733 0.827714 0.161901
H20   H     H_    0.432213 0.313329 0.845443 0.131429
H21   H     H_    0.567790 0.686668 0.154558 0.131430
H22   H     H_    0.121636 0.370267 0.168438 0.174293
H23   H     H_    0.149084 0.265800 0.314279 0.152562
H24   H     H_    0.994648 0.243418 0.172096 0.121395
H25   H     H_    0.882343 0.335133 0.351358 0.158740
H26   H     H_    0.901094 0.462100 0.240888 0.174148
N1    N     N_R   0.500040 0.500030 0.852080 -0.229023
N2    N     N_R   0.499960 0.499970 0.147920 -0.229022
O1    O     O_R   0.499990 0.319660 0.618740 -0.511627
O2    O     O_R   0.500010 0.680340 0.381260 -0.511625
O3    O     O_R   0.499990 0.319630 0.381170 -0.520938
O4    O     O_R   0.500010 0.680370 0.618830 -0.520939
O5    O     O_R   0.274840 0.500010 0.591370 -0.519733
O6    O     O_R   0.725160 0.499990 0.408630 -0.519732
O7    O     O_R   0.274830 0.499980 0.353800 -0.490031
O8    O     O_R   0.725170 0.500020 0.646200 -0.490030

loop_
_geom_bond_atom_site_label_1
_geom_bond_atom_site_label_2
_ccdc_geom_bond_type
C14   H8    S    
C2    C4    A    
C17   H17   S    
C13   H2    S    
Cu1   O5    S    
C1    O3    A    
C19   O6    A    
C4    C22   A    
C9    C10   S    
C2    H12   S    
C9    C20   S    
C3    C23   A    
C9    H25   S    
C24   H1    S    
C1    C4    S    
C12   O4    A    
C14   C22   S    
C14   H7    S    
C15   C23   S    
C1    O1    A    
C8    H21   S    
C11   H5    S    
C18   O7    A    
C11   C13   S    
C15   H13   S    
C3    C24   A    
C12   O2    A    
C9    H26   S    
C18   O5    A    
C16   H14   S    
Cu2   N2    S    
C13   H3    S    
C19   C21   S    
Cu2   O7    S    
C17   H19   S    
C11   H6    S    
C18   C20   S    
Cu1   O8    S    
C10   H22   S    
Cu2   O3    S    
C22   C24   A    
C17   H18   S    
Cu1   O4    S    
C7    N1    A    
C6    N1    A    
C10   H24   S    
C7    H20   S    
C16   H16   S    
C5    N2    A    
C14   H9    S    
C20   C21   D    
C8    N2    A    
C2    C23   A    
C5    C7    A    
C6    C17   S    
C15   H11   S    
C5    C16   S    
C6    C8    A    
C3    C12   S    
C19   O8    A    
Cu1   Cu2   S    
C13   H4    S    
C10   H23   S    
Cu2   O6    S    
C15   H10   S    
C11   C21   S    
Cu1   O1    S    
Cu1   N1    S    
C16   H15   S    
Cu2   O2    S    
