data_mof_unit_11322.cif
_audit_creation_date              2012-12-10T16:52:05-0500
_audit_creation_method            fapswitch 2.2
_symmetry_space_group_name_H-M    P1
_symmetry_Int_Tables_number       1
_space_group_crystal_system       triclinic
_cell_length_a                    7.754885
_cell_length_b                    8.573659
_cell_length_c                    14.973393
_cell_angle_alpha                 91.161001
_cell_angle_beta                  85.786631
_cell_angle_gamma                 93.783024
_cell_volume                      990.574216384

loop_
_atom_site_label
_atom_site_type_symbol
_atom_type_description
_atom_site_fract_x
_atom_site_fract_y
_atom_site_fract_z
_atom_type_partial_charge
C1    C     C_R   0.545916 0.794813 0.497653 0.960552
C2    C     C_R   0.454084 0.205187 0.502347 0.960551
C3    C     C_R   0.800211 0.610386 0.945070 -0.148138
C4    C     C_R   0.199788 0.389615 0.054930 -0.148132
C5    C     C_2   0.570081 0.958330 0.496293 -0.349021
C6    C     C_2   0.429919 0.041669 0.503707 -0.349021
C7    C     C_R   0.502178 0.500070 0.673143 0.935338
C8    C     C_R   0.497822 0.499930 0.326857 0.935336
C9    C     C_R   0.345419 0.447591 0.190251 0.624286
C10   C     C_R   0.654578 0.552412 0.809749 0.624286
C11   C     C_R   0.494564 0.502305 0.231291 -0.224585
C12   C     C_R   0.505436 0.497695 0.768709 -0.224582
C13   C     C_R   0.644230 0.557450 0.181137 -0.248778
C14   C     C_R   0.355772 0.442548 0.818863 -0.248783
C15   C     C_R   0.647807 0.557517 0.088710 0.003605
C16   C     C_R   0.352194 0.442483 0.911289 0.003607
C17   C     C_R   0.498606 0.500987 0.046561 -0.058567
C18   C     C_R   0.501392 0.499015 0.953438 -0.058568
C19   C     C_R   0.346735 0.446143 0.097521 -0.057313
C20   C     C_R   0.653263 0.553859 0.902478 -0.057311
C21   C     C_R   0.797731 0.612436 0.037836 0.611703
C22   C     C_R   0.202270 0.387563 0.962163 0.611707
H1    H     H_    0.757799 0.600773 0.214477 0.240899
H2    H     H_    0.242206 0.399222 0.785522 0.240898
H3    H     H_    0.917326 0.652938 0.906825 0.223786
H4    H     H_    0.082673 0.347063 0.093174 0.223786
H5    H     H_    0.702376 0.009592 0.489211 0.186923
H6    H     H_    0.297624 0.990408 0.510789 0.186923
H7    H     H_    0.014092 0.382913 0.432208 0.229564
H8    H     H_    0.985908 0.617087 0.567792 0.229563
N1    N     N_2   0.950330 0.457950 0.475660 -0.162906
N2    N     N_2   0.049670 0.542050 0.524340 -0.162907
O1    O     O_R   0.389250 0.738570 0.505970 -0.618982
O2    O     O_R   0.610750 0.261430 0.494030 -0.618982
O3    O     O_R   0.678390 0.711620 0.490370 -0.627788
O4    O     O_R   0.321610 0.288380 0.509630 -0.627789
O5    O     O_R   0.355420 0.513510 0.639950 -0.621809
O6    O     O_R   0.644580 0.486490 0.360050 -0.621808
O7    O     O_R   0.644560 0.486560 0.624350 -0.571433
O8    O     O_R   0.355440 0.513440 0.375650 -0.571433
Zn1   Zn    Zn3+2 0.306940 0.517990 0.510420 1.006054
Zn2   Zn    Zn3+2 0.693060 0.482010 0.489580 1.006054
F1    F     F_    0.201829 0.391382 0.240178 -0.667809
F2    F     F_    0.798167 0.608623 0.759822 -0.667810
F3    F     F_    0.941564 0.668222 0.077712 -0.665583
F4    F     F_    0.058441 0.331773 0.922288 -0.665584

loop_
_geom_bond_atom_site_label_1
_geom_bond_atom_site_label_2
_ccdc_geom_bond_type
C4    H4    S    
N2    Zn1   S    
N1    Zn2   S    
C11   C13   A    
C21   F3    S    
N1    N2    D    
O2    Zn2   S    
C3    H3    S    
O1    Zn1   S    
C2    O2    A    
C17   C18   A    
C7    O5    A    
C1    O1    A    
C3    C20   A    
H7    N1    S    
H8    N2    S    
C9    C11   A    
C1    O3    A    
O4    Zn1   S    
C2    C6    S    
C10   C12   A    
C8    O6    A    
C8    C11   S    
C1    C5    S    
O8    Zn1   S    
C22   F4    S    
C12   C14   A    
O6    Zn2   S    
O7    Zn2   S    
C18   C20   A    
C2    O4    A    
C13   C15   A    
O5    Zn1   S    
C5    C6    D    
C14   C16   A    
C7    C12   S    
C9    F1    S    
C3    C21   A    
C10   F2    S    
C15   C21   A    
C4    C22   A    
C13   H1    S    
C16   C18   A    
C14   H2    S    
C15   C17   A    
O3    Zn2   S    
C7    O7    A    
C16   C22   A    
C8    O8    A    
C17   C19   A    
C5    H5    S    
C4    C19   A    
C9    C19   A    
C6    H6    S    
C10   C20   A    
