data_mof_unit_39684.cif
_audit_creation_date              2012-12-10T20:46:34-0500
_audit_creation_method            fapswitch 2.2
_symmetry_space_group_name_H-M    P1
_symmetry_Int_Tables_number       1
_space_group_crystal_system       triclinic
_cell_length_a                    11.13705
_cell_length_b                    8.912161
_cell_length_c                    8.229157
_cell_angle_alpha                 89.986602
_cell_angle_beta                  101.26767
_cell_angle_gamma                 90.085369
_cell_volume                      801.042086777

loop_
_atom_site_label
_atom_site_type_symbol
_atom_type_description
_atom_site_fract_x
_atom_site_fract_y
_atom_site_fract_z
_atom_type_partial_charge
C1    C     C_R   0.500080 0.218537 0.500033 0.923098
C2    C     C_1   0.499962 0.934648 0.499973 -0.203241
C3    C     C_R   0.880423 0.419545 0.318505 0.211693
C4    C     C_R   0.858823 0.521224 0.187477 -0.157906
C5    C     C_R   0.820026 0.469997 0.027749 -0.137563
C6    C     C_R   0.798303 0.316724 0.996460 -0.083506
C7    C     C_R   0.816001 0.214801 0.128288 -0.166202
C8    C     C_R   0.857876 0.265993 0.290057 -0.154732
C9    C     C_R   0.119578 0.580456 0.681497 0.211691
C10   C     C_R   0.142133 0.734007 0.709946 -0.154727
C11   C     C_R   0.184010 0.785197 0.871716 -0.166201
C12   C     C_R   0.499920 0.781462 0.499967 0.923095
C13   C     C_R   0.201702 0.683275 0.003544 -0.083505
C14   C     C_R   0.179973 0.530003 0.972254 -0.137561
C15   C     C_R   0.141174 0.478778 0.812525 -0.157910
C16   C     C_R   0.261777 0.504414 0.434011 0.919081
C17   C     C_R   0.738223 0.495588 0.565989 0.919082
C18   C     C_2   0.131068 0.499083 0.399010 -0.440499
C19   C     C_2   0.868932 0.500925 0.600990 -0.440499
C20   C     C_2   0.064532 0.522577 0.515812 -0.015558
C21   C     C_2   0.935468 0.477428 0.484189 -0.015560
C22   C     C_1   0.500038 0.065352 0.500027 -0.203241
H1    H     H_    0.909741 0.539639 0.723574 0.151196
H2    H     H_    0.231366 0.723611 0.128904 0.148257
H3    H     H_    0.190277 0.447215 0.068125 0.164316
H4    H     H_    0.123282 0.360114 0.790916 0.127094
H5    H     H_    0.090257 0.460373 0.276424 0.151196
H6    H     H_    0.876709 0.639888 0.209085 0.127093
H7    H     H_    0.809719 0.552784 0.931877 0.164317
H8    H     H_    0.768640 0.276386 0.871101 0.148255
H9    H     H_    0.799314 0.096362 0.104842 0.135878
H10   H     H_    0.874799 0.186851 0.391821 0.116749
H11   H     H_    0.125215 0.813149 0.608182 0.116748
H12   H     H_    0.200703 0.903634 0.895163 0.135879
N1    N     N_1   0.500020 0.500000 0.073650 -0.031271
N2    N     N_1   0.499980 0.500000 0.926350 -0.031271
O1    O     O_R   0.499990 0.285340 0.636850 -0.622540
O2    O     O_R   0.500010 0.714660 0.363150 -0.622541
O3    O     O_R   0.500010 0.285340 0.363150 -0.612881
O4    O     O_R   0.499990 0.714660 0.636850 -0.612882
O5    O     O_R   0.317810 0.500000 0.585760 -0.595774
O6    O     O_R   0.682190 0.500000 0.414240 -0.595775
O7    O     O_R   0.317820 0.500000 0.312020 -0.654003
O8    O     O_R   0.682180 0.500000 0.687980 -0.654003
Zn1   Zn    Zn3+2 0.499990 0.500000 0.682780 0.978317
Zn2   Zn    Zn3+2 0.500010 0.500000 0.317220 0.978317

loop_
_geom_bond_atom_site_label_1
_geom_bond_atom_site_label_2
_ccdc_geom_bond_type
C12   O4    A    
C19   H1    S    
C2    C22   T    
C6    C7    A    
C9    C10   A    
C9    C20   S    
C5    H7    S    
N1    N2    T    
C1    O1    A    
C2    C12   S    
C9    C15   A    
C17   O8    A    
C1    C22   S    
C13   C14   A    
C20   C21   S    
C11   C13   A    
C16   O7    A    
C5    C6    A    
O3    Zn2   S    
C4    H6    S    
C10   H11   S    
C18   C20   D    
C14   H3    S    
C12   O2    A    
O4    Zn1   S    
O7    Zn2   S    
C3    C21   S    
O2    Zn2   S    
C10   C11   A    
C1    O3    A    
O1    Zn1   S    
C3    C4    A    
C8    H10   S    
N2    Zn1   S    
C7    H9    S    
O8    Zn1   S    
C16   C18   S    
C3    C8    A    
O6    Zn2   S    
C7    C8    A    
O5    Zn1   S    
C14   C15   A    
C15   H4    S    
C17   C19   S    
C17   O6    A    
N1    Zn2   S    
C16   O5    A    
C6    H8    S    
C11   H12   S    
C18   H5    S    
C13   H2    S    
C4    C5    A    
C19   C21   D    
