data_mof_unit_55264.cif
_audit_creation_date              2012-12-11T15:41:30-0500
_audit_creation_method            fapswitch 2.2
_symmetry_space_group_name_H-M    P1
_symmetry_Int_Tables_number       1
_space_group_crystal_system       triclinic
_cell_length_a                    14.815672
_cell_length_b                    14.754179
_cell_length_c                    14.887918
_cell_angle_alpha                 108.734926
_cell_angle_beta                  109.363958
_cell_angle_gamma                 109.097956
_cell_volume                      2542.10244917

loop_
_atom_site_label
_atom_site_type_symbol
_atom_type_description
_atom_site_fract_x
_atom_site_fract_y
_atom_site_fract_z
_atom_type_partial_charge
C1    C     C_R   0.194954 0.995074 0.903515 -0.122110
C2    C     C_R   0.796244 0.910422 0.414197 -0.075433
C3    C     C_R   0.190668 0.316912 0.974474 -0.169600
C4    C     C_R   0.699346 0.813001 0.335222 -0.169387
C5    C     C_R   0.293633 0.347330 0.056484 0.108705
C6    C     C_R   0.701538 0.726764 0.261378 0.110885
C7    C     C_R   0.298071 0.299812 0.125075 -0.141819
C8    C     C_R   0.802647 0.739114 0.269473 -0.185347
C9    C     C_R   0.201873 0.224969 0.112870 -0.103580
C10   C     C_R   0.899395 0.836498 0.349058 -0.095159
C11   C     C_R   0.100310 0.197415 0.032913 -0.083686
C12   C     C_R   0.748332 0.932528 0.025825 -0.106854
C13   C     C_R   0.896178 0.922136 0.421151 -0.072522
C14   C     C_R   0.400826 0.528707 0.074564 -0.232623
C15   C     C_R   0.594161 0.524817 0.170469 -0.234947
C16   C     C_R   0.800442 0.208523 0.301085 0.661988
C17   C     C_R   0.205597 0.785909 0.693949 0.678771
C18   C     C_R   0.501544 0.619387 0.112930 0.054961
C19   C     C_R   0.494280 0.426893 0.106013 0.054253
C20   C     C_R   0.598418 0.623201 0.178854 0.037532
C21   C     C_R   0.396539 0.433179 0.076066 0.032599
C22   C     C_R   0.899001 0.472349 0.432429 -0.258328
C23   C     C_R   0.863316 0.300840 0.303151 -0.176855
C24   C     C_R   0.111118 0.519799 0.560891 -0.232176
C25   C     C_R   0.965388 0.570920 0.527849 0.166731
C26   C     C_R   0.045692 0.422805 0.463454 0.170071
C27   C     C_R   0.070934 0.591442 0.591768 0.102393
C28   C     C_R   0.938968 0.400387 0.401514 0.080722
C29   C     C_R   0.595653 0.158301 0.618118 -0.160873
C30   C     C_R   0.396908 0.054936 0.427451 -0.162445
C31   C     C_R   0.594813 0.157450 0.524596 -0.179954
C32   C     C_R   0.397597 0.056168 0.520954 -0.170863
C33   C     C_R   0.495919 0.094376 0.426091 0.143374
C34   C     C_R   0.145821 0.690568 0.690141 -0.188116
C35   C     C_R   0.497394 0.097748 0.613391 0.142353
C36   C     C_R   0.962583 0.836074 0.938597 -0.184692
C37   C     C_R   0.866743 0.934468 0.836493 -0.194962
C38   C     C_R   0.870539 0.837977 0.940739 -0.163286
C39   C     C_R   0.958992 0.932614 0.834320 -0.170902
C40   C     C_R   0.406498 0.973873 0.221688 -0.119582
C41   C     C_R   0.590398 0.093516 0.788736 -0.151926
C42   C     C_R   0.830877 0.899196 0.901371 0.142100
C43   C     C_R   0.014214 0.894546 0.896174 0.129452
C44   C     C_R   0.587566 0.312225 0.069594 -0.131024
C45   C     C_R   0.496989 0.050432 0.323611 0.015449
C46   C     C_R   0.411462 0.700727 0.007873 -0.125820
C47   C     C_R   0.589587 0.064866 0.313110 -0.137016
C48   C     C_R   0.408582 0.003011 0.699501 -0.074301
C49   C     C_R   0.405623 0.221688 0.973908 -0.124335
C50   C     C_R   0.592172 0.790695 0.095999 -0.138307
C51   C     C_R   0.805113 0.299244 0.208922 0.036735
C52   C     C_R   0.200597 0.696194 0.788442 0.056351
C53   C     C_R   0.195653 0.903658 0.995799 -0.154985
C54   C     C_R   0.747317 0.024236 0.932444 -0.162852
C55   C     C_R   0.130533 0.931454 0.931998 0.041427
C56   C     C_R   0.499066 0.064208 0.695986 0.016435
C57   C     C_R   0.773057 0.945861 0.947156 0.037972
C58   C     C_3   0.926735 0.653280 0.564457 -0.411879
C59   C     C_3   0.810133 0.622570 0.486126 -0.281487
C60   C     C_3   0.781771 0.711697 0.530573 -0.870885
C61   C     C_3   0.086090 0.343892 0.422340 -0.400660
C62   C     C_3   0.207756 0.382072 0.491971 -0.286398
C63   C     C_3   0.239671 0.299019 0.440279 -0.900985
C64   C     C_3   0.858916 0.373736 0.170320 -0.371796
C65   C     C_3   0.829986 0.314289 0.051638 -0.254279
C66   C     C_3   0.890336 0.392389 0.019178 -0.956621
C67   C     C_R   0.494779 0.323148 0.055094 0.048844
C68   C     C_3   0.152012 0.629241 0.834863 -0.383526
C69   C     C_3   0.030679 0.594737 0.797706 -0.251876
C70   C     C_3   0.990782 0.542018 0.859773 -0.944769
C71   C     C_R   0.502676 0.699421 0.072579 0.054969
C72   C     C_R   0.094641 0.242409 0.963067 -0.119502
F1    F     F_    0.836634 0.168244 0.366990 -0.748465
F2    F     F_    0.178371 0.815595 0.615994 -0.750709
H1    H     H_    0.167429 0.018846 0.842514 0.097969
H2    H     H_    0.976915 0.845659 0.354706 0.122241
H3    H     H_    0.325417 0.531356 0.042796 0.120022
H4    H     H_    0.669363 0.524798 0.211860 0.108949
H5    H     H_    0.815315 0.449485 0.380622 0.124319
H6    H     H_    0.194474 0.542298 0.613389 0.125819
H7    H     H_    0.673965 0.197670 0.690187 0.109587
H8    H     H_    0.318759 0.012485 0.354433 0.108938
H9    H     H_    0.672628 0.196476 0.528256 0.119652
H10   H     H_    0.319654 0.014805 0.516085 0.118404
H11   H     H_    0.998561 0.798771 0.980434 0.116137
H12   H     H_    0.758840 0.879186 0.058687 0.093414
H13   H     H_    0.832701 0.975155 0.798132 0.114729
H14   H     H_    0.839362 0.802185 0.984158 0.109592
H15   H     H_    0.992590 0.971830 0.794274 0.118336
H16   H     H_    0.321246 0.942188 0.199700 0.094539
H17   H     H_    0.673867 0.151824 0.818209 0.092581
H18   H     H_    0.669925 0.374133 0.127536 0.104636
H19   H     H_    0.329082 0.649057 0.986007 0.084501
H20   H     H_    0.673389 0.116662 0.376210 0.164766
H21   H     H_    0.324952 0.980757 0.649672 0.160043
H22   H     H_    0.320268 0.199242 0.938719 0.116153
H23   H     H_    0.015725 0.220097 0.900510 0.108686
H24   H     H_    0.676790 0.822900 0.151975 0.126061
H25   H     H_    0.169126 0.842635 0.020008 0.093495
H26   H     H_    0.756897 0.056158 0.878511 0.099404
H27   H     H_    0.026037 0.141230 0.025224 0.120269
H28   H     H_    0.971160 0.997503 0.482543 0.112855
H29   H     H_    0.698028 0.688335 0.471529 0.250761
H30   H     H_    0.784363 0.722005 0.608811 0.264267
H31   H     H_    0.840357 0.790786 0.543553 0.265688
H32   H     H_    0.803550 0.612055 0.406485 0.206337
H33   H     H_    0.750050 0.544928 0.474353 0.198500
H34   H     H_    0.793873 0.976682 0.470277 0.126052
H35   H     H_    0.932117 0.665689 0.644028 0.175703
H36   H     H_    0.983360 0.732847 0.576768 0.241661
H37   H     H_    0.226281 0.288967 0.358942 0.257186
H38   H     H_    0.327608 0.328217 0.492463 0.253356
H39   H     H_    0.190497 0.218488 0.431775 0.261897
H40   H     H_    0.259108 0.461750 0.500205 0.206994
H41   H     H_    0.224431 0.391891 0.573991 0.203107
H42   H     H_    0.036864 0.264618 0.415906 0.242546
H43   H     H_    0.070812 0.329217 0.339270 0.187036
H44   H     H_    0.868283 0.458740 0.029808 0.268061
H45   H     H_    0.184401 0.350784 0.919464 0.109272
H46   H     H_    0.980242 0.428959 0.069328 0.271594
H47   H     H_    0.867031 0.346743 0.932448 0.248128
H48   H     H_    0.853408 0.249025 0.039445 0.202769
H49   H     H_    0.741172 0.278124 0.998776 0.210468
H50   H     H_    0.841046 0.442769 0.186079 0.170726
H51   H     H_    0.949256 0.412461 0.220592 0.195086
H52   H     H_    0.001695 0.468733 0.847096 0.265661
H53   H     H_    0.036776 0.601342 0.948040 0.258027
H54   H     H_    0.902529 0.516308 0.830014 0.257526
H55   H     H_    0.018821 0.667637 0.812133 0.196775
H56   H     H_    0.622593 0.804815 0.331357 0.123123
H57   H     H_    0.980137 0.534450 0.709803 0.209822
H58   H     H_    0.162760 0.555543 0.812704 0.180019
H59   H     H_    0.196611 0.680870 0.924426 0.184205
H60   H     H_    0.376003 0.322162 0.189344 0.114432
H61   H     H_    0.806545 0.673932 0.213702 0.112078
H62   H     H_    0.206061 0.189261 0.166276 0.111486
N1    N     N_R   0.293810 0.002730 0.945950 -0.044680
N2    N     N_R   0.443210 0.997250 0.791090 -0.042116
N3    N     N_R   0.443180 0.152110 0.945950 -0.043624
N4    N     N_R   0.556820 0.847890 0.054050 -0.040750
N5    N     N_R   0.706170 0.208950 0.152090 -0.089626
N6    N     N_R   0.293830 0.791050 0.847910 -0.093687
N7    N     N_R   0.293800 0.945910 0.002760 -0.039966
N8    N     N_R   0.706200 0.054090 0.997240 -0.046980
N9    N     N_R   0.706190 0.997270 0.054050 -0.039468
N10   N     N_R   0.706160 0.152130 0.208910 -0.114170
N11   N     N_R   0.293840 0.847870 0.791090 -0.113675
N12   N     N_R   0.443140 0.945920 0.152090 -0.042515
N13   N     N_R   0.556860 0.054080 0.847910 -0.042898
N14   N     N_R   0.556830 0.208940 0.002760 -0.045949
N15   N     N_R   0.443170 0.791060 0.997240 -0.042909
N16   N     N_R   0.556790 0.002750 0.208910 -0.033740
Ni1   Ni    Ni4+2 0.369690 0.999990 0.869700 0.228996
Ni2   Ni    Ni4+2 0.630310 0.000010 0.130300 0.254233
Ni3   Ni    Ni4+2 0.369670 0.869670 0.000000 0.190344
Ni4   Ni    Ni4+2 0.630330 0.130330 0.000000 0.192162

loop_
_geom_bond_atom_site_label_1
_geom_bond_atom_site_label_2
_ccdc_geom_bond_type
C70   H53   S    
C54   N8    A    
N8    Ni4   S    
C48   H21   S    
C58   H35   S    
C33   C45   S    
C14   C18   A    
C24   C27   A    
C53   H25   S    
C15   C19   A    
C52   N6    A    
C14   C21   A    
N13   Ni4   S    
C68   H59   S    
C17   N11   A    
C26   C61   S    
C24   C26   A    
C22   H5    S    
C38   C42   A    
C69   C70   S    
C50   N4    A    
C14   H3    S    
C15   H4    S    
C41   N13   A    
N3    Ni1   S    
C63   H38   S    
C31   H9    S    
C16   N10   A    
C45   C47   A    
C37   C42   A    
C68   H58   S    
C2    C13   A    
C10   H2    S    
C24   H6    S    
C68   C69   S    
C22   C25   A    
C31   C33   A    
C19   C67   S    
N12   Ni3   S    
N15   Ni3   S    
N6    Ni3   S    
C60   H29   S    
C44   H18   S    
C4    H56   S    
C70   H52   S    
C51   N5    A    
C46   N15   A    
N1    N7    A    
C59   C60   S    
N2    N13   A    
C66   H46   S    
C8    H61   S    
C54   H26   S    
C40   C45   A    
C42   C57   S    
C22   C28   A    
C72   H23   S    
C53   C55   A    
C27   C34   S    
C15   C20   A    
C32   H10   S    
C50   H24   S    
C59   H32   S    
C40   N12   A    
C61   H43   S    
C16   F1    S    
C1    H1    S    
C32   C35   A    
C7    H60   S    
C4    C6    A    
C5    C7    A    
C11   C72   A    
C39   C43   A    
C58   C59   S    
C64   H50   S    
C44   N14   A    
C38   H14   S    
C53   N7    A    
C12   N9    A    
C30   H8    S    
C2    C4    A    
C50   C71   A    
C41   C56   A    
C29   H7    S    
C62   C63   S    
C23   C51   A    
N10   Ni2   S    
C69   H57   S    
C61   H42   S    
C36   C43   A    
C66   H47   S    
N1    Ni1   S    
C11   H27   S    
C65   H48   S    
C9    C11   A    
N4    N15   A    
C46   C71   A    
C3    H45   S    
N5    N10   A    
C12   C57   A    
N2    Ni1   S    
C43   C55   S    
C41   H17   S    
N16   Ni2   S    
C64   H51   S    
C16   C23   A    
C49   N3    A    
C17   F2    S    
C23   C28   S    
C25   C58   S    
N9    Ni2   S    
C1    N1    A    
C70   H54   S    
C18   C71   S    
C48   C56   A    
C49   C67   A    
C30   C33   A    
C19   C21   A    
C35   C56   S    
C58   H36   S    
C34   C52   A    
N6    N11   A    
C37   H13   S    
C8    C10   A    
C51   C64   S    
N12   N16   A    
N8    N9    A    
C3    C5    A    
C10   C13   A    
C52   C68   S    
C6    C8    A    
N5    Ni4   S    
C62   H40   S    
C12   H12   S    
C36   H11   S    
C25   C27   A    
C6    C20   S    
C29   C35   A    
N3    N14   A    
C26   C28   A    
C48   N2    A    
N7    Ni3   S    
C64   C65   S    
C36   C38   A    
C3    C72   A    
C1    C55   A    
C62   H41   S    
C29   C31   A    
C30   C32   A    
C17   C34   A    
C46   H19   S    
C69   H55   S    
C2    H34   S    
C47   H20   S    
C18   C20   A    
C65   H49   S    
C49   H22   S    
C63   H37   S    
C61   C62   S    
N11   Ni1   S    
C59   H33   S    
C63   H39   S    
C9    H62   S    
C7    C9    A    
C5    C21   S    
C47   N16   A    
C37   C39   A    
C65   C66   S    
C66   H44   S    
C44   C67   A    
N14   Ni4   S    
C40   H16   S    
C13   H28   S    
C60   H30   S    
C39   H15   S    
C60   H31   S    
N4    Ni2   S    
C54   C57   A    
