data_mof_unit_53548.cif
_audit_creation_date              2012-12-11T15:45:14-0500
_audit_creation_method            fapswitch 2.2
_symmetry_space_group_name_H-M    P1
_symmetry_Int_Tables_number       1
_space_group_crystal_system       triclinic
_cell_length_a                    8.274848
_cell_length_b                    19.078001
_cell_length_c                    22.855123
_cell_angle_alpha                 95.79994
_cell_angle_beta                  89.704495
_cell_angle_gamma                 94.668237
_cell_volume                      3577.68693768

loop_
_atom_site_label
_atom_site_type_symbol
_atom_type_description
_atom_site_fract_x
_atom_site_fract_y
_atom_site_fract_z
_atom_type_partial_charge
Ba1   Ba    Ba6+2 0.850680 0.532880 0.472010 1.726997
Ba2   Ba    Ba6+2 0.339140 0.467180 0.527990 1.679189
C1    C     C_3   0.697339 0.795666 0.328114 -0.090886
C2    C     C_3   0.664795 0.720444 0.345669 0.342672
C3    C     C_3   0.497732 0.366687 0.350696 0.282461
C4    C     C_3   0.481252 0.347450 0.284664 -0.311381
C5    C     C_3   0.083547 0.312592 0.691933 0.404596
C6    C     C_3   0.154004 0.298172 0.750824 -0.279781
C7    C     C_3   0.532954 0.284689 0.655971 0.345294
C8    C     C_3   0.539157 0.210776 0.674943 -0.362341
C9    C     C_R   0.337865 0.521155 0.331976 -0.345216
C10   C     C_R   0.091254 0.560453 0.939803 -0.007852
C11   C     C_R   0.046566 0.557828 0.879729 0.590735
C12   C     C_3   0.151321 0.705871 0.312329 1.006365
C13   C     C_R   0.959973 0.434499 0.878264 0.604298
C14   C     C_R   0.007894 0.435002 0.937829 -0.107871
C15   C     C_R   0.072459 0.498502 0.968885 -0.052033
C16   C     C_R   0.153306 0.623828 0.971656 -0.071269
C17   C     C_R   0.194801 0.625810 0.031082 -0.062272
C18   C     C_R   0.177760 0.564296 0.060639 -0.003853
C19   C     C_R   0.117636 0.500195 0.029317 -0.127103
C20   C     C_R   0.992286 0.373363 0.967128 -0.104512
C21   C     C_R   0.039877 0.374386 0.025979 0.639118
C22   C     C_R   0.102808 0.437904 0.058132 -0.137675
C23   C     C_3   0.152960 0.744440 0.257238 -0.262561
C24   C     C_R   0.151894 0.440833 0.118037 0.702987
C25   C     C_R   0.218878 0.565870 0.120851 0.610661
C26   C     C_2   0.774457 0.476832 0.771605 -0.092592
C27   C     C_3   0.721955 0.483162 0.708835 -0.061110
C28   C     C_1   0.004063 0.513007 0.685214 0.029156
C29   C     C_2   0.051130 0.514604 0.741191 -0.099607
C30   C     C_2   0.931440 0.494288 0.787949 0.201538
C31   C     C_R   0.405037 0.539900 0.231110 -0.156116
C32   C     C_R   0.447260 0.546355 0.290986 -0.032269
C33   C     C_R   0.189359 0.486173 0.314281 0.034365
C34   C     C_3   0.174110 0.688486 0.599591 0.916081
C35   C     C_R   0.144984 0.479824 0.254070 0.625559
C36   C     C_R   0.251754 0.507850 0.211627 0.165425
C37   C     C_2   0.864073 0.480377 0.667249 -0.291240
C38   C     C_R   0.398490 0.700019 0.472750 -0.217994
C39   C     C_R   0.542301 0.722608 0.502620 0.152138
C40   C     C_R   0.596512 0.794498 0.508728 -0.120622
C41   C     C_R   0.506290 0.844168 0.484766 -0.017945
C42   C     C_R   0.357806 0.820806 0.456333 -0.152373
C43   C     C_R   0.303031 0.748894 0.451702 -0.021015
C44   C     C_R   0.569354 0.959583 0.442750 -0.093860
C45   C     C_3   0.097023 0.759057 0.607401 -0.071033
C46   C     C_R   0.623022 0.031388 0.448943 -0.021795
C47   C     C_R   0.667124 0.066385 0.504466 0.060797
C48   C     C_R   0.665258 0.026772 0.553100 -0.098803
C49   C     C_R   0.615055 0.954382 0.546635 -0.067269
C50   C     C_R   0.564048 0.920371 0.491534 0.057388
C51   C     C_R   0.852215 0.172465 0.541928 -0.048055
C52   C     C_R   0.897487 0.245258 0.546175 0.099172
C53   C     C_R   0.657316 0.264304 0.491627 0.035021
C54   C     C_R   0.609437 0.190844 0.486704 0.074589
C55   C     C_R   0.709226 0.144422 0.511710 0.017895
C56   C     C_3   0.013841 0.313159 0.401456 0.256487
C57   C     C_R   0.798115 0.290431 0.522365 -0.282201
C58   C     C_3   0.049904 0.236576 0.385080 0.419954
C59   C     C_3   0.701084 0.632227 0.650120 0.412836
C60   C     C_3   0.700110 0.656892 0.716546 0.117553
H1    H     H_    0.747076 0.714785 0.382742 0.085919
H2    H     H_    0.124827 0.788591 0.568539 0.048009
H3    H     H_    0.963413 0.748997 0.610424 0.054695
H4    H     H_    0.883912 0.315303 0.411992 -0.022503
H5    H     H_    0.088675 0.334891 0.440171 0.067463
H6    H     H_    0.967822 0.212272 0.348998 0.055598
H7    H     H_    0.177388 0.234629 0.369917 0.038327
H8    H     H_    0.826337 0.623556 0.636050 -0.111695
H9    H     H_    0.623322 0.581997 0.641486 0.001202
H10   H     H_    0.814355 0.800686 0.304289 0.147986
H11   H     H_    0.754458 0.617334 0.741025 0.031877
H12   H     H_    0.537856 0.712742 0.360967 -0.068579
H13   H     H_    0.707761 0.833422 0.368505 0.066909
H14   H     H_    0.378371 0.380843 0.368327 -0.009574
H15   H     H_    0.588577 0.412811 0.358711 0.060727
H16   H     H_    0.388087 0.302447 0.275364 0.135715
H17   H     H_    0.444220 0.393143 0.263134 0.042266
H18   H     H_    0.599168 0.332394 0.265967 0.163712
H19   H     H_    0.244738 0.723858 0.226026 0.130467
H20   H     H_    0.136602 0.365425 0.682111 0.075211
H21   H     H_    0.285714 0.292943 0.746963 0.130336
H22   H     H_    0.136466 0.342826 0.784621 0.112055
H23   H     H_    0.094563 0.248620 0.765466 0.137809
H24   H     H_    0.628100 0.292145 0.622533 -0.022846
H25   H     H_    0.414040 0.288481 0.635461 0.102517
H26   H     H_    0.658620 0.205357 0.695144 0.148163
H27   H     H_    0.521591 0.171127 0.635972 0.067275
H28   H     H_    0.442025 0.199987 0.707228 0.131795
H29   H     H_    0.943529 0.323621 0.944390 0.156369
H30   H     H_    0.241029 0.675941 0.053835 0.122537
H31   H     H_    0.491368 0.559632 0.199732 0.127801
H32   H     H_    0.169065 0.672439 0.950799 0.127855
H33   H     H_    0.175825 0.531140 0.753598 0.115598
H34   H     H_    0.683642 0.464354 0.804237 0.104720
H35   H     H_    0.372199 0.525569 0.377896 0.082253
H36   H     H_    0.278559 0.705627 0.327336 -0.232768
H37   H     H_    0.849288 0.454985 0.622669 0.074441
H38   H     H_    0.628266 0.059906 0.410259 0.112315
H39   H     H_    0.533138 0.934474 0.399676 0.082204
H40   H     H_    0.707409 0.811735 0.532845 0.075803
H41   H     H_    0.698840 0.052206 0.596334 0.067159
H42   H     H_    0.612019 0.925299 0.584997 0.072269
H43   H     H_    0.931477 0.137529 0.559924 0.074814
H44   H     H_    0.282871 0.858454 0.439803 0.080680
H45   H     H_    0.835188 0.346415 0.525247 0.049594
H46   H     H_    0.031719 0.737026 0.235830 0.132595
H47   H     H_    0.354733 0.644763 0.469860 0.059902
H48   H     H_    0.184906 0.801838 0.268711 0.033856
H49   H     H_    0.132134 0.660072 0.556907 -0.064828
N1    N     N_R   0.981388 0.495308 0.849453 -0.425052
N2    N     N_R   0.205752 0.504674 0.149367 -0.427948
O1    O     O_2   0.896730 0.461690 0.361000 -0.415651
O2    O     O_3   0.641635 0.684500 0.619678 -0.568359
O3    O     O_3   0.054685 0.740781 0.354729 -0.642470
O4    O     O_2   0.292960 0.538340 0.639040 -0.452126
O5    O     O_3   0.052540 0.537650 0.567960 -0.505704
O6    O     O_3   0.532200 0.411510 0.604930 -0.485721
O7    O     O_3   0.135765 0.650994 0.648115 -0.632773
O8    O     O_3   0.629030 0.416090 0.471500 -0.481578
O9    O     O_3   0.120120 0.375640 0.576470 -0.502823
O10   O     O_2   0.231973 0.250807 0.541639 -0.461761
O11   O     O_3   0.124679 0.258976 0.648812 -0.613418
O12   O     O_3   0.137170 0.462400 0.432040 -0.511047
O13   O     O_3   0.560670 0.583970 0.528500 -0.475574
O14   O     O_2   0.373560 0.329680 0.473470 -0.466123
O15   O     O_3   0.547756 0.308331 0.376365 -0.636337
O16   O     O_2   0.385804 0.444709 0.705987 -0.515655
O17   O     O_3   0.557417 0.335518 0.704844 -0.599562
O18   O     O_2   0.063326 0.611589 0.854682 -0.584913
O19   O     O_2   0.899416 0.379751 0.852070 -0.601710
O20   O     O_2   0.149040 0.386340 0.141973 -0.466963
O21   O     O_2   0.265633 0.622190 0.148012 -0.601383
O22   O     O_3   0.657500 0.588540 0.395070 -0.514400
O23   O     O_2   0.783989 0.542291 0.292237 -0.361433
O24   O     O_3   0.047942 0.349393 0.352156 -0.658303
O25   O     O_3   0.695152 0.671083 0.297722 -0.578084
O26   O     O_2   0.816140 0.670340 0.526560 -0.509028
O27   O     O_3   0.069580 0.624410 0.423530 -0.441619
O28   O     O_2   0.971280 0.750254 0.464529 -0.517356
P1    P     P_3+3 0.067040 0.441110 0.370020 1.061565
P2    P     P_3+3 0.640420 0.660110 0.543790 1.064171
P3    P     P_3+3 0.100175 0.716555 0.424111 0.968590
P4    P     P_3+3 0.122660 0.558950 0.629980 1.019142
P5    P     P_3+3 0.093289 0.283240 0.577828 0.966476
P6    P     P_3+3 0.646451 0.585893 0.318315 1.044202
P7    P     P_3+3 0.554610 0.328170 0.452789 0.949175
P8    P     P_3+3 0.548684 0.420061 0.681549 0.938082
N3    N     N_3   0.157231 0.801575 0.660764 -0.456625
H50   H     H_    0.276389 0.821336 0.653273 0.223193
H51   H     H_    0.088879 0.845443 0.667285 0.167623
F1    F     F_    0.028625 0.197888 0.432676 -0.742758
N4    N     N_3   0.796737 0.724350 0.730073 -0.456225
H52   H     H_    0.916465 0.718022 0.717225 0.202935
H53   H     H_    0.752913 0.762921 0.706333 0.217772
N5    N     N_3   0.533620 0.663741 0.736815 -0.411262
H54   H     H_    0.537286 0.680252 0.781879 0.203230
H55   H     H_    0.471623 0.613457 0.732589 0.166712
N6    N     N_3   0.567928 0.814791 0.291033 -0.488878
H56   H     H_    0.548737 0.776029 0.255454 0.216298
H57   H     H_    0.461228 0.815751 0.315698 0.163293
N7    N     N_3   0.907727 0.312281 0.696649 -0.477834
H58   H     H_    0.867558 0.335987 0.660879 0.106214
H59   H     H_    0.879187 0.345462 0.733762 0.207443
F2    F     F_    0.086505 0.637105 0.298597 -0.699277
F3    F     F_    0.021828 0.312836 0.051295 -0.633669
F4    F     F_    0.998474 0.447211 0.237093 -0.653606
N8    N     N_3   0.461739 0.161901 0.457230 -0.491303
H60   H     H_    0.403311 0.199296 0.436989 0.221794
H61   H     H_    0.382577 0.143218 0.488992 0.211301
F5    F     F_    0.338730 0.702545 0.598606 -0.747725

loop_
_geom_bond_atom_site_label_1
_geom_bond_atom_site_label_2
_ccdc_geom_bond_type
C59   H8    S    
O6    P8    S    
C53   C54   A    
N5    H54   S    
C53   C57   A    
C54   N8    S    
C6    H21   S    
C39   C40   A    
C17   C18   A    
C9    C32   A    
C5    O11   S    
O24   P1    S    
Ba2   O5    S    
C5    C6    S    
C51   C52   A    
Ba2   P4    S    
C12   O3    S    
C2    H1    S    
C8    H26   S    
O1    P1    D    
C26   C27   S    
N7    H59   S    
C22   C24   A    
Ba1   Ba2   S    
C11   N1    Am   
C28   C29   D    
C60   N5    S    
C41   C50   S    
C4    H16   S    
C56   C58   S    
C13   C14   A    
C44   C50   A    
O13   P2    S    
C47   C55   S    
C54   C55   A    
C34   C45   S    
O4    P4    D    
C16   C17   A    
N8    H60   S    
C58   F1    S    
C17   H30   S    
O3    P3    S    
O26   P2    D    
C56   H4    S    
C13   O19   D    
N7    H58   S    
C8    H27   S    
C14   C15   A    
C10   C15   A    
C59   O2    S    
C43   P3    S    
C20   H29   S    
C45   N3    S    
C60   H11   S    
Ba1   P1    S    
C12   F2    S    
C1    H13   S    
C7    C8    S    
O25   P6    S    
N4    H53   S    
Ba1   O26   S    
O14   P7    D    
C52   P5    S    
Ba2   O14   S    
C59   H9    S    
C48   H41   S    
N5    H55   S    
C23   H19   S    
N8    H61   S    
C34   H49   S    
C40   H40   S    
Ba2   O4    S    
C12   H36   S    
C35   F4    S    
O2    P2    S    
C52   C57   A    
Ba2   O9    S    
C38   C43   A    
C46   H38   S    
C44   H39   S    
C44   C46   A    
C34   F5    S    
C49   C50   A    
O23   P6    D    
C26   C30   D    
Ba1   O13   S    
O28   P3    D    
C45   H2    S    
C36   N2    S    
C51   C55   A    
O15   P7    S    
C49   H42   S    
C7    O17   S    
O11   P5    S    
C6    H23   S    
C57   H45   S    
C60   N4    S    
N6    H57   S    
C41   C42   A    
O16   P8    D    
C35   C36   A    
Ba1   P2    S    
C4    H17   S    
C7    H24   S    
C32   P6    S    
C56   H5    S    
C4    H18   S    
C29   C30   S    
O10   P5    D    
O12   P1    S    
C21   C22   A    
C27   C37   S    
O17   P8    S    
C48   C49   A    
C11   O18   D    
O8    P7    S    
C10   C11   A    
C8    H28   S    
N4    H52   S    
Ba1   O27   S    
C23   H48   S    
C21   F3    S    
C25   N2    Am   
C56   O24   S    
C38   C39   A    
O22   P6    S    
C1    N6    S    
C16   H32   S    
N3    H51   S    
C40   C41   A    
C3    H15   S    
C1    C2    S    
Ba2   O13   S    
C42   C43   A    
C28   P4    S    
Ba2   O8    S    
C46   C47   A    
C14   C20   A    
C30   N1    S    
Ba1   O8    S    
C33   C35   A    
C6    H22   S    
C25   O21   D    
C2    H12   S    
C13   N1    Am   
O5    P4    S    
O27   P3    S    
Ba1   O12   S    
C31   H31   S    
Ba2   O6    S    
C39   P2    S    
C38   H47   S    
C18   C25   A    
C42   H44   S    
C31   C36   A    
N3    H50   S    
C9    H35   S    
C26   H34   S    
N6    H56   S    
C3    H14   S    
C9    C33   A    
C1    H10   S    
C24   N2    Am   
C24   O20   D    
C7    H25   S    
C53   P7    S    
C3    C4    S    
C5    N7    S    
C58   H7    S    
C29   H33   S    
C3    O15   S    
C31   C32   A    
C28   C37   D    
Ba1   O5    S    
O9    P5    S    
C12   C23   S    
C59   C60   S    
C34   O7    S    
C15   C19   A    
C27   P8    S    
C33   P1    S    
C2    O25   S    
Ba2   O12   S    
C51   H43   S    
C37   H37   S    
O7    P4    S    
C5    H20   S    
C18   C19   A    
C58   H6    S    
C47   C48   A    
Ba1   O1    S    
C19   C22   A    
C10   C16   A    
C20   C21   A    
Ba1   O22   S    
C45   H3    S    
C23   H46   S    
