data_mof_unit_33382.cif
_audit_creation_date              2012-12-10T17:33:18-0500
_audit_creation_method            fapswitch 2.2
_symmetry_space_group_name_H-M    P1
_symmetry_Int_Tables_number       1
_space_group_crystal_system       triclinic
_cell_length_a                    12.14429
_cell_length_b                    12.729985
_cell_length_c                    13.609227
_cell_angle_alpha                 93.541426
_cell_angle_beta                  80.053582
_cell_angle_gamma                 96.051032
_cell_volume                      2058.7325477

loop_
_atom_site_label
_atom_site_type_symbol
_atom_type_description
_atom_site_fract_x
_atom_site_fract_y
_atom_site_fract_z
_atom_type_partial_charge
C1    C     C_R   0.525840 0.699596 0.486151 0.898111
C2    C     C_R   0.145813 0.465601 0.450649 0.082101
C3    C     C_R   0.971961 0.529095 0.540640 -0.091460
C4    C     C_R   0.025739 0.461339 0.465799 -0.007998
C5    C     C_R   0.480668 0.501545 0.686441 0.967586
C6    C     C_R   0.519273 0.498277 0.313555 0.840171
C7    C     C_1   0.533331 0.497202 0.209120 -0.077094
C8    C     C_1   0.466464 0.502437 0.790901 -0.107729
C9    C     C_2   0.547309 0.496197 0.016692 -0.133253
C10   C     C_2   0.452221 0.503078 0.983356 -0.135915
C11   C     C_1   0.456293 0.503002 0.879226 0.050093
C12   C     C_R   0.474881 0.298395 0.502537 0.920766
C13   C     C_1   0.543334 0.496453 0.120809 0.065970
C14   C     C_R   0.455281 0.182962 0.497183 -0.077722
C15   C     C_R   0.549028 0.810039 0.455803 -0.165505
C16   C     C_R   0.653668 0.978039 0.485291 -0.101532
C17   C     C_R   0.394559 0.030782 0.395984 -0.056715
C18   C     C_R   0.652988 0.868534 0.463680 -0.084405
C19   C     C_R   0.379160 0.132766 0.437062 -0.116046
C20   C     C_R   0.463996 0.861159 0.424593 -0.074723
C21   C     C_R   0.534220 0.125695 0.529461 -0.073189
C22   C     C_2   0.580130 0.160435 0.622954 0.507996
C23   C     C_R   0.472042 0.972588 0.430689 0.135273
C24   C     C_2   0.363506 0.797541 0.395484 0.557462
C25   C     C_2   0.279897 0.182929 0.420275 0.384365
C26   C     C_2   0.760630 0.819186 0.437738 0.479936
C27   C     C_2   0.760660 0.042351 0.497823 0.356365
C28   C     C_2   0.339927 0.991953 0.308774 0.437947
C29   C     C_2   0.208051 0.424590 0.356096 0.435274
C30   C     C_2   0.815187 0.644375 0.586701 0.450690
C31   C     C_2   0.218114 0.631413 0.669657 0.636473
C32   C     C_2   0.775878 0.348296 0.345837 0.611473
C33   C     C_2   0.002069 0.297202 0.353033 0.496887
C34   C     C_R   0.553991 0.026208 0.483151 0.022288
C35   C     C_2   0.976437 0.624513 0.709058 0.353573
C36   C     C_R   0.958013 0.393205 0.407992 -0.094628
C37   C     C_R   0.034896 0.580181 0.612250 -0.145918
C38   C     C_R   0.842795 0.407772 0.415142 0.068640
C39   C     C_R   0.152664 0.576019 0.597329 0.086052
C40   C     C_R   0.857102 0.544668 0.540798 0.071957
H1    H     H_    0.372671 0.508724 0.033344 0.192257
H2    H     H_    0.868647 0.717615 0.573782 0.059158
H3    H     H_    0.221298 0.595044 0.739011 0.025569
H4    H     H_    0.723520 0.276776 0.367978 0.091985
H5    H     H_    0.059066 0.254201 0.384488 0.070871
H6    H     H_    0.897307 0.584949 0.744542 0.110047
H7    H     H_    0.626859 0.490575 0.966704 0.181928
H8    H     H_    0.633183 0.111652 0.652898 0.067355
H9    H     H_    0.374316 0.729808 0.343432 0.075951
H10   H     H_    0.261603 0.186591 0.345395 0.021471
H11   H     H_    0.832352 0.847651 0.472568 0.024116
H12   H     H_    0.821732 0.010951 0.534474 0.080270
H13   H     H_    0.254431 0.007286 0.305808 0.090735
H14   H     H_    0.271764 0.371924 0.356400 0.085062
N1    N     N_R   0.206090 0.519450 0.517820 -0.167783
N2    N     N_R   0.793910 0.480550 0.482180 -0.143471
O1    O     O_R   0.421240 0.658850 0.504760 -0.601599
O2    O     O_2   0.268718 0.816871 0.433586 -0.536561
O3    O     O_2   0.214121 0.215108 0.491194 -0.549833
O4    O     O_2   0.772279 0.749410 0.372093 -0.523826
O5    O     O_2   0.781895 0.131266 0.466591 -0.595690
O6    O     O_2   0.391878 0.944532 0.237861 -0.549576
O7    O     O_2   0.189473 0.451227 0.276296 -0.542541
O8    O     O_2   0.727923 0.645978 0.645796 -0.557172
O9    O     O_2   0.262730 0.720808 0.655147 -0.500786
O10   O     O_2   0.783230 0.376963 0.260806 -0.518310
O11   O     O_2   0.977352 0.266362 0.272205 -0.493517
O12   O     O_R   0.578760 0.341150 0.495240 -0.637331
O13   O     O_2   0.013878 0.706184 0.748452 -0.507058
O14   O     O_R   0.609960 0.646370 0.493320 -0.556090
O15   O     O_R   0.390040 0.353630 0.506680 -0.598913
O16   O     O_R   0.392060 0.507120 0.646890 -0.658935
O17   O     O_R   0.607940 0.492880 0.353110 -0.579922
O18   O     O_R   0.580780 0.494630 0.635450 -0.530530
O19   O     O_R   0.419220 0.505370 0.364550 -0.658841
O20   O     O_2   0.553374 0.240232 0.671818 -0.572569
Zn1   Zn    Zn3+2 0.373990 0.508340 0.507630 0.981821
Zn2   Zn    Zn3+2 0.626010 0.491660 0.492370 1.048639

loop_
_geom_bond_atom_site_label_1
_geom_bond_atom_site_label_2
_ccdc_geom_bond_type
C15   C18   A    
C22   H8    S    
C4    C36   A    
C30   O8    D    
O14   Zn2   S    
C33   H5    S    
C18   C26   S    
C22   O20   D    
C29   O7    D    
C6    O19   A    
C12   O12   A    
C17   C23   A    
C31   H3    S    
C2    C29   S    
C14   C21   A    
C35   C37   S    
C5    O16   A    
C2    N1    A    
N1    Zn1   S    
C29   H14   S    
C33   C36   S    
N2    Zn2   S    
C5    O18   A    
C9    C13   S    
C25   H10   S    
C27   O5    D    
C16   C34   A    
C39   N1    A    
C20   C24   S    
C40   N2    A    
O17   Zn2   S    
C1    C15   S    
C32   C38   S    
C9    C10   D    
C16   C27   S    
C21   C22   S    
C10   H1    S    
O12   Zn2   S    
C15   C20   A    
O1    Zn1   S    
C21   C34   A    
C2    C4    A    
O16   Zn1   S    
C1    O1    A    
C20   C23   A    
C23   C34   A    
C32   H4    S    
C30   C40   S    
O19   Zn1   S    
C3    C37   A    
C24   O2    D    
C12   O15   A    
C12   C14   S    
C3    C40   A    
C9    H7    S    
C3    C4    A    
O15   Zn1   S    
C27   H12   S    
C33   O11   D    
C6    O17   A    
C32   O10   D    
C24   H9    S    
C31   O9    D    
C17   C28   S    
C14   C19   A    
C5    C8    S    
C28   H13   S    
C6    C7    S    
C1    O14   A    
C36   C38   A    
C37   C39   A    
C26   H11   S    
C8    C11   T    
C17   C19   A    
C31   C39   S    
C19   C25   S    
C10   C11   S    
C7    C13   T    
C38   N2    A    
C35   O13   D    
C16   C18   A    
O18   Zn2   S    
C30   H2    S    
C25   O3    D    
C35   H6    S    
C26   O4    D    
C28   O6    D    
