data_mof_unit_38447.cif
_audit_creation_date              2012-12-10T16:51:28-0500
_audit_creation_method            fapswitch 2.2
_symmetry_space_group_name_H-M    P1
_symmetry_Int_Tables_number       1
_space_group_crystal_system       triclinic
_cell_length_a                    7.808315
_cell_length_b                    8.572859
_cell_length_c                    12.619199
_cell_angle_alpha                 92.812517
_cell_angle_beta                  102.408487
_cell_angle_gamma                 93.696585
_cell_volume                      821.557579308

loop_
_atom_site_label
_atom_site_type_symbol
_atom_type_description
_atom_site_fract_x
_atom_site_fract_y
_atom_site_fract_z
_atom_type_partial_charge
C1    C     C_R   0.046803 0.794849 0.503905 0.990674
C2    C     C_R   0.189750 0.582889 0.821873 -0.120626
C3    C     C_2   0.067812 0.958745 0.504501 -0.516417
C4    C     C_R   0.114415 0.529444 0.707560 0.902021
C5    C     C_2   0.952629 0.049337 0.538373 0.289096
C6    C     C_R   0.959874 0.206655 0.510151 0.863035
C7    C     C_R   0.889860 0.486243 0.292147 0.861332
C8    C     C_R   0.852901 0.391904 0.996655 -0.183725
C9    C     C_R   0.826288 0.473196 0.176593 -0.049878
C10   C     C_R   0.081559 0.642782 0.886659 -0.158252
C11   C     C_R   0.144222 0.670569 0.998056 -0.128538
C12   C     C_R   0.426353 0.575362 0.982425 0.080655
C13   C     C_R   0.311105 0.629323 0.046756 -0.196238
C14   C     C_R   0.370335 0.570695 0.868704 0.082877
C15   C     C_R   0.594582 0.523305 0.025656 0.084775
C16   C     C_R   0.696458 0.460324 0.955327 0.147624
C17   C     C_R   0.648681 0.479772 0.845441 -0.263696
C18   C     C_R   0.497719 0.551457 0.805971 -0.147018
C19   C     C_R   0.665678 0.532878 0.136007 -0.265873
C20   C     C_R   0.918410 0.398572 0.107925 -0.207928
H1    H     H_    0.041746 0.349032 0.139956 0.164837
H2    H     H_    0.485908 0.595246 0.727281 0.181013
H3    H     H_    0.165140 0.003691 0.461297 0.172999
H4    H     H_    0.707859 0.121208 0.750883 0.375468
H5    H     H_    0.471491 0.367517 0.424861 0.196614
H6    H     H_    0.528121 0.638371 0.568884 0.221599
H7    H     H_    0.733131 0.449054 0.791313 0.206556
H8    H     H_    0.928081 0.340159 0.942959 0.172267
H9    H     H_    0.601019 0.591288 0.192051 0.161149
H10   H     H_    0.947787 0.666405 0.851597 0.194359
H11   H     H_    0.344281 0.640529 0.134264 0.139617
H12   H     H_    0.058909 0.715203 0.047773 0.159795
N1    N     N_2   0.434800 0.456690 0.470850 -0.174069
N2    N     N_2   0.565200 0.543310 0.529150 -0.157677
O1    O     O_R   0.893060 0.738880 0.507150 -0.544868
O2    O     O_2   0.895144 0.877461 0.703873 -0.334039
O3    O     O_3   0.789584 0.157576 0.705500 -0.567590
O4    O     O_R   0.172250 0.711130 0.488470 -0.624858
O5    O     O_R   0.944700 0.520730 0.667600 -0.593070
O6    O     O_R   0.223890 0.492980 0.648920 -0.637857
O7    O     O_R   0.827750 0.288870 0.511530 -0.568351
O8    O     O_R   0.106940 0.261120 0.492850 -0.638919
O9    O     O_R   0.776110 0.507020 0.351080 -0.638191
O10   O     O_R   0.055300 0.479270 0.332400 -0.626763
O11   O     O_2   0.637809 0.933505 0.564637 -0.322918
S1    S     S_3+6 0.815059 0.997535 0.629502 0.025395
Zn1   Zn    Zn3+2 0.813580 0.518530 0.512470 1.029999
Zn2   Zn    Zn3+2 0.186420 0.481470 0.487530 0.963598

loop_
_geom_bond_atom_site_label_1
_geom_bond_atom_site_label_2
_ccdc_geom_bond_type
C2    C4    S    
C4    O5    A    
O2    S1    D    
C7    O9    A    
C5    S1    S    
C10   H10   S    
C9    C20   A    
C3    H3    S    
C12   C15   A    
C12   C14   A    
C3    C5    D    
O1    Zn1   S    
C17   C18   A    
O7    Zn1   S    
C8    C16   A    
O10   Zn2   S    
O8    Zn2   S    
C7    O10   A    
C12   C13   A    
C15   C19   A    
C11   C13   A    
C8    C20   A    
O9    Zn1   S    
C1    O4    A    
C2    C14   A    
N1    N2    D    
C11   H12   S    
H4    O3    S    
C5    C6    S    
C8    H8    S    
C10   C11   A    
C15   C16   A    
C17   H7    S    
O11   S1    D    
C20   H1    S    
C1    O1    A    
O5    Zn1   S    
C9    C19   A    
C6    O8    A    
C7    C9    S    
N1    Zn2   S    
O6    Zn2   S    
N2    Zn1   S    
H6    N2    S    
O3    S1    S    
C18   H2    S    
O4    Zn2   S    
C14   C18   A    
C13   H11   S    
C2    C10   A    
C4    O6    A    
H5    N1    S    
C16   C17   A    
C1    C3    S    
C6    O7    A    
C19   H9    S    
