data_mof_unit_21352.cif
_audit_creation_date              2012-12-11T21:06:11-0500
_audit_creation_method            fapswitch 2.2
_symmetry_space_group_name_H-M    P1
_symmetry_Int_Tables_number       1
_space_group_crystal_system       triclinic
_cell_length_a                    36.359996
_cell_length_b                    39.521233
_cell_length_c                    8.42667
_cell_angle_alpha                 89.999902
_cell_angle_beta                  93.88159
_cell_angle_gamma                 89.916882
_cell_volume                      12081.266354

loop_
_atom_site_label
_atom_site_type_symbol
_atom_type_description
_atom_site_fract_x
_atom_site_fract_y
_atom_site_fract_z
_atom_type_partial_charge
Ba1   Ba    Ba6+2 0.000060 0.523150 0.844950 1.660304
Ba2   Ba    Ba6+2 0.000060 0.476850 0.344950 1.661771
Ba3   Ba    Ba6+2 0.500060 0.023150 0.844950 1.675311
Ba4   Ba    Ba6+2 0.500060 0.976850 0.344950 1.662265
C1    C     C_3   0.993416 0.689905 0.688455 -0.029310
C2    C     C_2   0.906574 0.632680 0.283611 -0.081767
C3    C     C_R   0.630060 0.812190 0.707702 0.590524
C4    C     C_2   0.090489 0.634682 0.392943 -0.084466
C5    C     C_2   0.090200 0.364751 0.890109 -0.083116
C6    C     C_2   0.591514 0.134093 0.396097 -0.084367
C7    C     C_2   0.590381 0.865320 0.892906 -0.084618
C8    C     C_3   0.057365 0.612420 0.414682 -0.069252
C9    C     C_3   0.057234 0.387332 0.912877 -0.072516
C10   C     C_3   0.557564 0.112730 0.415216 -0.085185
C11   C     C_3   0.557324 0.887706 0.914771 -0.069395
C12   C     C_1   0.080344 0.575583 0.207439 0.030835
C13   C     C_2   0.406494 0.867296 0.783733 -0.081980
C14   C     C_1   0.081022 0.424697 0.709295 0.030083
C15   C     C_1   0.580140 0.075666 0.207359 0.035554
C16   C     C_1   0.580415 0.924525 0.708017 0.029858
C17   C     C_2   0.105177 0.598309 0.169661 -0.091242
C18   C     C_2   0.107237 0.402821 0.676736 -0.095630
C19   C     C_2   0.604976 0.098361 0.169103 -0.087385
C20   C     C_2   0.605213 0.901740 0.670153 -0.091283
C21   C     C_2   0.111819 0.629435 0.269422 0.211743
C22   C     C_2   0.112862 0.371105 0.772621 0.226673
C23   C     C_2   0.612339 0.129076 0.270854 0.220717
C24   C     C_2   0.409846 0.135383 0.298763 -0.083644
C25   C     C_2   0.611756 0.870582 0.769688 0.211878
C26   C     C_R   0.740204 0.285207 0.083723 0.028144
C27   C     C_R   0.739676 0.714545 0.579443 0.028366
C28   C     C_R   0.239721 0.785452 0.080550 0.028244
C29   C     C_R   0.239789 0.218225 0.528223 0.029035
C30   C     C_R   0.775824 0.274072 0.046420 0.051627
C31   C     C_R   0.775450 0.725665 0.544921 0.051685
C32   C     C_R   0.275484 0.774300 0.045433 0.051758
C33   C     C_R   0.277794 0.225721 0.563043 0.051260
C34   C     C_R   0.783993 0.238989 0.044132 -0.010268
C35   C     C_3   0.941320 0.387671 0.771076 -0.069533
C36   C     C_R   0.783711 0.760710 0.545431 -0.010229
C37   C     C_R   0.283751 0.739231 0.045233 -0.010229
C38   C     C_R   0.288307 0.257326 0.632039 -0.012117
C39   C     C_3   0.895491 0.522279 0.144048 0.300287
C40   C     C_3   0.895533 0.477798 0.644412 0.300867
C41   C     C_3   0.395774 0.022354 0.144553 0.291503
C42   C     C_3   0.395704 0.977687 0.644293 0.299704
C43   C     C_R   0.733836 0.320456 0.091516 -0.100048
C44   C     C_R   0.733229 0.679308 0.585167 -0.099592
C45   C     C_R   0.233261 0.820704 0.086740 -0.099376
C46   C     C_3   0.941362 0.612308 0.271001 -0.069903
C47   C     C_R   0.230702 0.186896 0.454214 -0.098390
C48   C     C_R   0.844731 0.252197 0.949252 0.204173
C49   C     C_R   0.844584 0.747627 0.451640 0.204115
C50   C     C_R   0.344633 0.752312 0.951598 0.204164
C51   C     C_R   0.353228 0.239081 0.642609 0.221297
C52   C     C_R   0.265802 0.680620 0.116047 -0.094249
C53   C     C_R   0.269974 0.315300 0.714820 -0.094954
C54   C     C_R   0.765967 0.180205 0.111786 -0.094256
C55   C     C_R   0.765809 0.819230 0.618076 -0.094271
C56   C     C_R   0.239265 0.657348 0.156603 -0.053121
C57   C     C_3   0.441265 0.887647 0.771036 -0.069745
C58   C     C_R   0.242958 0.338987 0.745855 -0.054846
C59   C     C_R   0.739457 0.156880 0.152066 -0.053260
C60   C     C_R   0.739264 0.842512 0.658988 -0.052875
C61   C     C_R   0.818139 0.228912 0.989619 -0.102094
C62   C     C_R   0.817955 0.770868 0.492641 -0.102341
C63   C     C_R   0.318023 0.729077 0.992322 -0.102185
C64   C     C_R   0.326136 0.262810 0.673209 -0.102062
C65   C     C_3   0.861595 0.544960 0.134882 -0.338878
C66   C     C_3   0.861673 0.455159 0.634948 -0.338803
C67   C     C_3   0.362035 0.045240 0.135635 -0.329547
C68   C     C_3   0.443216 0.113140 0.276988 -0.103913
C69   C     C_3   0.361894 0.954983 0.634508 -0.340352
C70   C     C_3   0.105216 0.478094 0.039043 0.289911
C71   C     C_3   0.104936 0.521912 0.537958 0.294515
C72   C     C_3   0.605384 0.978228 0.038328 0.295180
C73   C     C_3   0.604648 0.022235 0.541708 0.295754
C74   C     C_3   0.138822 0.455049 0.052713 -0.322457
C75   C     C_3   0.138528 0.544898 0.550137 -0.327763
C76   C     C_3   0.639017 0.955215 0.051721 -0.326150
C77   C     C_3   0.638311 0.045129 0.552262 -0.330230
C78   C     C_3   0.000420 0.653041 0.642505 0.347015
C79   C     C_1   0.919461 0.424083 0.981700 0.032311
C80   C     C_3   0.000580 0.346971 0.141846 0.345690
C81   C     C_3   0.504614 0.158720 0.615800 0.292348
C82   C     C_3   0.500553 0.847054 0.142772 0.346654
C83   C     C_R   0.823095 0.357054 0.982169 0.592779
C84   C     C_R   0.822843 0.642761 0.479031 0.592819
C85   C     C_R   0.322792 0.857211 0.980076 0.592897
C86   C     C_R   0.322285 0.146362 0.419801 0.593148
C87   C     C_3   0.945578 0.732347 0.712825 -0.120245
C88   C     C_3   0.946095 0.267469 0.209406 -0.120594
C89   C     C_3   0.504772 0.243567 0.409937 -0.216054
C90   C     C_1   0.919473 0.575851 0.481253 0.032491
C91   C     C_3   0.445811 0.767803 0.212404 -0.120342
C92   C     C_1   0.419381 0.924108 0.981483 0.031602
C93   C     C_3   0.993746 0.310081 0.187339 -0.029538
C94   C     C_1   0.419267 0.075399 0.479003 0.033487
C95   C     C_2   0.894707 0.401079 0.019035 -0.099760
C96   C     C_2   0.894619 0.598827 0.518297 -0.099731
C97   C     C_2   0.394501 0.901185 0.018416 -0.099744
C98   C     C_2   0.392802 0.097031 0.510987 -0.091639
C99   C     C_2   0.886118 0.371332 0.911148 0.205574
C100  C     C_2   0.886040 0.628563 0.410402 0.205797
C101  C     C_2   0.385952 0.871412 0.910639 0.206261
C102  C     C_2   0.387025 0.128682 0.415268 0.235835
C103  C     C_R   0.803450 0.298221 0.010461 -0.104707
C104  C     C_3   0.519148 0.193507 0.571219 -0.095018
C105  C     C_R   0.803141 0.701550 0.508975 -0.104973
C106  C     C_R   0.303152 0.798410 0.009571 -0.104743
C107  C     C_R   0.305486 0.201344 0.528603 -0.106928
C108  C     C_R   0.795838 0.333210 0.017512 -0.025434
C109  C     C_R   0.795478 0.666570 0.513996 -0.025365
C110  C     C_R   0.295467 0.833403 0.015073 -0.025634
C111  C     C_R   0.295089 0.170230 0.455871 -0.025018
C112  C     C_R   0.760972 0.343793 0.059078 -0.055251
C113  C     C_R   0.760469 0.655973 0.553206 -0.054936
C114  C     C_R   0.260463 0.844018 0.054769 -0.054705
C115  C     C_3   0.493576 0.810210 0.188768 -0.029585
C116  C     C_R   0.257661 0.163584 0.419180 -0.053596
C117  C     C_R   0.838455 0.287409 0.966340 -0.062370
C118  C     C_R   0.838259 0.712399 0.466855 -0.062109
C119  C     C_R   0.338270 0.787550 0.967047 -0.062274
C120  C     C_R   0.343405 0.207955 0.567199 -0.058004
C121  C     C_3   0.001240 0.654789 0.091840 0.280902
C122  C     C_3   0.001115 0.345123 0.590756 0.279278
C123  C     C_3   0.491767 0.161254 0.093711 0.310657
C124  C     C_3   0.501431 0.845198 0.592724 0.281236
C125  C     C_2   0.941479 0.420143 0.863970 -0.278004
C126  C     C_R   0.865723 0.312141 0.940165 0.608090
C127  C     C_2   0.941525 0.579791 0.363640 -0.277762
C128  C     C_2   0.441479 0.920108 0.864057 -0.278339
C129  C     C_2   0.442532 0.080242 0.366710 -0.253473
C130  C     C_2   0.057994 0.579756 0.323572 -0.266878
C131  C     C_2   0.057795 0.419989 0.821650 -0.263288
C132  C     C_2   0.557782 0.080040 0.323549 -0.264831
C133  C     C_2   0.558173 0.920471 0.824589 -0.266064
C134  C     C_R   0.211759 0.761157 0.108829 0.019936
C135  C     C_R   0.212202 0.242138 0.567506 0.019834
C136  C     C_R   0.712286 0.260902 0.112483 0.020244
C137  C     C_R   0.865582 0.687685 0.440716 0.608275
C138  C     C_R   0.711691 0.738863 0.607649 0.020057
C139  C     C_R   0.257213 0.715290 0.092575 0.028165
C140  C     C_R   0.260850 0.282276 0.659829 0.028346
C141  C     C_R   0.757488 0.214973 0.091138 0.027912
C142  C     C_R   0.757181 0.784636 0.593271 0.028165
C143  C     C_R   0.220963 0.726227 0.119390 0.053954
C144  C     C_R   0.222891 0.274291 0.630607 0.053762
C145  C     C_R   0.721386 0.225924 0.120523 0.053401
C146  C     C_R   0.720908 0.773750 0.619262 0.053877
C147  C     C_R   0.174633 0.770476 0.125885 -0.100865
C148  C     C_R   0.365553 0.812258 0.940726 0.608110
C149  C     C_R   0.174008 0.235023 0.546576 -0.100345
C150  C     C_R   0.675297 0.270265 0.132528 -0.101115
C151  C     C_R   0.674536 0.729609 0.623597 -0.101076
C152  C     C_R   0.147963 0.746535 0.157223 -0.058339
C153  C     C_R   0.147467 0.258781 0.582286 -0.059002
C154  C     C_R   0.648679 0.246321 0.164327 -0.063268
C155  C     C_R   0.647842 0.753576 0.655017 -0.058553
C156  C     C_R   0.157052 0.712206 0.174771 -0.029203
C157  C     C_R   0.157578 0.290823 0.640811 -0.030957
C158  C     C_R   0.657674 0.211927 0.179126 -0.028234
C159  C     C_R   0.369871 0.183089 0.529770 0.626782
C160  C     C_R   0.656955 0.787848 0.673773 -0.028879
C161  C     C_R   0.193634 0.701969 0.156680 -0.081414
C162  C     C_R   0.195317 0.298728 0.664879 -0.080586
C163  C     C_R   0.694096 0.201632 0.157909 -0.081226
C164  C     C_R   0.693572 0.798017 0.656760 -0.081652
C165  C     C_R   0.202887 0.667478 0.175426 -0.035317
C166  C     C_R   0.205472 0.331081 0.723062 -0.036001
C167  C     C_R   0.703226 0.167054 0.173683 -0.035433
C168  C     C_R   0.702857 0.832449 0.676777 -0.035184
C169  C     C_3   0.989799 0.687096 0.173892 -0.379254
C170  C     C_2   0.906572 0.367300 0.783912 -0.081792
C171  C     C_3   0.989802 0.312720 0.672087 -0.376614
C172  C     C_3   0.510071 0.191439 0.019953 -0.314326
C173  C     C_3   0.490042 0.812908 0.674943 -0.377529
C174  C     C_R   0.175705 0.643857 0.214687 0.595410
C175  C     C_R   0.177923 0.354914 0.756981 0.595556
C176  C     C_R   0.676072 0.143388 0.212828 0.593447
C177  C     C_R   0.675665 0.856075 0.716225 0.595386
C178  C     C_R   0.130163 0.687886 0.208574 0.590531
C179  C     C_R   0.130650 0.315068 0.676346 0.593900
C180  C     C_R   0.630833 0.187609 0.213313 0.586872
H1    H     H_    0.977993 0.636425 0.680718 0.071012
H2    H     H_    0.868855 0.429805 0.684001 0.071486
H3    H     H_    0.464601 0.062432 0.349023 0.070877
H4    H     H_    0.035926 0.562005 0.341295 0.073836
H5    H     H_    0.035526 0.437639 0.838403 0.073514
H6    H     H_    0.535418 0.062546 0.340229 0.072292
H7    H     H_    0.536390 0.938493 0.843678 0.073730
H8    H     H_    0.025390 0.660438 0.022815 0.102390
H9    H     H_    0.025247 0.339585 0.521380 0.114912
H10   H     H_    0.513746 0.145237 0.153899 0.002833
H11   H     H_    0.525637 0.839530 0.523933 0.102709
H12   H     H_    0.011230 0.636170 0.183527 -0.024866
H13   H     H_    0.369518 0.070689 0.182693 0.085441
H14   H     H_    0.011080 0.363610 0.682926 -0.024562
H15   H     H_    0.473412 0.171265 0.182943 0.021205
H16   H     H_    0.511310 0.863847 0.684387 -0.025497
H17   H     H_    0.980950 0.706510 0.084035 0.134403
H18   H     H_    0.980902 0.293414 0.581890 0.134671
H19   H     H_    0.532785 0.182838 0.948559 0.151795
H20   H     H_    0.481761 0.793328 0.585158 0.133543
H21   H     H_    0.966708 0.681909 0.249979 0.146255
H22   H     H_    0.966763 0.317855 0.748637 0.146968
H23   H     H_    0.489562 0.206026 0.943838 0.134517
H24   H     H_    0.369116 0.929622 0.683336 0.072010
H25   H     H_    0.466558 0.818021 0.749135 0.146568
H26   H     H_    0.905439 0.519330 0.270143 0.008414
H27   H     H_    0.905356 0.480804 0.770606 0.008220
H28   H     H_    0.405762 0.019360 0.270542 0.005588
H29   H     H_    0.405469 0.980714 0.770539 0.008490
H30   H     H_    0.917070 0.534468 0.076601 0.074180
H31   H     H_    0.917205 0.465551 0.577517 0.074003
H32   H     H_    0.417421 0.034409 0.077090 0.077493
H33   H     H_    0.417432 0.965489 0.577533 0.075237
H34   H     H_    0.938657 0.680734 0.737190 0.222665
H35   H     H_    0.850780 0.547796 0.009118 0.135366
H36   H     H_    0.915287 0.736156 0.697935 0.144685
H37   H     H_    0.958929 0.749720 0.630595 0.146070
H38   H     H_    0.954969 0.738517 0.837659 0.084551
H39   H     H_    0.938843 0.319052 0.234657 0.222210
H40   H     H_    0.915836 0.263616 0.193889 0.145313
H41   H     H_    0.955390 0.261161 0.334261 0.084394
H42   H     H_    0.959614 0.250222 0.126971 0.145193
H43   H     H_    0.466465 0.211477 0.500635 0.271409
H44   H     H_    0.484731 0.253252 0.315397 0.135118
H45   H     H_    0.532231 0.241624 0.360232 0.133617
H46   H     H_    0.851003 0.452235 0.509047 0.135859
H47   H     H_    0.506310 0.261729 0.510852 0.132105
H48   H     H_    0.438705 0.819433 0.235987 0.222420
H49   H     H_    0.415537 0.763994 0.196924 0.145081
H50   H     H_    0.455080 0.761691 0.337477 0.084667
H51   H     H_    0.459311 0.750389 0.130670 0.145594
H52   H     H_    0.351002 0.047895 0.010081 0.135900
H53   H     H_    0.351257 0.952090 0.508547 0.136039
H54   H     H_    0.097146 0.482210 0.911862 0.015191
H55   H     H_    0.096734 0.517628 0.411079 0.016250
H56   H     H_    0.597461 0.982544 0.911145 0.014611
H57   H     H_    0.978138 0.363543 0.180735 0.071022
H58   H     H_    0.595596 0.018573 0.415148 0.012076
H59   H     H_    0.082383 0.465675 0.097599 0.072808
H60   H     H_    0.082162 0.534435 0.596693 0.073556
H61   H     H_    0.582502 0.965666 0.095972 0.071458
H62   H     H_    0.582388 0.034570 0.604603 0.073971
H63   H     H_    0.161674 0.466550 0.990339 0.135157
H64   H     H_    0.161359 0.533176 0.488235 0.134470
H65   H     H_    0.661998 0.966971 0.991137 0.135086
H66   H     H_    0.660687 0.033649 0.486641 0.136925
H67   H     H_    0.132000 0.430112 0.998229 0.085097
H68   H     H_    0.479348 0.162316 0.680764 0.126381
H69   H     H_    0.131689 0.569717 0.494295 0.077999
H70   H     H_    0.632348 0.930445 0.995128 0.078386
H71   H     H_    0.631209 0.070176 0.499385 0.074449
H72   H     H_    0.147928 0.451160 0.179905 0.138527
H73   H     H_    0.147680 0.549072 0.677055 0.139405
H74   H     H_    0.647860 0.950934 0.178911 0.139312
H75   H     H_    0.648206 0.048777 0.678705 0.137261
H76   H     H_    0.000382 0.651926 0.510391 -0.077633
H77   H     H_    0.000397 0.348170 0.009698 -0.079534
H78   H     H_    0.495849 0.144530 0.505466 -0.047842
H79   H     H_    0.478137 0.863723 0.181206 0.071063
H80   H     H_    0.500462 0.848168 0.010633 -0.077607
H81   H     H_    0.004895 0.694836 0.811582 0.101650
H82   H     H_    0.005054 0.305155 0.310736 0.103421
H83   H     H_    0.524532 0.208894 0.680764 0.100573
H84   H     H_    0.504902 0.805331 0.312166 0.102143
H85   H     H_    0.013471 0.697093 0.250033 0.122106
H86   H     H_    0.013555 0.302602 0.747628 0.114236
H87   H     H_    0.522075 0.208247 0.115164 0.112626
H88   H     H_    0.513545 0.803172 0.753082 0.121438
H89   H     H_    0.880952 0.403429 0.128891 0.121721
H90   H     H_    0.839877 0.533808 0.205211 0.137266
H91   H     H_    0.880722 0.596434 0.627762 0.120554
H92   H     H_    0.380605 0.903622 0.127882 0.120888
H93   H     H_    0.375238 0.092087 0.607590 0.092753
H94   H     H_    0.754420 0.370469 0.067156 0.124235
H95   H     H_    0.753882 0.629297 0.559695 0.124479
H96   H     H_    0.253847 0.870700 0.061631 0.124668
H97   H     H_    0.248892 0.140058 0.362259 0.124111
H98   H     H_    0.094654 0.656899 0.467735 0.102921
H99   H     H_    0.093433 0.341629 0.959247 0.088327
H100  H     H_    0.596762 0.155681 0.473785 0.085569
H101  H     H_    0.839848 0.466404 0.704570 0.136649
H102  H     H_    0.594490 0.843035 0.967377 0.102421
H103  H     H_    0.119966 0.755182 0.168523 0.122872
H104  H     H_    0.118689 0.251802 0.563806 0.121448
H105  H     H_    0.620792 0.255011 0.178079 0.115401
H106  H     H_    0.619815 0.744998 0.665442 0.122693
H107  H     H_    0.164946 0.796136 0.111881 0.072857
H108  H     H_    0.163415 0.210979 0.504953 0.072062
H109  H     H_    0.665658 0.295977 0.120754 0.070732
H110  H     H_    0.664854 0.703993 0.608561 0.072665
H111  H     H_    0.708236 0.331021 0.125804 0.070734
H112  H     H_    0.340388 0.034374 0.207246 0.135589
H113  H     H_    0.707495 0.668768 0.617672 0.071657
H114  H     H_    0.207535 0.831277 0.119539 0.071853
H115  H     H_    0.202829 0.179594 0.418782 0.070677
H116  H     H_    0.900831 0.346749 0.700432 0.112372
H117  H     H_    0.900833 0.653294 0.200385 0.111599
H118  H     H_    0.400801 0.846690 0.700495 0.111840
H119  H     H_    0.406533 0.158662 0.230876 0.085053
H120  H     H_    0.293268 0.670732 0.108478 0.081618
H121  H     H_    0.297926 0.324124 0.732510 0.080008
H122  H     H_    0.793328 0.170243 0.102072 0.081842
H123  H     H_    0.340028 0.966153 0.704135 0.135813
H124  H     H_    0.793310 0.829026 0.611354 0.081987
H125  H     H_    0.008007 0.706764 0.607724 0.085926
H126  H     H_    0.008588 0.293301 0.106988 0.083150
H127  H     H_    0.545486 0.190195 0.513676 0.114425
H128  H     H_    0.508329 0.793317 0.108609 0.085699
H129  H     H_    0.247475 0.631147 0.173064 0.128195
H130  H     H_    0.251706 0.363779 0.788157 0.127317
H131  H     H_    0.747581 0.130606 0.166214 0.128571
H132  H     H_    0.747485 0.868663 0.676494 0.128567
H133  H     H_    0.120592 0.594703 0.064992 0.113911
H134  H     H_    0.868794 0.570345 0.183310 0.071914
H135  H     H_    0.124687 0.407631 0.579612 0.098971
H136  H     H_    0.619914 0.094999 0.062909 0.112747
H137  H     H_    0.620705 0.905341 0.565730 0.113241
H138  H     H_    0.824449 0.202668 0.970119 0.105619
H139  H     H_    0.824272 0.797160 0.474807 0.105774
H140  H     H_    0.324397 0.702792 0.974239 0.105570
H141  H     H_    0.335824 0.285398 0.733786 0.104693
H142  H     H_    0.964299 0.437264 0.849508 0.075571
H143  H     H_    0.964344 0.562615 0.349088 0.076416
H144  H     H_    0.464411 0.937132 0.850115 0.075895
I1    I     I_    0.891477 0.229821 0.848966 -0.430065
I2    I     I_    0.891433 0.770098 0.353217 -0.429582
I3    I     I_    0.391550 0.729799 0.853365 -0.430121
I4    I     I_    0.407968 0.254552 0.720074 -0.439847
N1    N     N_R   0.857784 0.346509 0.945195 -0.428329
N2    N     N_2   0.954717 0.302294 0.174779 -0.405696
N3    N     N_2   0.492816 0.210818 0.462741 -0.444678
N4    N     N_2   0.454518 0.802543 0.176567 -0.405314
N5    N     N_R   0.857621 0.653339 0.444123 -0.428608
N6    N     N_R   0.357570 0.846628 0.944546 -0.428434
N7    N     N_R   0.359137 0.153161 0.455079 -0.431367
N8    N     N_R   0.139706 0.654120 0.230818 -0.424437
N9    N     N_R   0.140979 0.346651 0.734802 -0.426120
N10   N     N_R   0.640246 0.153733 0.232248 -0.423942
N11   N     N_R   0.639643 0.845879 0.731169 -0.424676
N12   N     N_2   0.954337 0.697591 0.677189 -0.405120
O1    O     O_2   0.072110 0.546320 0.923350 -0.450827
O2    O     O_3   0.971922 0.356876 0.485485 -0.596470
O3    O     O_3   0.471060 0.142928 0.975364 -0.559582
O4    O     O_3   0.472328 0.856793 0.486554 -0.595307
O5    O     O_3   0.958050 0.483830 0.034350 -0.496893
O6    O     O_3   0.958050 0.516170 0.534350 -0.496696
O7    O     O_3   0.458050 0.983830 0.034350 -0.497258
O8    O     O_3   0.458050 0.016170 0.534350 -0.497582
O9    O     O_2   0.815739 0.387238 0.982609 -0.595464
O10   O     O_2   0.815521 0.612584 0.477960 -0.595413
O11   O     O_2   0.315419 0.887396 0.979507 -0.595250
O12   O     O_2   0.072110 0.453680 0.423350 -0.450115
O13   O     O_2   0.313181 0.119578 0.355952 -0.593007
O14   O     O_2   0.098117 0.696756 0.216519 -0.613936
O15   O     O_2   0.097953 0.308141 0.654146 -0.611949
O16   O     O_2   0.598930 0.196590 0.224636 -0.624354
O17   O     O_2   0.597979 0.803422 0.714686 -0.614282
O18   O     O_2   0.896959 0.303162 0.916648 -0.562929
O19   O     O_2   0.896879 0.696638 0.418690 -0.562674
O20   O     O_2   0.396836 0.803264 0.918125 -0.562685
O21   O     O_2   0.402559 0.187781 0.564151 -0.582436
O22   O     O_2   0.184213 0.614192 0.236040 -0.594261
O23   O     O_2   0.572110 0.046320 0.923350 -0.453824
O24   O     O_2   0.186844 0.382895 0.807799 -0.592937
O25   O     O_2   0.684455 0.113615 0.231179 -0.594364
O26   O     O_2   0.684169 0.885685 0.738759 -0.594192
O27   O     O_3   0.042000 0.516250 0.155330 -0.496188
O28   O     O_3   0.042000 0.483750 0.655330 -0.495578
O29   O     O_3   0.542000 0.016250 0.155330 -0.496293
O30   O     O_3   0.542000 0.983750 0.655330 -0.497872
O31   O     O_3   0.012540 0.574900 0.645500 -0.479500
O32   O     O_3   0.012540 0.425100 0.145500 -0.479839
O33   O     O_3   0.512540 0.074900 0.645500 -0.461084
O34   O     O_2   0.572110 0.953680 0.423350 -0.449967
O35   O     O_3   0.512540 0.925100 0.145500 -0.479785
O36   O     O_2   0.082330 0.593114 0.726311 -0.483726
O37   O     O_2   0.082415 0.406770 0.224708 -0.480017
O38   O     O_2   0.581304 0.094499 0.731246 -0.485362
O39   O     O_2   0.582392 0.906915 0.226250 -0.483684
O40   O     O_3   0.114350 0.509003 0.112067 -0.626080
O41   O     O_3   0.114186 0.491101 0.611755 -0.629253
O42   O     O_3   0.614370 0.009031 0.112693 -0.626088
O43   O     O_3   0.614228 0.991058 0.611434 -0.626208
O44   O     O_3   0.034219 0.642320 0.717850 -0.602368
O45   O     O_3   0.885826 0.509363 0.578934 -0.622820
O46   O     O_3   0.034403 0.357657 0.216813 -0.598644
O47   O     O_3   0.531241 0.142133 0.718557 -0.587617
O48   O     O_3   0.534385 0.857683 0.217908 -0.602473
O49   O     O_2   0.928110 0.546600 0.766510 -0.456295
O50   O     O_2   0.928110 0.453400 0.266510 -0.455734
O51   O     O_2   0.428110 0.046600 0.766510 -0.452982
O52   O     O_2   0.428110 0.953400 0.266510 -0.455725
O53   O     O_3   0.987780 0.574950 0.044470 -0.465967
O54   O     O_3   0.987780 0.425050 0.544470 -0.465808
O55   O     O_3   0.487780 0.074950 0.044470 -0.463650
O56   O     O_3   0.885783 0.490687 0.079119 -0.622680
O57   O     O_3   0.487780 0.925050 0.544470 -0.466411
O58   O     O_2   0.920387 0.597257 0.946867 -0.490759
O59   O     O_2   0.920273 0.402985 0.447376 -0.490587
O60   O     O_2   0.419832 0.096306 0.957555 -0.477261
O61   O     O_2   0.420473 0.902674 0.446547 -0.490806
O62   O     O_3   0.385930 0.009231 0.578801 -0.629394
O63   O     O_3   0.385870 0.990803 0.079605 -0.622008
O64   O     O_3   0.972126 0.643168 0.986002 -0.595250
P1    P     P_3+3 0.075650 0.535480 0.098240 0.993401
P2    P     P_3+3 0.953978 0.394071 0.561779 0.952989
P3    P     P_3+3 0.454383 0.106498 0.064168 0.975183
P4    P     P_3+3 0.454096 0.893969 0.561838 0.952210
P5    P     P_3+3 0.047468 0.394956 0.125184 0.956731
P6    P     P_3+3 0.047420 0.604994 0.626525 0.952870
P7    P     P_3+3 0.547492 0.895018 0.126679 0.953389
P8    P     P_3+3 0.546714 0.105572 0.627041 0.967738
P9    P     P_3+3 0.075650 0.464520 0.598240 0.991693
P10   P     P_3+3 0.575650 0.035480 0.098240 0.994340
P11   P     P_3+3 0.575650 0.964520 0.598240 0.992670
P12   P     P_3+3 0.924520 0.535770 0.591580 0.994510
P13   P     P_3+3 0.924520 0.464230 0.091580 0.994520
P14   P     P_3+3 0.424520 0.035770 0.591580 0.991589
P15   P     P_3+3 0.424520 0.964230 0.091580 0.994340
P16   P     P_3+3 0.954039 0.606024 0.061708 0.952940

loop_
_geom_bond_atom_site_label_1
_geom_bond_atom_site_label_2
_ccdc_geom_bond_type
C95   C99   S    
C173  H88   S    
C1    H81   S    
C103  C108  A    
C176  N10   Am   
Ba4   P11   S    
C37   C63   A    
Ba1   P1    S    
C94   P14   S    
C76   H70   S    
C150  C154  A    
O37   P5    D    
Ba4   O29   S    
C57   P4    S    
C90   P12   S    
C96   C100  S    
C5    H99   S    
C169  H17   S    
Ba2   O27   S    
C6    H100  S    
C33   C38   A    
C5    C9    S    
C57   C128  S    
C13   C57   S    
C133  H7    S    
C7    C11   S    
C24   C102  D    
C40   C66   S    
C82   C115  S    
C2    C100  D    
C77   H66   S    
C31   C105  A    
C89   H47   S    
C42   H33   S    
Ba4   O8    S    
C172  H19   S    
O23   P10   D    
C35   C170  S    
Ba4   O57   S    
C82   H80   S    
C5    C22   D    
C161  C165  A    
C43   C112  A    
C58   C166  A    
C3    N11   Am   
O30   P11   S    
C25   N11   S    
C41   H28   S    
Ba1   O53   S    
C78   H1    S    
C78   H76   S    
C50   I3    S    
C130  H4    S    
C88   H40   S    
C163  C167  A    
C83   C108  A    
C104  H127  S    
C8    P6    S    
C15   C132  D    
C94   C98   D    
C84   O10   D    
O34   P11   D    
C16   C133  D    
C15   C19   D    
O3    P3    S    
C2    H117  S    
C93   N2    S    
O49   P12   D    
O1    P1    D    
Ba2   P13   S    
O43   P11   S    
C58   H130  S    
C146  C164  A    
C75   H69   S    
C173  H20   S    
C79   P13   S    
O40   P1    S    
C160  C164  A    
C116  H97   S    
C69   H24   S    
C88   H41   S    
C27   C44   A    
O32   P5    S    
O8    P14   S    
C30   C103  A    
O45   P12   S    
O6    P12   S    
C12   P1    S    
C123  C172  S    
C119  C148  A    
C107  C120  A    
C180  N10   Am   
C126  O18   D    
C51   I4    S    
Ba1   O6    S    
C21   N8    S    
C3    O17   D    
C37   C139  A    
Ba3   O8    S    
Ba1   O28   S    
O38   P8    D    
C134  C147  A    
C17   H133  S    
C112  H94   S    
C31   C36   A    
C66   H2    S    
Ba2   O12   S    
C177  N11   Am   
C169  H85   S    
C1    C78   S    
C122  H9    S    
C68   C129  S    
C29   C135  A    
Ba2   P9    S    
C170  H116  S    
C59   H131  S    
C33   C107  A    
C46   C127  S    
C18   C22   S    
O46   P5    S    
C13   H118  S    
C48   I1    S    
C71   C75   S    
C48   C61   A    
C11   C133  S    
C6    C23   D    
C50   C119  A    
C11   P7    S    
C12   C17   D    
C121  O64   S    
C41   C67   S    
Ba4   O7    S    
C125  H142  S    
C117  C126  A    
C12   C130  D    
C147  C152  A    
C92   P15   S    
C81   O47   S    
C104  N3    S    
C102  N7    S    
C28   C32   A    
C82   O48   S    
O61   P4    D    
C79   C125  D    
C49   C118  A    
H39   N2    S    
C88   N2    S    
C149  H108  S    
C78   O44   S    
C84   C109  A    
O59   P2    D    
Ba1   O1    S    
C143  C161  A    
C52   C139  A    
C168  C177  A    
Ba2   O5    S    
C49   I2    S    
O36   P6    D    
C43   H111  S    
C106  C110  A    
Ba4   P15   S    
C120  C159  A    
C66   H101  S    
C178  N8    Am   
O5    P13   S    
C93   H126  S    
C39   C65   S    
C142  C146  A    
O27   P1    S    
C9    C131  S    
C86   N7    Am   
C74   H63   S    
C153  H104  S    
C135  C144  A    
C26   C30   A    
C151  H110  S    
C151  C155  A    
C75   H73   S    
C137  N5    Am   
C152  C156  A    
C6    C10   S    
C91   N4    S    
C35   C125  S    
C99   C170  D    
C77   H71   S    
C71   O41   S    
Ba3   P14   S    
C70   H54   S    
O51   P14   D    
C24   H119  S    
C28   C134  A    
C4    H98   S    
C34   C61   A    
C90   C96   D    
C4    C8    S    
C42   H29   S    
O4    P4    S    
C2    C46   S    
C87   H38   S    
C80   H57   S    
C109  C113  A    
C1    H125  S    
C162  C166  A    
C32   C106  A    
C98   H93   S    
Ba3   Ba4   S    
C69   H123  S    
O39   P7    D    
C108  C112  A    
C159  N7    Am   
C53   C140  A    
C14   C18   D    
C70   O40   S    
C72   C76   S    
C171  H18   S    
C123  H15   S    
C179  N9    Am   
C127  H143  S    
C44   C113  A    
C171  H22   S    
C36   C142  A    
O56   P13   S    
C40   H27   S    
C155  H106  S    
C68   P3    S    
C7    C25   D    
C175  N9    Am   
C39   O56   S    
O35   P7    S    
O31   P6    S    
O63   P15   S    
C115  H84   S    
C84   N5    Am   
C28   C45   A    
C129  H3    S    
C174  N8    Am   
C89   N3    S    
C128  H144  S    
Ba3   O55   S    
C177  O26   D    
C155  C160  A    
C36   C62   A    
C124  C173  S    
C118  C137  A    
C39   H30   S    
C136  C145  A    
C178  O14   D    
C42   C69   S    
C122  C171  S    
Ba4   O35   S    
C10   P8    S    
C41   O63   S    
C15   P10   S    
C23   N10   S    
C86   O13   D    
C4    C21   D    
Ba3   O30   S    
Ba4   O52   S    
C144  C162  A    
C124  O4    S    
C71   H55   S    
C72   H61   S    
C145  C163  A    
C124  H11   S    
C81   H78   S    
C47   H115  S    
C51   C64   A    
C54   C141  A    
C126  N1    Am   
C94   C129  D    
C20   H137  S    
O50   P13   D    
C80   C93   S    
C42   O62   S    
C135  C149  A    
O62   P14   S    
C99   N1    S    
C73   H62   S    
C87   H36   S    
C20   C25   S    
C17   C21   S    
C71   H60   S    
C97   H92   S    
O12   P9    D    
C91   H50   S    
C81   C104  S    
C137  O19   D    
C88   H42   S    
C79   C95   D    
C92   C97   D    
C74   H67   S    
C32   C37   A    
C24   C68   S    
C77   H75   S    
C179  O15   D    
O28   P9    S    
Ba1   O5    S    
C61   H138  S    
Ba3   O7    S    
C96   H91   S    
C29   C33   A    
Ba3   O33   S    
C87   N12   S    
C83   O9    D    
C65   H134  S    
C157  C179  A    
C124  H16   S    
C158  C180  A    
C148  O20   D    
C48   C117  A    
C59   C167  A    
C174  O22   D    
Ba2   O6    S    
O41   P9    S    
C86   C111  A    
O54   P2    S    
C171  H86   S    
C100  N5    S    
C85   O11   D    
C70   H59   S    
C38   C140  A    
C14   P9    S    
C27   C31   A    
C80   H77   S    
C76   H74   S    
C56   C165  A    
C44   H113  S    
C153  C157  A    
C82   H79   S    
C175  O24   D    
C180  O16   D    
C73   O43   S    
C85   C110  A    
O53   P16   S    
C115  N4    S    
Ba3   P10   S    
C65   H35   S    
C1    N12   S    
C72   O42   S    
Ba1   P12   S    
C56   H129  S    
C29   C47   A    
C3    C160  A    
C166  C175  A    
C90   C127  D    
C72   H56   S    
C74   H72   S    
C138  C146  A    
C123  O3    S    
C10   C132  S    
C52   H120  S    
C121  H8    S    
C147  H107  S    
C67   H112  S    
H48   N4    S    
C149  C153  A    
C45   H114  S    
O44   P6    S    
C35   P2    S    
C52   C56   A    
C93   H82   S    
C164  C168  A    
C113  H95   S    
C51   C120  A    
Ba2   O32   S    
C169  H21   S    
C154  H105  S    
C16   P11   S    
C141  C145  A    
C150  H109  S    
C60   C168  A    
C85   N6    Am   
C40   H31   S    
C140  C144  A    
C121  C169  S    
C95   H89   S    
Ba4   O34   S    
C53   C58   A    
C139  C143  A    
C65   H90   S    
C55   C60   A    
C172  H23   S    
C19   H136  S    
C46   P16   S    
Ba2   O54   S    
C105  C118  A    
Ba3   O51   S    
C40   O45   S    
C41   H32   S    
Ba1   O49   S    
Ba1   Ba2   S    
C173  H25   S    
C39   H26   S    
C131  H5    S    
O57   P4    S    
O55   P3    S    
C106  C119  A    
C122  O2    S    
O33   P8    S    
O60   P3    D    
C73   C77   S    
C138  C151  A    
C87   H37   S    
C70   C74   S    
C157  C162  A    
C105  C109  A    
C92   C128  D    
O42   P10   S    
O52   P15   D    
C176  O25   D    
C38   C64   A    
O48   P7    S    
C60   H132  S    
C91   H51   S    
C22   N9    S    
C156  C178  A    
C55   H124  S    
O64   P16   S    
C67   H13   S    
C97   C101  S    
C26   C136  A    
C73   H58   S    
C16   C20   D    
C26   C43   A    
C123  H10   S    
C148  N6    Am   
C83   N1    Am   
C50   C63   A    
C121  H12   S    
C156  C161  A    
C158  C163  A    
C132  H6    S    
Ba2   O50   S    
C104  H83   S    
C66   H46   S    
C34   C141  A    
C69   H53   S    
C13   C101  D    
C45   C114  A    
C159  O21   D    
C134  C143  A    
H34   N12   S    
C47   C116  A    
C14   C131  D    
C67   H52   S    
C53   H121  S    
C49   C62   A    
C80   O46   S    
C110  C114  A    
C19   C23   S    
C76   H65   S    
C167  C176  A    
O2    P2    S    
C165  C174  A    
Ba1   O31   S    
C89   H45   S    
C54   C59   A    
O58   P16   D    
O47   P8    S    
C18   H135  S    
C30   C34   A    
C101  N6    S    
C7    H102  S    
Ba3   O23   S    
C64   H141  S    
O7    P15   S    
C107  C111  A    
O29   P10   S    
C115  H128  S    
C75   H64   S    
C27   C138  A    
C62   H139  S    
C54   H122  S    
C114  H96   S    
C89   H44   S    
C122  H14   S    
C9    P5    S    
C98   C102  S    
C152  H103  S    
C154  C158  A    
C63   H140  S    
C55   C142  A    
C172  H87   S    
C81   H68   S    
C111  C116  A    
C136  C150  A    
C103  C117  A    
C8    C130  S    
C91   H49   S    
H43   N3    S    
