data_mof_unit_68455.cif
_audit_creation_date              2012-12-11T16:27:32-0500
_audit_creation_method            fapswitch 2.2
_symmetry_space_group_name_H-M    P1
_symmetry_Int_Tables_number       1
_space_group_crystal_system       triclinic
_cell_length_a                    22.797046
_cell_length_b                    7.365164
_cell_length_c                    16.03354
_cell_angle_alpha                 90.116
_cell_angle_beta                  109.398386
_cell_angle_gamma                 89.36931
_cell_volume                      2539.11276183

loop_
_atom_site_label
_atom_site_type_symbol
_atom_type_description
_atom_site_fract_x
_atom_site_fract_y
_atom_site_fract_z
_atom_type_partial_charge
O1    O     O_R   0.835850 0.638310 0.002120 -0.469876
O2    O     O_R   0.164150 0.361690 0.997880 -0.527182
O3    O     O_R   0.664150 0.138310 0.997880 -0.517441
O4    O     O_R   0.335850 0.861690 0.002120 -0.525362
O5    O     O_R   0.717530 0.306070 0.861970 -0.540154
O6    O     O_R   0.282470 0.693930 0.138030 -0.511973
O7    O     O_R   0.782470 0.806070 0.138030 -0.510434
O8    O     O_R   0.217530 0.193930 0.861970 -0.508590
C1    C     C_R   0.703052 0.474846 0.828159 0.742929
C2    C     C_R   0.306500 0.521879 0.168423 0.836265
C3    C     C_R   0.798091 0.980742 0.172625 0.777688
C4    C     C_R   0.202341 0.023366 0.829210 0.762153
O9    O     O_R   0.838690 0.308440 0.993250 -0.526167
O10   O     O_R   0.161310 0.691560 0.006750 -0.475104
O11   O     O_R   0.661310 0.808440 0.006750 -0.510948
O12   O     O_R   0.338690 0.191560 0.993250 -0.498889
O13   O     O_R   0.786170 0.140510 0.130090 -0.510221
O14   O     O_R   0.213830 0.859490 0.869910 -0.504433
O15   O     O_R   0.713830 0.640510 0.869910 -0.517992
O16   O     O_R   0.286170 0.359490 0.130090 -0.519019
C5    C     C_R   0.865095 0.478349 0.999027 0.770070
C6    C     C_R   0.134363 0.524546 0.002262 0.914710
C7    C     C_R   0.633876 0.978119 0.995487 0.755894
C8    C     C_R   0.365180 0.023013 0.997778 0.739059
O17   O     O_3   0.732630 0.472520 0.044740 -0.346417
O18   O     O_3   0.267370 0.527480 0.955260 -0.345614
O19   O     O_3   0.767370 0.972520 0.955260 -0.358123
O20   O     O_3   0.232630 0.027480 0.044740 -0.398277
V1    V     V_3+5 0.753220 0.196740 0.991700 1.825703
V2    V     V_3+5 0.246780 0.803260 0.008300 1.834766
V3    V     V_3+5 0.746780 0.696740 0.008300 1.899247
V4    V     V_3+5 0.253220 0.303260 0.991700 1.836640
C9    C     C_R   0.510731 0.014451 0.818564 0.323297
C10   C     C_R   0.491400 0.011702 0.169795 0.347230
C11   C     C_R   0.977896 0.478907 0.181015 0.322611
C12   C     C_R   0.013964 0.575032 0.833539 0.300038
C13   C     C_R   0.454840 0.056399 0.745691 0.436494
C14   C     C_R   0.550295 0.035454 0.239298 0.458592
C15   C     C_R   0.030315 0.457763 0.260357 0.409710
C16   C     C_R   0.956040 0.582897 0.759654 0.474405
C17   C     C_R   0.401584 0.115729 0.766208 0.205980
C18   C     C_R   0.601753 0.082441 0.213891 0.218000
C19   C     C_R   0.088685 0.454523 0.251726 0.271010
C20   C     C_R   0.901259 0.609571 0.779810 0.226536
C21   C     C_R   0.407157 0.158561 0.853003 0.253709
C22   C     C_R   0.592782 0.132224 0.127450 0.258073
C23   C     C_R   0.097082 0.526129 0.176616 0.330290
C24   C     C_R   0.904776 0.640783 0.865772 0.202987
C25   C     C_R   0.449328 0.056909 0.919832 -0.174048
C26   C     C_R   0.550282 0.026415 0.066679 -0.175184
C27   C     C_R   0.050658 0.511887 0.090895 -0.121686
C28   C     C_R   0.951165 0.554770 0.933630 -0.145404
C29   C     C_R   0.508892 0.014126 0.908377 -0.091502
C30   C     C_R   0.490204 0.010381 0.078319 -0.070161
C31   C     C_R   0.986974 0.489185 0.093251 -0.135537
C32   C     C_R   0.012205 0.547127 0.924817 -0.134982
C33   C     C_R   0.435283 0.018951 0.999678 0.031913
C34   C     C_R   0.562925 0.992322 0.987608 0.055800
C35   C     C_R   0.065463 0.524448 0.006164 -0.024256
C36   C     C_R   0.935879 0.498287 0.009706 0.019772
C37   C     C_R   0.173982 0.010968 0.732694 -0.131050
C38   C     C_R   0.829814 0.021602 0.270677 -0.120102
C39   C     C_R   0.337470 0.495099 0.265838 -0.162867
C40   C     C_R   0.674781 0.466613 0.730086 -0.123047
C41   C     C_R   0.184178 0.942317 0.594665 0.015684
C42   C     C_R   0.835900 0.214186 0.396338 -0.034728
C43   C     C_R   0.331636 0.403995 0.405518 -0.083640
C44   C     C_R   0.677346 0.351253 0.591449 -0.014693
C45   C     C_R   0.207335 0.932642 0.685072 0.226712
C46   C     C_R   0.810180 0.177451 0.307768 0.356163
C47   C     C_R   0.311550 0.381843 0.314992 0.379035
C48   C     C_R   0.702193 0.354210 0.682484 0.300414
C49   C     C_R   0.110491 0.043841 0.689839 -0.004928
C50   C     C_R   0.889996 0.953398 0.321994 -0.045949
C51   C     C_R   0.398551 0.554719 0.310657 -0.038192
C52   C     C_R   0.613920 0.531486 0.684898 0.007882
C53   C     C_R   0.080585 0.033609 0.596259 0.048373
C54   C     C_R   0.924186 0.025242 0.407578 0.122949
C55   C     C_R   0.429641 0.518231 0.401291 0.092340
C56   C     C_R   0.582615 0.498377 0.593494 0.087193
C57   C     C_R   0.120549 0.985487 0.548003 -0.128266
C58   C     C_R   0.889316 0.124041 0.447403 -0.126119
C59   C     C_R   0.389363 0.484825 0.447932 -0.151399
C60   C     C_R   0.621261 0.440918 0.547068 -0.143812
C61   C     C_R   0.013915 0.054737 0.549856 -0.105383
C62   C     C_R   0.990451 0.016797 0.454123 -0.075647
C63   C     C_R   0.495975 0.519471 0.448624 -0.097519
C64   C     C_R   0.516881 0.520864 0.545389 -0.100064
C65   C     C_R   0.033836 0.999518 0.406658 0.451229
C66   C     C_R   0.967890 0.107282 0.591741 0.483628
C67   C     C_R   0.469863 0.530085 0.587421 0.459275
C68   C     C_R   0.542503 0.502264 0.405739 0.470382
C69   C     C_R   0.097109 0.965011 0.455601 0.409085
C70   C     C_R   0.904893 0.121758 0.537355 0.395474
C71   C     C_R   0.406257 0.535652 0.534697 0.458113
C72   C     C_R   0.605849 0.481408 0.458376 0.409183
H1    H     H_    0.912780 0.863006 0.291880 0.258412
H2    H     H_    0.086623 0.029553 0.734596 0.241498
H3    H     H_    0.591474 0.600255 0.722601 0.251130
H4    H     H_    0.422153 0.619468 0.274283 0.249763
H5    H     H_    0.217810 0.907374 0.563747 0.216859
H6    H     H_    0.815169 0.318208 0.425584 0.193156
H7    H     H_    0.305490 0.342238 0.442990 0.227296
H8    H     H_    0.701323 0.276936 0.554731 0.214803
Br1   Br    Br    0.682103 0.990461 0.276653 -0.351636
Br2   Br    Br    0.322170 0.172539 0.679307 -0.251574
Br3   Br    Br    0.819092 0.622090 0.695296 -0.226742
Br4   Br    Br    0.159789 0.355157 0.343506 -0.187407
S1    S     S_3+6 0.578760 0.935539 0.796910 0.049829
O21   O     O_2   0.598454 0.761419 0.846986 -0.370496
O22   O     O_2   0.571067 0.900850 0.701994 -0.275749
O23   O     O_3   0.635668 0.082750 0.830038 -0.498228
H9    H     H_    0.669865 0.021260 0.815307 0.377211
S2    S     S_3+6 0.424728 0.952564 0.196871 0.031872
O24   O     O_2   0.402514 0.778044 0.149635 -0.400636
O25   O     O_2   0.435316 0.926262 0.293275 -0.267925
O26   O     O_3   0.369463 0.110542 0.163553 -0.508420
H10   H     H_    0.332104 0.046487 0.165281 0.372399
S3    S     S_3+6 0.905262 0.537519 0.195460 0.069897
O27   O     O_2   0.889204 0.718634 0.151988 -0.358420
O28   O     O_2   0.857693 0.400315 0.152155 -0.329313
O29   O     O_3   0.898754 0.560006 0.295928 -0.439462
H11   H     H_    0.855119 0.597551 0.285517 0.360918
S4    S     S_3+6 0.082672 0.640435 0.810716 0.042031
O30   O     O_2   0.103567 0.810699 0.862294 -0.386036
O31   O     O_2   0.132391 0.496115 0.837287 -0.342683
O32   O     O_3   0.074167 0.693391 0.705941 -0.440393
H12   H     H_    0.111750 0.645419 0.695030 0.380494
S5    S     S_3+6 0.453376 0.064378 0.631062 0.169179
O33   O     O_2   0.507196 0.167173 0.621934 -0.274709
O34   O     O_2   0.459035 0.880135 0.597248 -0.296996
O35   O     O_3   0.388530 0.154851 0.560095 -0.493390
H13   H     H_    0.387064 0.107651 0.501537 0.369974
S6    S     S_3+6 0.562080 0.030809 0.356821 0.176771
O36   O     O_2   0.515482 0.143774 0.381615 -0.277214
O37   O     O_2   0.556200 0.844511 0.386958 -0.303104
O38   O     O_3   0.633014 0.100764 0.417128 -0.472668
H14   H     H_    0.643522 0.032458 0.473450 0.369161
S7    S     S_3+6 0.026458 0.461530 0.372372 0.143202
O39   O     O_2   0.012480 0.649975 0.393675 -0.312573
O40   O     O_2   0.975157 0.347924 0.380373 -0.299535
O41   O     O_3   0.090397 0.393727 0.454538 -0.461731
H15   H     H_    0.081678 0.421019 0.509847 0.384971
S8    S     S_3+6 0.948400 0.581673 0.642327 0.176938
O42   O     O_2   0.950771 0.771082 0.614345 -0.307911
O43   O     O_2   0.997466 0.478782 0.618047 -0.289346
O44   O     O_3   0.880305 0.503205 0.576528 -0.456458
H16   H     H_    0.875411 0.552590 0.517122 0.361849
S9    S     S_3+6 0.385429 0.384103 0.877550 0.136472
O45   O     O_2   0.316092 0.403108 0.838553 -0.267437
O46   O     O_2   0.406169 0.420812 0.974939 -0.329194
O47   O     O_3   0.417269 0.552490 0.838358 -0.390094
H17   H     H_    0.406535 0.665281 0.864097 0.371664
S10   S     S_3+6 0.584829 0.367887 0.094821 0.125692
O48   O     O_2   0.632166 0.488007 0.156622 -0.228358
O49   O     O_2   0.587631 0.392261 0.003280 -0.336007
O50   O     O_3   0.514892 0.443289 0.092188 -0.445250
H18   H     H_    0.513312 0.572375 0.074111 0.395440
S11   S     S_3+6 0.167261 0.635106 0.196213 0.070685
O51   O     O_2   0.197371 0.488239 0.163336 -0.402409
O52   O     O_2   0.158351 0.810337 0.145675 -0.296419
O53   O     O_3   0.213777 0.675796 0.299923 -0.428374
H19   H     H_    0.248686 0.746955 0.293698 0.395920
S12   S     S_3+6 0.878248 0.857161 0.885849 0.090251
O54   O     O_2   0.809024 0.856752 0.844076 -0.283557
O55   O     O_2   0.897719 0.901650 0.982815 -0.329446
O56   O     O_3   0.906083 0.020006 0.837948 -0.423790
H20   H     H_    0.904856 0.131996 0.871729 0.370592
S13   S     S_3+6 0.146201 0.853950 0.406466 0.143292
O57   O     O_2   0.112797 0.794521 0.315057 -0.246335
O58   O     O_2   0.198179 0.976800 0.406299 -0.283694
O59   O     O_3   0.174794 0.668141 0.467229 -0.459971
H21   H     H_    0.212866 0.638202 0.453886 0.439334
S14   S     S_3+6 0.840283 0.069212 0.570855 0.161058
O60   O     O_2   0.858322 0.967501 0.656199 -0.172999
O61   O     O_2   0.808187 0.243050 0.578837 -0.303593
O62   O     O_3   0.791089 0.941139 0.492131 -0.479192
H22   H     H_    0.750295 0.003572 0.477053 0.404556
S15   S     S_3+6 0.346342 0.648057 0.564846 0.140881
O63   O     O_2   0.299063 0.514657 0.571982 -0.259101
O64   O     O_2   0.370457 0.749164 0.650257 -0.245508
O65   O     O_3   0.312323 0.797006 0.483562 -0.499777
H23   H     H_    0.305074 0.907548 0.513956 0.400133
S16   S     S_3+6 0.669733 0.543167 0.423407 0.154418
O66   O     O_2   0.699801 0.376335 0.401200 -0.291515
O67   O     O_2   0.649833 0.665722 0.344733 -0.200562
O68   O     O_3   0.722228 0.651760 0.506387 -0.462801
H24   H     H_    0.762822 0.612626 0.502286 0.415604
Br5   Br    Br    0.753620 0.364023 0.246482 -0.284182
Br6   Br    Br    0.278506 0.781190 0.741050 -0.325604
Br7   Br    Br    0.773435 0.203215 0.737214 -0.276097
Br8   Br    Br    0.263531 0.167391 0.270317 -0.303200
S17   S     S_3+6 0.012034 0.026250 0.286832 0.067817
O69   O     O_2   0.955707 0.142835 0.245382 -0.334124
O70   O     O_2   0.064496 0.100443 0.261866 -0.308481
O71   O     O_3   0.997802 0.828263 0.235928 -0.475685
H25   H     H_    0.999285 0.852254 0.175809 0.388806
S18   S     S_3+6 0.980885 0.148577 0.707799 0.079558
O72   O     O_2   0.035070 0.269779 0.748829 -0.360970
O73   O     O_2   0.925443 0.237712 0.721143 -0.281201
O74   O     O_3   0.993409 0.955382 0.764923 -0.454831
H26   H     H_    0.009546 0.994349 0.827518 0.386533
S19   S     S_3+6 0.481155 0.500221 0.701406 0.111645
O75   O     O_2   0.485329 0.677980 0.745861 -0.281976
O76   O     O_2   0.422485 0.418968 0.702148 -0.260063
O77   O     O_3   0.540000 0.366257 0.761969 -0.504738
H27   H     H_    0.543812 0.391532 0.824221 0.383968
S20   S     S_3+6 0.526699 0.478747 0.289229 0.111069
O78   O     O_2   0.518322 0.658104 0.243845 -0.306885
O79   O     O_2   0.581798 0.392676 0.275853 -0.248739
O80   O     O_3   0.465348 0.347593 0.239028 -0.494798
H28   H     H_    0.444898 0.401706 0.179863 0.380413

loop_
_geom_bond_atom_site_label_1
_geom_bond_atom_site_label_2
_ccdc_geom_bond_type
O17   V3    S    
C7    C34   S    
C63   C64   A    
C43   C59   A    
O50   H18   S    
C58   C70   A    
O19   V1    S    
C1    C40   S    
O13   V1    S    
O74   H26   S    
C42   H6    S    
O1    C5    A    
C11   S3    S    
O44   H16   S    
C41   H5    S    
S19   O75   D    
C3    C38   S    
O15   V3    S    
S6    O38   S    
C55   C63   A    
S2    O24   D    
C43   H7    S    
S12   O55   D    
C23   S11   S    
C61   C62   A    
C52   H3    S    
O7    C3    A    
S19   O76   D    
C69   S13   S    
C26   C30   A    
C13   C17   A    
C12   C32   A    
O9    V1    S    
S12   O54   D    
C12   S4    S    
O10   V2    S    
C14   C18   A    
S1    O22   D    
C18   C22   A    
O4    C8    A    
S7    O41   S    
C25   C29   A    
O71   H25   S    
C44   C48   A    
O1    V3    S    
C67   S19   S    
C25   C33   A    
S16   O66   D    
C38   C46   A    
O2    V4    S    
C60   C72   A    
O3    V1    S    
S14   O60   D    
C12   C16   A    
C28   C36   A    
O65   H23   S    
O3    C7    A    
C1    O15   A    
S11   O51   D    
C2    O16   A    
S20   O78   D    
S17   O70   D    
O2    C6    A    
S11   O52   D    
O12   V4    S    
S18   O72   D    
O14   V2    S    
C21   C25   A    
C47   Br8   S    
C19   C23   A    
C48   Br7   S    
S10   O49   D    
C56   C60   A    
S5    O35   S    
C54   C62   A    
O11   C7    A    
C53   C61   A    
O12   C8    A    
C31   C36   A    
C9    C29   A    
S13   O58   D    
C72   S16   S    
S8    O44   S    
O23   H9    S    
C66   C70   A    
C50   H1    S    
O5    V1    S    
S3    O28   D    
C68   C72   A    
O17   V1    S    
C49   H2    S    
C22   S10   S    
S19   O77   S    
C15   S7    S    
O7    V3    S    
C17   Br2   S    
C11   C31   A    
C44   C60   A    
S13   O57   D    
C52   C56   A    
O20   V4    S    
S10   O50   S    
S8    O43   D    
S9    O47   S    
O56   H20   S    
C46   Br5   S    
O18   V4    S    
C8    C33   S    
C23   C27   A    
C27   C31   A    
C37   C49   A    
O19   V3    S    
C9    C13   A    
S2    O25   D    
C26   C34   A    
C11   C15   A    
O5    C1    A    
C68   S20   S    
C42   C58   A    
C57   C69   A    
C54   C58   A    
C41   C57   A    
O80   H28   S    
C64   C67   A    
C53   C57   A    
O8    C4    A    
S17   O71   S    
C59   C71   A    
S18   O74   S    
C4    O14   A    
C40   C52   A    
S11   O53   S    
O9    C5    A    
S3    O27   D    
S14   O62   S    
S10   O48   D    
C5    C36   S    
S4    O32   S    
C66   S18   S    
C65   S17   S    
C71   S15   S    
O6    V2    S    
C70   S14   S    
C10   C30   A    
C16   S8    S    
S13   O59   S    
S1    O23   S    
C27   C35   A    
C16   C20   A    
O32   H12   S    
C6    C35   S    
O59   H21   S    
S7    O39   D    
S4    O31   D    
O53   H19   S    
O16   V4    S    
C20   Br3   S    
C37   C45   A    
C3    O13   A    
C49   C53   A    
C10   C14   A    
S12   O56   S    
C2    C39   S    
C44   H8    S    
C39   C47   A    
S8    O42   D    
C62   C65   A    
C45   Br6   S    
O6    C2    A    
S6    O37   D    
C29   C34   A    
C32   C35   A    
O11   V3    S    
S6    O36   D    
C24   S12   S    
C10   S2    S    
O38   H14   S    
C22   C26   A    
O26   H10   S    
S16   O68   S    
C61   C66   A    
S15   O65   S    
S9    O46   D    
S5    O33   D    
C21   S9    S    
O68   H24   S    
C56   C64   A    
S9    O45   D    
C30   C33   A    
C55   C59   A    
C4    C37   S    
S7    O40   D    
O10   C6    A    
C42   C46   A    
O8    V4    S    
C39   C51   A    
S20   O80   S    
C41   C45   A    
O20   V2    S    
C51   H4    S    
S3    O29   S    
S16   O67   D    
O35   H13   S    
C43   C47   A    
C19   Br4   S    
C14   S6    S    
C65   C69   A    
C18   Br1   S    
S14   O61   D    
O77   H27   S    
S2    O26   S    
O62   H22   S    
C67   C71   A    
S15   O63   D    
C28   C32   A    
C24   C28   A    
C9    S1    S    
O47   H17   S    
C15   C19   A    
S20   O79   D    
S17   O69   D    
C50   C54   A    
S1    O21   D    
C17   C21   A    
O41   H15   S    
C38   C50   A    
S18   O73   D    
S5    O34   D    
O29   H11   S    
C63   C68   A    
C51   C55   A    
C13   S5    S    
O4    V2    S    
C20   C24   A    
C40   C48   A    
S4    O30   D    
S15   O64   D    
O18   V2    S    
