data_mof_unit_37095.cif
_audit_creation_date              2013-03-05T16:21:44-0500
_audit_creation_method            fapswitch 2.2
_symmetry_space_group_name_H-M    P1
_symmetry_Int_Tables_number       1
_space_group_crystal_system       triclinic
_cell_length_a                    12.957847
_cell_length_b                    15.136286
_cell_length_c                    13.960357
_cell_angle_alpha                 91.169048
_cell_angle_beta                  97.430201
_cell_angle_gamma                 90.695992
_cell_volume                      2714.23769704

loop_
_atom_site_label
_atom_site_type_symbol
_atom_site_description
_atom_site_fract_x
_atom_site_fract_y
_atom_site_fract_z
_atom_type_partial_charge
O1    O     O_R   0.500010 0.371450 0.581430 -0.595825
O2    O     O_R   0.499990 0.628550 0.418570 -0.577745
O3    O     O_R   0.500010 0.371460 0.418560 -0.531090
O4    O     O_R   0.499990 0.628540 0.581440 -0.492039
C1    C     C_R   0.502499 0.330163 0.499511 0.947291
C2    C     C_R   0.497070 0.670085 0.500631 0.951965
O5    O     O_R   0.349000 0.499980 0.568210 -0.573592
O6    O     O_R   0.651000 0.500020 0.431790 -0.572871
O7    O     O_R   0.349000 0.499990 0.405340 -0.536185
O8    O     O_R   0.651000 0.500010 0.594660 -0.561703
C3    C     C_R   0.300435 0.501380 0.481417 0.919617
C4    C     C_R   0.699636 0.502419 0.518964 0.880191
Cu1   Cu    Cu3+1 0.500000 0.499990 0.596430 1.089008
Cu2   Cu    Cu3+1 0.500000 0.500010 0.403570 1.087517
C5    C     C_R   0.813024 0.502716 0.530797 -0.053270
C6    C     C_R   0.187509 0.508238 0.471709 -0.004371
C7    C     C_R   0.025860 0.564595 0.390871 -0.107402
C8    C     C_R   0.976404 0.455396 0.616732 -0.108253
C9    C     C_R   0.133359 0.556155 0.396883 -0.068331
C10   C     C_R   0.869383 0.465118 0.611938 -0.053328
C11   C     C_R   0.134813 0.474372 0.544693 -0.144720
C12   C     C_R   0.865166 0.536241 0.457207 -0.154608
C13   C     C_R   0.028234 0.485908 0.541702 0.119810
C14   C     C_R   0.972737 0.529107 0.462707 0.131163
H1    H     H_    0.821992 0.567234 0.395384 0.187266
H2    H     H_    0.177062 0.439935 0.604600 0.180337
H3    H     H_    0.830415 0.439873 0.669790 0.209675
H4    H     H_    0.174427 0.589404 0.344994 0.188369
H5    H     H_    0.984726 0.600323 0.331498 0.189278
H6    H     H_    0.018381 0.423504 0.678507 0.178248
C15   C     C_R   0.410408 0.093946 0.487921 -0.182616
C16   C     C_R   0.546621 0.906564 0.441042 -0.194242
H7    H     H_    0.337719 0.056781 0.475176 0.221182
H8    H     H_    0.587013 0.943004 0.390722 0.220632
C17   C     C_R   0.408878 0.185752 0.488630 0.278559
C18   C     C_R   0.551707 0.815068 0.441296 0.291493
C19   C     C_R   0.504206 0.233362 0.498667 -0.311428
C20   C     C_R   0.494325 0.767349 0.503122 -0.309045
C21   C     C_R   0.600326 0.187837 0.511937 0.165702
C22   C     C_R   0.434933 0.813573 0.566821 0.283880
C23   C     C_R   0.599274 0.095715 0.528312 0.385351
C24   C     C_R   0.447420 0.906406 0.578040 0.374454
C25   C     C_R   0.503553 0.049115 0.509790 -0.041173
C26   C     C_R   0.498392 0.952308 0.510262 -0.063379
C27   C     C_R   0.598181 0.517207 0.121857 0.337318
C28   C     C_R   0.457472 0.423931 0.883012 0.339865
C29   C     C_R   0.589029 0.524674 0.222141 -0.012423
C30   C     C_R   0.450176 0.432843 0.781408 -0.072854
H9    H     H_    0.656230 0.546588 0.270905 0.198834
H10   H     H_    0.410134 0.382250 0.734326 0.210152
N1    N     N_R   0.500000 0.500020 0.258690 -0.263021
N2    N     N_R   0.500000 0.499980 0.741310 -0.264978
C31   C     C_R   0.415929 0.470476 0.192670 0.496978
C32   C     C_R   0.555737 0.562496 0.802487 0.603326
C33   C     C_R   0.417142 0.479289 0.093041 -0.266054
C34   C     C_R   0.544987 0.564972 0.901350 -0.261760
H11   H     H_    0.346700 0.466533 0.043817 0.229630
H12   H     H_    0.579098 0.619023 0.946856 0.233705
C35   C     C_R   0.508590 0.495744 0.054626 0.009905
C36   C     C_R   0.504212 0.493243 0.945348 -0.002394
S1    S     S_3+6 0.304121 0.410919 0.219437 0.083452
O9    O     O_2   0.220167 0.475324 0.233115 -0.265186
O10   O     O_2   0.263744 0.351971 0.134436 -0.226857
O11   O     O_3   0.324983 0.346118 0.315550 -0.458907
H13   H     H_    0.355793 0.291721 0.291439 0.359820
S2    S     S_3+6 0.671540 0.618624 0.777221 0.082242
O12   O     O_2   0.704896 0.685866 0.856302 -0.213997
O13   O     O_2   0.755145 0.550634 0.779580 -0.317242
O14   O     O_3   0.666268 0.672181 0.672941 -0.507961
H14   H     H_    0.739562 0.686741 0.665704 0.371870
N3    N     N_R   0.309932 0.229117 0.479031 0.158350
O15   O     O_R   0.295481 0.297200 0.533787 -0.355856
O16   O     O_R   0.229653 0.192635 0.426679 -0.259115
N4    N     N_R   0.618175 0.772038 0.380536 0.156302
O17   O     O_R   0.621848 0.799199 0.293156 -0.291279
O18   O     O_R   0.687574 0.716604 0.417421 -0.372958
S3    S     S_3+6 0.719969 0.245597 0.505594 0.088545
O19   O     O_2   0.799426 0.185582 0.470793 -0.118404
O20   O     O_2   0.704788 0.320482 0.436742 -0.294937
O21   O     O_3   0.765732 0.284846 0.616523 -0.480699
H15   H     H_    0.704761 0.310910 0.641980 0.335406
S4    S     S_3+6 0.336333 0.757200 0.621328 0.070758
O22   O     O_2   0.287862 0.685484 0.553847 -0.363565
O23   O     O_2   0.384215 0.717042 0.713941 -0.237518
O24   O     O_3   0.240714 0.825346 0.644545 -0.427441
H16   H     H_    0.193223 0.788521 0.677816 0.389908
S5    S     S_3+6 0.713310 0.038995 0.579351 0.122118
O25   O     O_2   0.770450 0.005751 0.499011 -0.232315
O26   O     O_2   0.783942 0.099444 0.645639 -0.142758
O27   O     O_3   0.681748 0.952441 0.644118 -0.482944
H17   H     H_    0.745045 0.915932 0.653132 0.391305
S6    S     S_3+6 0.410752 0.964778 0.680747 0.129010
O28   O     O_2   0.303540 0.001296 0.655549 -0.215135
O29   O     O_2   0.411505 0.904831 0.765326 -0.162931
O30   O     O_3   0.494407 0.049113 0.713740 -0.478504
H18   H     H_    0.463299 0.082339 0.764439 0.409816
S7    S     S_3+6 0.724224 0.528695 0.087102 0.061393
O31   O     O_2   0.744813 0.624225 0.067998 -0.226478
O32   O     O_2   0.803866 0.499033 0.167591 -0.256729
O33   O     O_3   0.734660 0.467045 0.987316 -0.474816
H19   H     H_    0.805464 0.480146 0.971359 0.410221
S8    S     S_3+6 0.414407 0.322507 0.926087 0.059615
O34   O     O_2   0.299871 0.327743 0.932996 -0.235674
O35   O     O_2   0.431970 0.249069 0.856159 -0.249689
O36   O     O_3   0.479450 0.300248 0.034952 -0.488105
H20   H     H_    0.440810 0.250127 0.058777 0.397868

loop_
_geom_bond_atom_site_label_1
_geom_bond_atom_site_label_2
_geom_bond_distance
_ccdc_geom_bond_type
S2    O13   1.501010 D    
S5    O25   1.503389 D    
C6    C11   1.399948 A    
C33   C35   1.384359 A    
C7    H5    1.083792 S    
O30   H18   0.990236 S    
C11   H2    1.084969 S    
S7    O31   1.502630 D    
C29   H9    1.078043 S    
S3    O19   1.501780 D    
O5    C3    1.291800 A    
C28   S8    1.770157 S    
C15   C25   1.394084 A    
O1    C1    1.296269 A    
C16   C18   1.387332 A    
C17   C19   1.412177 A    
C1    C19   1.465476 S    
O14   H14   0.990660 S    
S2    O14   1.674781 S    
S8    O36   1.682294 S    
C27   C29   1.422545 A    
O4    Cu1   1.961231 S    
S1    O10   1.504276 D    
O33   H19   0.990416 S    
C31   S1    1.781382 S    
C5    C12   1.400678 A    
C27   C35   1.425039 A    
C12   H1    1.084415 S    
C13   C14   1.412999 A    
C15   H7    1.083954 S    
C8    H6    1.083819 S    
C8    C10   1.389463 A    
C30   H10   1.081323 S    
S2    O12   1.503852 D    
C17   N3    1.439525 S    
C35   C36   1.518936 S    
Cu1   Cu2   2.692401 S    
C23   C25   1.411093 A    
O2    C2    1.300570 A    
C24   C26   1.411231 A    
O8    C4    1.299416 A    
S7    O32   1.503701 D    
N2    C32   1.391874 A    
C28   C30   1.418631 A    
C31   C33   1.402036 A    
C5    C10   1.400993 A    
C23   S5    1.792131 S    
C32   C34   1.404785 A    
C7    C14   1.399876 A    
N4    O17   1.301664 A    
S8    O34   1.502611 D    
C22   S4    1.786320 S    
C21   C23   1.417775 A    
N3    O16   1.301579 A    
O7    Cu2   1.959981 S    
C29   N1    1.371127 A    
O24   H16   0.990597 S    
S6    O30   1.682243 S    
C8    C13   1.398433 A    
N1    C31   1.395654 A    
C16   H8    1.084219 S    
S1    O11   1.673870 S    
C25   C26   1.466202 S    
Cu1   N2    2.022581 S    
C3    C6    1.457157 S    
C22   C24   1.415667 A    
Cu2   N1    2.022580 S    
C4    C5    1.457076 S    
C30   N2    1.365128 A    
O6    C4    1.295691 A    
S6    O29   1.502848 D    
C16   C26   1.393984 A    
S3    O20   1.499458 D    
S8    O35   1.503239 D    
C9    H4    1.081343 S    
O7    C3    1.302579 A    
O3    Cu2   1.961231 S    
N4    O18   1.301556 A    
O4    C2    1.299234 A    
S4    O23   1.503266 D    
C33   H11   1.081996 S    
C12   C14   1.391684 A    
O1    Cu1   1.952607 S    
C21   S3    1.783655 S    
S7    O33   1.681791 S    
S3    O21   1.679025 S    
C18   N4    1.437210 S    
O6    Cu2   1.945315 S    
C28   C36   1.426812 A    
O21   H15   0.990250 S    
O3    C1    1.299534 A    
O8    Cu1   1.959980 S    
C32   S2    1.793324 S    
C10   H3    1.080108 S    
S4    O24   1.680916 S    
O36   H20   0.990455 S    
O11   H13   0.990983 S    
C11   C13   1.389511 A    
N3    O15   1.300368 A    
C19   C21   1.423664 A    
C27   S7    1.770487 S    
C20   C22   1.427327 A    
O27   H17   0.990499 S    
C6    C9    1.401162 A    
C15   C17   1.389846 A    
C18   C20   1.413467 A    
S6    O28   1.503142 D    
C7    C9    1.392202 A    
C34   H12   1.079660 S    
C24   S6    1.788000 S    
S1    O9    1.497382 D    
O2    Cu2   1.952604 S    
C34   C36   1.390115 A    
O5    Cu1   1.945316 S    
S4    O22   1.499654 D    
S5    O27   1.682891 S    
S5    O26   1.502420 D    
C2    C20   1.472893 S    
