data_mof_unit_31210.cif
_audit_creation_date              2012-12-10T18:05:12-0500
_audit_creation_method            fapswitch 2.2
_symmetry_space_group_name_H-M    P1
_symmetry_Int_Tables_number       1
_space_group_crystal_system       triclinic
_cell_length_a                    9.546852
_cell_length_b                    10.896488
_cell_length_c                    16.914258
_cell_angle_alpha                 89.312295
_cell_angle_beta                  93.329008
_cell_angle_gamma                 91.514124
_cell_volume                      1755.8631187

loop_
_atom_site_label
_atom_site_type_symbol
_atom_type_description
_atom_site_fract_x
_atom_site_fract_y
_atom_site_fract_z
_atom_type_partial_charge
C1    C     C_R   0.497929 0.262225 0.499072 0.811725
C2    C     C_R   0.501982 0.737852 0.499729 0.814715
C3    C     C_R   0.378050 0.930624 0.481102 -0.208375
C4    C     C_R   0.621954 0.069611 0.514022 -0.232638
C5    C     C_R   0.504864 0.871870 0.498238 -0.067294
C6    C     C_R   0.495110 0.128298 0.497914 -0.062031
C7    C     C_R   0.079348 0.453920 0.563060 -0.002019
C8    C     C_R   0.920614 0.545253 0.436677 0.029689
C9    C     C_R   0.930940 0.454392 0.563201 -0.031497
C10   C     C_R   0.069056 0.545237 0.436699 -0.017028
C11   C     C_R   0.516958 0.502614 0.651363 0.827765
C12   C     C_R   0.482985 0.496766 0.348842 0.820161
C13   C     C_R   0.527159 0.514255 0.738498 -0.146490
C14   C     C_R   0.472866 0.483875 0.262119 -0.137238
C15   C     C_R   0.427911 0.579761 0.779249 -0.098644
C16   C     C_R   0.566058 0.410075 0.222789 -0.088227
C17   C     C_R   0.444649 0.591669 0.862478 -0.099854
C18   C     C_R   0.552878 0.400663 0.139333 -0.108073
C19   C     C_R   0.554468 0.528797 0.904612 0.259496
C20   C     C_R   0.446794 0.466859 0.096335 0.263410
C21   C     C_R   0.658708 0.471690 0.863223 -0.042116
C22   C     C_R   0.345571 0.529094 0.136807 -0.036698
C23   C     C_R   0.643078 0.464537 0.780742 -0.256831
C24   C     C_R   0.361898 0.539561 0.219057 -0.261439
C25   C     C_R   0.371274 0.057528 0.481296 0.005371
C26   C     C_R   0.628811 0.942898 0.514117 -0.003552
Cu1   Cu    Cu3+1 0.640660 0.500020 0.500000 0.965250
Cu2   Cu    Cu3+1 0.359340 0.499980 0.500000 0.968451
H1    H     H_    0.721555 0.418645 0.748880 0.197074
H2    H     H_    0.286546 0.590720 0.250096 0.186163
H3    H     H_    0.282972 0.877566 0.467066 0.149947
H4    H     H_    0.717073 0.122693 0.527678 0.152991
H5    H     H_    0.138613 0.414992 0.613202 0.159420
H6    H     H_    0.861333 0.583043 0.386141 0.148968
H7    H     H_    0.879877 0.416285 0.613671 0.135389
H8    H     H_    0.120122 0.582974 0.386124 0.128237
N1    N     N_2   0.557651 0.517569 0.988384 -0.166096
N2    N     N_2   0.444268 0.476621 0.012585 -0.164821
N3    N     N_R   0.852070 0.500030 0.499980 -0.170095
N4    N     N_R   0.147930 0.499970 0.500020 -0.167580
O1    O     O_R   0.618740 0.319660 0.500000 -0.596804
O2    O     O_R   0.381260 0.680340 0.500000 -0.587524
O3    O     O_R   0.381170 0.319630 0.500010 -0.570088
O4    O     O_R   0.618830 0.680370 0.499990 -0.574021
O5    O     O_R   0.631780 0.498870 0.613920 -0.587272
O6    O     O_R   0.368220 0.501130 0.386080 -0.587781
O7    O     O_R   0.394210 0.498840 0.613930 -0.577813
O8    O     O_R   0.605790 0.501160 0.386070 -0.576658
C27   C     C_2   0.665495 0.332181 0.269507 0.896392
O9    O     O_2   0.787201 0.367385 0.282336 -0.584531
O10   O     O_R   0.618543 0.219180 0.299259 -0.779737
H9    H     H_    0.695697 0.172979 0.329448 0.320929
C28   C     C_2   0.310146 0.639145 0.734675 0.923578
O11   O     O_2   0.330524 0.734737 0.698066 -0.628123
O12   O     O_R   0.176614 0.583364 0.733648 -0.724141
H10   H     H_    0.104813 0.629372 0.699338 0.315229
C29   C     C_2   0.642860 0.316338 0.096992 0.927412
O13   O     O_2   0.592454 0.256664 0.041003 -0.559124
O14   O     O_R   0.784774 0.305194 0.120656 -0.705573
H11   H     H_    0.833976 0.245033 0.087133 0.350348
C30   C     C_2   0.356629 0.677314 0.905501 0.912461
O15   O     O_2   0.409133 0.735780 0.961503 -0.558953
O16   O     O_R   0.215231 0.692616 0.882165 -0.727639
H12   H     H_    0.168773 0.754664 0.915611 0.343119
C31   C     C_2   0.784998 0.418167 0.904612 0.910705
O17   O     O_2   0.824972 0.452522 0.970857 -0.561014
O18   O     O_R   0.861183 0.330488 0.866764 -0.755180
H13   H     H_    0.945646 0.302034 0.900540 0.355634
C32   C     C_2   0.221195 0.583116 0.094168 0.918295
O19   O     O_2   0.164928 0.671427 0.121593 -0.576571
O20   O     O_R   0.164814 0.530251 0.024046 -0.713668
H14   H     H_    0.078080 0.573327 0.001855 0.371921
C33   C     C_R   0.232229 0.110947 0.466582 0.114883
C34   C     C_R   0.188546 0.153639 0.390815 -0.121574
C35   C     C_R   0.055583 0.203291 0.377771 -0.110508
C36   C     C_R   0.966423 0.210298 0.440204 -0.111674
C37   C     C_R   0.010111 0.167685 0.515716 -0.150644
C38   C     C_R   0.142404 0.117775 0.528896 -0.104020
H15   H     H_    0.257366 0.148722 0.342306 0.151651
H16   H     H_    0.022079 0.236678 0.319409 0.187549
H17   H     H_    0.864354 0.250171 0.430425 0.169631
H18   H     H_    0.942916 0.174991 0.564620 0.126978
H19   H     H_    0.175302 0.085129 0.587637 0.142390
C39   C     C_R   0.768098 0.890883 0.530682 0.127331
C40   C     C_R   0.853782 0.869421 0.468047 -0.101533
C41   C     C_R   0.989900 0.828632 0.483735 -0.146064
C42   C     C_R   0.041321 0.809674 0.561902 -0.116053
C43   C     C_R   0.956804 0.832923 0.624553 -0.140173
C44   C     C_R   0.820162 0.873178 0.609074 -0.129464
H20   H     H_    0.815446 0.885196 0.407339 0.129925
H21   H     H_    0.054960 0.811554 0.435028 0.121754
H22   H     H_    0.146780 0.777846 0.573873 0.185099
H23   H     H_    0.997338 0.821090 0.685130 0.160666
H24   H     H_    0.755741 0.892192 0.657904 0.144455

loop_
_geom_bond_atom_site_label_1
_geom_bond_atom_site_label_2
_ccdc_geom_bond_type
Cu1   O8    S    
C42   C43   A    
Cu2   O7    S    
C5    C26   A    
C33   C34   A    
C11   O7    A    
C12   O8    A    
C37   C38   A    
Cu2   O6    S    
C23   H1    S    
C22   C24   A    
C19   C21   A    
C41   H21   S    
C40   C41   A    
C29   O14   S    
C6    C25   A    
Cu2   N4    S    
C9    N3    A    
C13   C23   A    
C10   N4    A    
C14   C24   A    
C44   H24   S    
C32   O20   S    
C19   N1    S    
C17   C30   S    
C38   H19   S    
C1    O3    A    
C2    O4    A    
C31   O18   S    
C33   C38   A    
C8    N3    A    
C35   H16   S    
C22   C32   S    
C18   C20   A    
Cu1   O5    S    
O14   H11   S    
C42   H22   S    
C7    H5    S    
C32   O19   D    
O18   H13   S    
Cu1   O4    S    
C36   C37   A    
C28   O12   S    
C34   C35   A    
C1    C6    S    
C3    C25   A    
C16   C27   S    
C4    C6    A    
Cu1   N3    S    
C41   C42   A    
C27   O10   S    
C28   O11   D    
O10   H9    S    
C12   O6    A    
C35   C36   A    
N1    N2    D    
C20   N2    S    
Cu1   O1    S    
C18   C29   S    
C7    N4    A    
O12   H10   S    
C30   O16   S    
C16   C18   A    
C8    H6    S    
C39   C40   A    
C3    H3    S    
C4    H4    S    
C1    O1    A    
C12   C14   S    
C31   O17   D    
C34   H15   S    
C21   C23   A    
C14   C16   A    
C11   O5    A    
C2    C5    S    
C39   C44   A    
C15   C28   S    
C15   C17   A    
C43   H23   S    
C26   C39   S    
C21   C31   S    
C20   C22   A    
C3    C5    A    
C36   H17   S    
C4    C26   A    
C40   H20   S    
Cu2   O3    S    
C13   C15   A    
O20   H14   S    
C11   C13   S    
C29   O13   D    
C37   H18   S    
C2    O2    A    
Cu2   O2    S    
C17   C19   A    
C25   C33   S    
C30   O15   D    
C24   H2    S    
O16   H12   S    
C7    C9    A    
C43   C44   A    
C8    C10   A    
C27   O9    D    
Cu1   Cu2   S    
C9    H7    S    
C10   H8    S    
