data_mof_unit_58795.cif
_audit_creation_date              2012-12-10T16:55:01-0500
_audit_creation_method            fapswitch 2.2
_symmetry_space_group_name_H-M    P1
_symmetry_Int_Tables_number       1
_space_group_crystal_system       triclinic
_cell_length_a                    7.848623
_cell_length_b                    8.57615
_cell_length_c                    15.732678
_cell_angle_alpha                 91.502272
_cell_angle_beta                  85.101993
_cell_angle_gamma                 93.43375
_cell_volume                      1052.98333195

loop_
_atom_site_label
_atom_site_type_symbol
_atom_type_description
_atom_site_fract_x
_atom_site_fract_y
_atom_site_fract_z
_atom_type_partial_charge
C1    C     C_R   0.545445 0.794122 0.501962 0.871012
C2    C     C_2   0.435153 0.042365 0.506517 -0.440508
C3    C     C_R   0.500771 0.499701 0.661294 0.894184
C4    C     C_R   0.455569 0.205980 0.505464 0.957337
C5    C     C_R   0.499291 0.500392 0.338692 0.854132
C6    C     C_3   0.366900 0.606530 0.957720 -0.485236
C7    C     C_3   0.686368 0.560078 0.942292 0.560287
C8    C     C_3   0.685493 0.552140 0.041827 0.210501
C9    C     C_1   0.498167 0.501133 0.250063 -0.122299
C10   C     C_3   0.505008 0.496575 0.916365 -0.163346
C11   C     C_3   0.366111 0.085809 0.105598 -0.230528
C12   C     C_3   0.381310 0.623580 0.055162 0.103124
C13   C     C_3   0.829845 0.332290 0.086666 -0.043658
C14   C     C_3   0.196516 0.265401 0.898989 -0.147852
C15   C     C_3   0.500788 0.497830 0.083262 -0.138027
C16   C     C_3   0.426487 0.334948 0.049694 0.265416
C17   C     C_3   0.470012 0.326224 0.951725 0.263700
C18   C     C_1   0.499163 0.500601 0.174809 0.132517
C19   C     C_1   0.503114 0.496353 0.824979 0.184991
C20   C     C_1   0.502290 0.497721 0.749841 -0.048594
C21   C     C_2   0.569646 0.956256 0.515954 0.223039
Cl1   Cl    Cl    0.174734 0.620205 0.113302 -0.580172
Cl2   Cl    Cl    0.768857 0.024383 0.554025 -0.487460
Cl3   Cl    Cl    0.960331 0.671914 0.596487 -0.343377
Cl4   Cl    Cl    0.855361 0.454746 0.887632 -0.601994
Cl5   Cl    Cl    0.733036 0.758946 0.908817 -0.538212
H1    H     H_    0.437659 0.742627 0.068623 0.144178
H2    H     H_    0.258388 0.124951 0.150071 0.159369
H3    H     H_    0.424351 0.990448 0.137083 0.192114
H4    H     H_    0.791871 0.260600 0.031367 0.178932
H5    H     H_    0.752626 0.304385 0.147122 0.189148
H6    H     H_    0.961376 0.300883 0.096883 0.149929
H7    H     H_    0.197577 0.353641 0.848779 0.205321
H8    H     H_    0.131492 0.306234 0.959755 0.160638
H9    H     H_    0.117839 0.162480 0.877458 0.229716
H10   H     H_    0.236187 0.562040 0.944875 0.265725
H11   H     H_    0.310945 0.991826 0.490837 0.190748
H12   H     H_    0.012959 0.382272 0.435387 0.167577
H13   H     H_    0.382841 0.724187 0.928995 0.247393
H14   H     H_    0.701444 0.675908 0.064120 0.168035
H15   H     H_    0.593685 0.270575 0.942656 0.198851
H16   H     H_    0.285509 0.335164 0.064184 0.151461
H17   H     H_    0.318272 0.038213 0.045101 0.219601
N1    N     N_2   0.950340 0.457950 0.477370 -0.095402
N2    N     N_2   0.049660 0.542050 0.522630 0.105511
O1    O     O_R   0.389240 0.738570 0.505550 -0.623318
O2    O     O_3   0.835415 0.493186 0.071427 -0.529423
O3    O     O_3   0.362722 0.218044 0.907159 -0.604888
O4    O     O_R   0.678400 0.711630 0.491050 -0.549071
O5    O     O_R   0.355360 0.513470 0.630110 -0.592594
O6    O     O_R   0.644510 0.486530 0.615610 -0.544372
O7    O     O_R   0.321600 0.288370 0.508950 -0.626483
O8    O     O_R   0.610760 0.261430 0.494450 -0.569757
O9    O     O_R   0.355490 0.513470 0.384390 -0.628072
O10   O     O_R   0.644640 0.486530 0.369890 -0.618944
O11   O     O_3   0.492516 0.208001 0.089955 -0.649053
Zn1   Zn    Zn3+2 0.306930 0.517990 0.509680 1.065581
Zn2   Zn    Zn3+2 0.693070 0.482010 0.490320 1.092570

loop_
_geom_bond_atom_site_label_1
_geom_bond_atom_site_label_2
_ccdc_geom_bond_type
C14   H8    S    
C15   C18   S    
C2    C4    S    
O8    Zn2   S    
C16   O11   S    
C6    C10   S    
C12   Cl1   S    
C4    O8    A    
C7    C10   S    
C9    C18   T    
C13   H6    S    
C19   C20   T    
C7    Cl4   S    
C12   C15   S    
C10   C19   S    
C17   O3    S    
C10   C17   S    
C2    C21   D    
C8    O2    S    
C7    C8    S    
O6    Zn2   S    
N1    N2    D    
C1    C21   S    
C2    H11   S    
N2    Zn1   S    
C5    C9    S    
C7    Cl5   S    
C11   H2    S    
C14   H7    S    
C5    O10   A    
Cl3   N2    S    
C3    O5    A    
C4    O7    A    
H12   N1    S    
C8    C15   S    
C21   Cl2   S    
O1    Zn1   S    
C6    C12   S    
C17   H15   S    
C1    O1    A    
O7    Zn1   S    
C11   O11   S    
C12   H1    S    
C15   C16   S    
C16   H16   S    
C5    O9    A    
C3    C20   S    
C13   H4    S    
C11   H3    S    
O10   Zn2   S    
N1    Zn2   S    
C14   H9    S    
C13   O2    S    
C3    O6    A    
C6    H13   S    
C14   O3    S    
C8    H14   S    
O5    Zn1   S    
C1    O4    A    
C11   H17   S    
C13   H5    S    
O4    Zn2   S    
C6    H10   S    
C16   C17   S    
O9    Zn1   S    
