data_mof_unit_58234.cif
_audit_creation_date              2013-03-05T15:45:55-0500
_audit_creation_method            fapswitch 2.2
_symmetry_space_group_name_H-M    P1
_symmetry_Int_Tables_number       1
_space_group_crystal_system       triclinic
_cell_length_a                    11.702992
_cell_length_b                    11.082366
_cell_length_c                    9.855957
_cell_angle_alpha                 111.001558
_cell_angle_beta                  98.804489
_cell_angle_gamma                 90.262476
_cell_volume                      1176.85850756

loop_
_atom_site_label
_atom_site_type_symbol
_atom_site_description
_atom_site_fract_x
_atom_site_fract_y
_atom_site_fract_z
_atom_type_partial_charge
O1    O     O_R   0.510560 0.332330 0.577400 -0.599531
O2    O     O_R   0.489440 0.667670 0.422600 -0.601272
O3    O     O_R   0.477140 0.295500 0.332650 -0.517144
O4    O     O_R   0.522860 0.704500 0.667350 -0.524842
C1    C     C_R   0.496591 0.254118 0.442182 0.776542
C2    C     C_R   0.511953 0.744677 0.558008 0.795396
O5    O     O_R   0.353910 0.518430 0.622380 -0.573534
O6    O     O_R   0.646090 0.481570 0.377620 -0.589388
O7    O     O_R   0.320490 0.481600 0.377630 -0.568383
O8    O     O_R   0.679510 0.518400 0.622370 -0.568244
C3    C     C_R   0.284054 0.500357 0.500547 0.832002
C4    C     C_R   0.715954 0.500014 0.499530 0.816428
Cu1   Cu    Cu3+1 0.519790 0.521810 0.644910 1.011950
Cu2   Cu    Cu3+1 0.480210 0.478190 0.355090 0.999763
C5    C     C_1   0.162491 0.500834 0.501311 -0.146976
C6    C     C_1   0.837508 0.500205 0.498872 -0.151330
C7    C     C_1   0.059953 0.500870 0.500721 0.011011
C8    C     C_1   0.940043 0.500548 0.499494 0.004939
C9    C     C_2   0.497508 0.115170 0.418347 -0.220307
C10   C     C_2   0.556080 0.873506 0.580380 -0.157307
C11   C     C_2   0.534589 0.077754 0.535246 -0.020762
C12   C     C_2   0.486163 0.954294 0.536419 -0.076276
H1    H     H_    0.430789 0.412805 0.842421 0.176434
H2    H     H_    0.569504 0.587101 0.158240 0.201528
N1    N     N_2   0.450460 0.445430 0.137370 -0.253408
N2    N     N_2   0.549540 0.554570 0.862630 -0.251049
C13   C     C_2   0.506673 0.512517 0.081747 -0.071812
C14   C     C_2   0.493055 0.488205 0.918800 -0.055409
C15   C     C_R   0.357065 0.932328 0.508860 0.065348
C16   C     C_R   0.291935 0.014023 0.609375 -0.134268
C17   C     C_R   0.171242 0.994841 0.585661 -0.113350
C18   C     C_R   0.114328 0.894802 0.460822 -0.100576
C19   C     C_R   0.177899 0.814657 0.358701 -0.135062
C20   C     C_R   0.298529 0.833700 0.381785 -0.098728
H3    H     H_    0.334212 0.092392 0.706368 0.135041
H4    H     H_    0.121817 0.057683 0.664105 0.137161
H5    H     H_    0.020940 0.879963 0.442571 0.136395
H6    H     H_    0.133635 0.738144 0.261070 0.152277
H7    H     H_    0.345483 0.772588 0.299204 0.188618
C21   C     C_R   0.618121 0.160894 0.669056 0.151988
C22   C     C_R   0.599878 0.175639 0.812001 -0.173205
C23   C     C_R   0.680066 0.249073 0.935252 -0.099074
C24   C     C_R   0.779426 0.308213 0.917527 -0.053101
C25   C     C_R   0.798952 0.293988 0.776481 -0.133771
C26   C     C_R   0.719330 0.220205 0.652808 -0.065496
H8    H     H_    0.524140 0.130041 0.828644 0.142115
H9    H     H_    0.665076 0.260160 0.044672 0.157483
H10   H     H_    0.841353 0.365036 0.013171 0.156085
H11   H     H_    0.876140 0.339630 0.762839 0.137865
H12   H     H_    0.736783 0.208583 0.544175 0.116759
C27   C     C_2   0.684684 0.890923 0.608085 0.840908
O9    O     O_2   0.740249 0.867619 0.710464 -0.556705
O10   O     O_R   0.742212 0.927243 0.512961 -0.753764
H13   H     H_    0.829497 0.934965 0.543215 0.319768
C28   C     C_2   0.448386 0.019736 0.270175 0.872574
O11   O     O_2   0.489424 0.914191 0.223815 -0.579148
O12   O     O_R   0.356718 0.051366 0.182821 -0.706283
H14   H     H_    0.331414 0.978713 0.084305 0.343627
C29   C     C_2   0.643687 0.644219 0.950660 1.051329
O13   O     O_2   0.651048 0.751266 0.942449 -0.525137
O14   O     O_R   0.731271 0.607488 0.038938 -0.817656
H15   H     H_    0.794029 0.679178 0.093720 0.328971
C30   C     C_2   0.353849 0.359614 0.049775 0.984828
O15   O     O_2   0.344407 0.251376 0.054098 -0.565274
O16   O     O_R   0.266663 0.401370 0.965877 -0.801210
H16   H     H_    0.202364 0.331701 0.910148 0.313646

loop_
_geom_bond_atom_site_label_1
_geom_bond_atom_site_label_2
_geom_bond_distance
_ccdc_geom_bond_type
C25   H11   1.082438 S    
O7    Cu2   1.914796 S    
C30   O16   1.399753 S    
H1    C14   1.082386 S    
C15   C16   1.405941 A    
C1    C9    1.472459 S    
C12   C15   1.496415 S    
O3    Cu2   1.955837 S    
N1    C13   1.297752 D    
C2    C10   1.444464 S    
N2    C29   1.425932 S    
N2    C14   1.297618 D    
C17   C18   1.396881 A    
H2    C13   1.081818 S    
O6    C4    1.294473 A    
C16   C17   1.398381 A    
C24   C25   1.396450 A    
C24   H10   1.082399 S    
C18   C19   1.396396 A    
O3    C1    1.306963 A    
C28   O11   1.223461 D    
C28   O12   1.397150 S    
C19   C20   1.397788 A    
C29   O13   1.221219 D    
O2    C2    1.285592 A    
O10   H13   1.013584 S    
O5    C3    1.294580 A    
C11   C21   1.506649 S    
O12   H14   1.013993 S    
O14   H15   1.013874 S    
C22   H8    1.080613 S    
O8    C4    1.292786 A    
C16   H3    1.081259 S    
O1    C1    1.287685 A    
C26   H12   1.083058 S    
C6    C8    1.199031 T    
C21   C22   1.408739 A    
C9    C11   1.370676 D    
C10   C12   1.354654 D    
C7    C8    1.401484 S    
C10   C27   1.486849 S    
C23   H9    1.082604 S    
O7    C3    1.292724 A    
Cu2   N1    2.017268 S    
N1    C30   1.425123 S    
C21   C26   1.409606 A    
O2    Cu2   1.959166 S    
Cu1   N2    2.017266 S    
C29   O14   1.399288 S    
O1    Cu1   1.959165 S    
C23   C24   1.396245 A    
C20   H7    1.080883 S    
C4    C6    1.423539 S    
O5    Cu1   1.918523 S    
C25   C26   1.397698 A    
O4    C2    1.295480 A    
O16   H16   1.014022 S    
C22   C23   1.397868 A    
C9    C28   1.487311 S    
O4    Cu1   1.955837 S    
C5    C7    1.199125 T    
C17   H4    1.082578 S    
C19   H6    1.082508 S    
O6    Cu2   1.918525 S    
C18   H5    1.082059 S    
Cu1   Cu2   2.685276 S    
C27   O10   1.398402 S    
C11   C12   1.483106 S    
C3    C5    1.423839 S    
C15   C20   1.407785 A    
C27   O9    1.222786 D    
C30   O15   1.220562 D    
C13   C14   1.512721 S    
O8    Cu1   1.914796 S    
