data_mof_unit_48482.cif
_audit_creation_date              2012-12-10T20:49:26-0500
_audit_creation_method            fapswitch 2.2
_symmetry_space_group_name_H-M    P1
_symmetry_Int_Tables_number       1
_space_group_crystal_system       triclinic
_cell_length_a                    15.726005
_cell_length_b                    8.977496
_cell_length_c                    8.115282
_cell_angle_alpha                 89.798775
_cell_angle_beta                  90.158008
_cell_angle_gamma                 91.354864
_cell_volume                      1145.38523026

loop_
_atom_site_label
_atom_site_type_symbol
_atom_type_description
_atom_site_fract_x
_atom_site_fract_y
_atom_site_fract_z
_atom_type_partial_charge
C1    C     C_1   0.499957 0.065096 0.500260 -0.185600
C2    C     C_3   0.985034 0.635747 0.555250 0.481284
C3    C     C_1   0.248611 0.481428 0.499425 -0.178668
C4    C     C_1   0.751389 0.518571 0.500575 -0.178670
C5    C     C_3   0.030966 0.515489 0.657143 -0.512428
C6    C     C_3   0.969034 0.484508 0.342861 -0.512432
C7    C     C_3   0.082621 0.479527 0.500726 -0.061920
C8    C     C_3   0.917379 0.520470 0.499278 -0.061928
C9    C     C_1   0.173341 0.473745 0.499698 0.050553
C10   C     C_1   0.826659 0.526253 0.500303 0.050535
C11   C     C_3   0.958548 0.140608 0.350215 0.140283
C12   C     C_1   0.500043 0.934904 0.499740 -0.185599
C13   C     C_3   0.975232 0.037798 0.206888 -0.851477
C14   C     C_3   0.041458 0.859388 0.649782 0.140289
C15   C     C_3   0.024781 0.962198 0.793112 -0.851485
C16   C     C_3   0.899134 0.349262 0.849206 0.089186
C17   C     C_3   0.829486 0.252530 0.927501 -0.816059
C18   C     C_3   0.100855 0.650739 0.150789 0.089176
C19   C     C_3   0.170513 0.747450 0.072495 -0.816077
C20   C     C_R   0.499875 0.217926 0.500183 0.933108
C21   C     C_R   0.500125 0.782073 0.499817 0.933109
C22   C     C_R   0.337420 0.495073 0.499775 0.895072
C23   C     C_R   0.662580 0.504927 0.500225 0.895074
C24   C     C_3   0.962985 0.400059 0.598436 0.425431
C25   C     C_3   0.037015 0.599938 0.401568 0.425431
C26   C     C_3   0.014966 0.364250 0.444754 0.481292
H1    H     H_    0.942666 0.472688 0.216442 0.162626
H2    H     H_    0.009387 0.894276 0.903976 0.253576
H3    H     H_    0.081856 0.033799 0.818250 0.225533
H4    H     H_    0.970159 0.033377 0.764481 0.306546
H5    H     H_    0.875276 0.465068 0.840806 0.158888
H6    H     H_    0.956238 0.348473 0.930322 0.145272
H7    H     H_    0.850263 0.135591 0.938109 0.258114
H8    H     H_    0.814910 0.294949 0.052422 0.208047
H9    H     H_    0.770944 0.255436 0.850769 0.265881
H10   H     H_    0.043749 0.651558 0.069681 0.145282
H11   H     H_    0.124698 0.534922 0.159170 0.158888
H12   H     H_    0.057334 0.527310 0.783562 0.162629
H13   H     H_    0.229060 0.744498 0.149206 0.265879
H14   H     H_    0.185072 0.705049 0.947559 0.208046
H15   H     H_    0.149756 0.864400 0.061922 0.258126
H16   H     H_    0.904301 0.211678 0.314120 0.135211
H17   H     H_    0.938561 0.072937 0.458655 0.211144
H18   H     H_    0.029862 0.966637 0.235519 0.306544
H19   H     H_    0.918163 0.966176 0.181756 0.225533
H20   H     H_    0.990617 0.105722 0.096020 0.253571
H21   H     H_    0.061443 0.927059 0.541341 0.211143
H22   H     H_    0.095705 0.788316 0.685870 0.135210
N1    N     N_1   0.500010 0.500000 0.073640 -0.031975
N2    N     N_1   0.499990 0.500000 0.926360 -0.031975
O1    O     O_R   0.500000 0.285340 0.636850 -0.615595
O2    O     O_3   0.965529 0.778892 0.611937 -0.613038
O3    O     O_3   0.919609 0.290626 0.693474 -0.628957
O4    O     O_3   0.080393 0.709369 0.306530 -0.628956
O5    O     O_R   0.500000 0.714660 0.363150 -0.615595
O6    O     O_R   0.500000 0.285340 0.363150 -0.614455
O7    O     O_R   0.500000 0.714660 0.636850 -0.614455
O8    O     O_R   0.376770 0.500000 0.636850 -0.616232
O9    O     O_R   0.623230 0.500000 0.363150 -0.616233
O10   O     O_R   0.376780 0.500000 0.363100 -0.614545
O11   O     O_R   0.623220 0.500000 0.636900 -0.614545
O12   O     O_3   0.034474 0.221107 0.388068 -0.613042
Zn1   Zn    Zn3+2 0.499990 0.500000 0.682780 0.995214
Zn2   Zn    Zn3+2 0.500010 0.500000 0.317220 0.995213

loop_
_geom_bond_atom_site_label_1
_geom_bond_atom_site_label_2
_ccdc_geom_bond_type
C22   O8    A    
C13   H19   S    
O6    Zn2   S    
C11   H17   S    
C14   H21   S    
C3    C9    T    
C20   O1    A    
C11   C13   S    
C6    H1    S    
C7    C25   S    
C2    O2    S    
C20   O6    A    
O10   Zn2   S    
C11   O12   S    
O5    Zn2   S    
C5    C24   S    
C15   H2    S    
N1    Zn2   S    
C5    H12   S    
C16   H5    S    
C21   O7    A    
N2    Zn1   S    
C1    C12   T    
O9    Zn2   S    
C6    C26   S    
C7    C26   S    
C17   H7    S    
C15   H4    S    
C19   H13   S    
C8    C10   S    
C8    C24   S    
C18   H11   S    
C24   C26   S    
C15   H3    S    
C2    C25   S    
C5    C7    S    
C26   O12   S    
C13   H20   S    
N1    N2    T    
C2    C8    S    
C2    C5    S    
C16   H6    S    
C17   H8    S    
C18   O4    S    
C4    C10   T    
C6    C25   S    
C7    C9    S    
C23   O11   A    
O1    Zn1   S    
C25   O4    S    
C11   H16   S    
O11   Zn1   S    
C18   C19   S    
C19   H14   S    
O8    Zn1   S    
C21   O5    A    
C4    C23   S    
C14   H22   S    
C14   C15   S    
C1    C20   S    
C6    C8    S    
C17   H9    S    
C23   O9    A    
C22   O10   A    
C24   O3    S    
C16   O3    S    
C18   H10   S    
C12   C21   S    
C13   H18   S    
C14   O2    S    
C19   H15   S    
O7    Zn1   S    
C16   C17   S    
C3    C22   S    
