data_mof_unit_34012.cif
_audit_creation_date              2013-03-05T16:19:41-0500
_audit_creation_method            fapswitch 2.2
_symmetry_space_group_name_H-M    P1
_symmetry_Int_Tables_number       1
_space_group_crystal_system       triclinic
_cell_length_a                    10.666163
_cell_length_b                    9.728825
_cell_length_c                    27.747
_cell_angle_alpha                 89.209052
_cell_angle_beta                  89.223796
_cell_angle_gamma                 89.99632
_cell_volume                      2878.74635941

loop_
_atom_site_label
_atom_site_type_symbol
_atom_site_description
_atom_site_fract_x
_atom_site_fract_y
_atom_site_fract_z
_atom_type_partial_charge
O1    O     O_R   0.314910 0.616040 0.499990 -0.626878
O2    O     O_R   0.314910 0.383960 0.499990 -0.618548
C1    C     C_R   0.257693 0.499737 0.500821 0.895271
O3    O     O_R   0.500140 0.616020 0.428740 -0.584314
O4    O     O_R   0.500140 0.383980 0.428740 -0.590940
C2    C     C_R   0.498102 0.500739 0.405980 1.000563
Zn1   Zn    Zn3+2 0.500150 0.654960 0.499980 0.982005
Zn2   Zn    Zn3+2 0.500150 0.345040 0.499980 1.001032
O5    O     O_R   0.685320 0.616040 0.499970 -0.620698
O6    O     O_R   0.685320 0.383960 0.499970 -0.605733
O7    O     O_R   0.500090 0.616050 0.571230 -0.648079
O8    O     O_R   0.500090 0.383950 0.571230 -0.600481
C3    C     C_R   0.742261 0.499789 0.502128 0.898343
C4    C     C_R   0.502200 0.499134 0.594017 0.905997
C5    C     C_R   0.378858 0.567833 0.178348 0.629443
O9    O     O_2   0.285743 0.625014 0.204618 -0.439786
N1    N     N_R   0.472132 0.497596 0.201428 -0.349849
C6    C     C_R   0.560897 0.424704 0.176741 0.590394
C7    C     C_R   0.459985 0.379239 0.279259 -0.080845
C8    C     C_R   0.467317 0.378939 0.329102 -0.067109
C9    C     C_R   0.502797 0.625016 0.327075 -0.193190
C10   C     C_R   0.500922 0.625928 0.276760 0.354580
C11   C     C_R   0.478057 0.501350 0.252829 0.145269
C12   C     C_R   0.468806 0.500205 0.101784 -0.085112
C13   C     C_R   0.379186 0.577888 0.127672 -0.141839
C14   C     C_R   0.294264 0.662220 0.101898 0.330648
C15   C     C_R   0.559168 0.421846 0.126554 -0.017804
C16   C     C_R   0.489819 0.501679 0.353367 -0.111287
H1    H     H_    0.517388 0.720490 0.345454 0.239782
C17   C     C_R   0.500782 0.498321 0.646877 -0.174931
C18   C     C_R   0.361977 0.548322 0.975456 -0.066095
C19   C     C_R   0.577636 0.458235 0.975034 -0.045586
C20   C     C_R   0.470002 0.504108 0.949838 0.032746
C21   C     C_R   0.248988 0.570625 0.949968 0.165318
C22   C     C_R   0.249332 0.568677 0.899291 0.258233
C23   C     C_R   0.360962 0.538327 0.873366 -0.176713
C24   C     C_R   0.470954 0.505917 0.898998 -0.083588
C25   C     C_R   0.582671 0.475044 0.873781 -0.063950
C26   C     C_R   0.584235 0.479585 0.823561 0.561599
N2    N     N_R   0.476513 0.505441 0.799042 -0.351929
C27   C     C_R   0.365973 0.533366 0.822486 0.578383
C28   C     C_R   0.449276 0.618760 0.720476 -0.058207
C29   C     C_R   0.457882 0.616549 0.670561 -0.250165
C30   C     C_R   0.536581 0.381182 0.674304 0.302178
C31   C     C_R   0.521207 0.382779 0.724304 -0.138762
C32   C     C_R   0.480055 0.501664 0.747483 0.211036
O10   O     O_2   0.261748 0.554024 0.796386 -0.478946
C33   C     C_R   0.371490 0.567125 0.025898 0.030362
C34   C     C_R   0.468759 0.500797 0.050946 0.098749
C35   C     C_R   0.566570 0.435385 0.025338 0.069099
C36   C     C_R   0.291059 0.655000 0.051688 -0.174441
H2    H     H_    0.430347 0.707696 0.650485 0.181601
H3    H     H_    0.418903 0.711699 0.738220 0.177530
H4    H     H_    0.229366 0.724915 0.032860 0.207792
O11   O     O_2   0.651259 0.356330 0.200831 -0.487097
C37   C     C_R   0.645472 0.342202 0.100739 -0.065155
H5    H     H_    0.441138 0.284014 0.260932 0.200958
C38   C     C_R   0.691753 0.438671 0.949030 0.244371
C39   C     C_R   0.691957 0.444333 0.898914 -0.128922
O12   O     O_2   0.692978 0.458893 0.799210 -0.508324
C40   C     C_R   0.648031 0.347499 0.050750 -0.115590
H6    H     H_    0.713404 0.280849 0.032305 0.188117
C41   C     C_3   0.071111 0.617005 0.532863 -0.406323
C42   C     C_3   0.071491 0.362585 0.524175 -0.431808
H7    H     H_    0.105922 0.719497 0.520916 0.231925
H8    H     H_    0.108321 0.270202 0.505506 0.225851
H9    H     H_    0.105674 0.602529 0.570301 0.177007
H10   H     H_    0.102776 0.354243 0.562244 0.188104
C43   C     C_3   0.927721 0.616888 0.533989 -0.380495
C44   C     C_3   0.928390 0.360563 0.522832 -0.351963
H11   H     H_    0.892990 0.602925 0.571768 0.186000
H12   H     H_    0.890199 0.341992 0.559875 0.214699
H13   H     H_    0.893763 0.718597 0.520927 0.232031
H14   H     H_    0.898288 0.273446 0.500298 0.246542
H15   H     H_    0.895431 0.624602 0.436865 0.243545
H16   H     H_    0.878313 0.450302 0.425207 0.226164
C45   C     C_3   0.071941 0.509427 0.446866 0.472901
C46   C     C_3   0.121165 0.498578 0.500438 -0.028216
C47   C     C_3   0.878590 0.499347 0.502234 0.036021
C48   C     C_3   0.926225 0.521768 0.449752 -0.408136
C49   C     C_3   0.400230 0.082351 0.467595 -0.213103
C50   C     C_3   0.408378 0.921122 0.464184 -0.215177
H17   H     H_    0.306269 0.110367 0.482427 0.172887
H18   H     H_    0.313912 0.876796 0.471569 0.199427
C51   C     C_3   0.624167 0.083302 0.483464 0.186252
C52   C     C_3   0.627837 0.921318 0.488493 0.201537
C53   C     C_3   0.472260 0.079203 0.547797 -0.332907
C54   C     C_3   0.462149 0.916963 0.546914 -0.352088
N3    N     N_3   0.499750 0.138610 0.498940 -0.131686
N4    N     N_3   0.499750 0.861390 0.498940 -0.115581
H19   H     H_    0.547256 0.108791 0.572956 0.232472
H20   H     H_    0.522599 0.872942 0.575557 0.195380
H21   H     H_    0.383742 0.123460 0.562514 0.190887
H22   H     H_    0.364652 0.884507 0.556296 0.182323
H23   H     H_    0.712070 0.276333 0.119032 0.215837
N5    N     N_R   0.810685 0.432204 0.972502 0.217128
O13   O     O_R   0.836423 0.519044 0.006231 -0.270558
O14   O     O_R   0.898873 0.352420 0.956063 -0.295742
N6    N     N_R   0.596169 0.264387 0.652763 0.203938
O15   O     O_R   0.572826 0.141376 0.669600 -0.408060
O16   O     O_R   0.691721 0.282503 0.623705 -0.423559
H24   H     H_    0.779739 0.428756 0.879648 0.251000
H25   H     H_    0.547186 0.293427 0.745661 0.195004
N7    N     N_R   0.524887 0.752357 0.250649 0.241924
O17   O     O_R   0.497652 0.869829 0.270099 -0.291676
O18   O     O_R   0.586235 0.751894 0.209793 -0.327989
N8    N     N_R   0.122929 0.632564 0.421256 0.193530
O19   O     O_R   0.096076 0.755624 0.436011 -0.376506
O20   O     O_R   0.183257 0.621233 0.380396 -0.300214
N9    N     N_R   0.109453 0.383977 0.420113 0.204259
O21   O     O_R   0.226034 0.364978 0.407511 -0.389354
O22   O     O_R   0.030707 0.284653 0.412425 -0.313269
H26   H     H_    0.402175 0.131675 0.431437 0.230705
H27   H     H_    0.431441 0.891757 0.426746 0.233527
N10   N     N_R   0.661578 0.133681 0.434931 0.260217
O23   O     O_R   0.600747 0.099332 0.396619 -0.346450
O24   O     O_R   0.766415 0.200302 0.429172 -0.330849
N11   N     N_R   0.695468 0.858385 0.447965 0.246938
O25   O     O_R   0.639833 0.829294 0.408131 -0.344321
O26   O     O_R   0.817201 0.866680 0.447085 -0.351457
H28   H     H_    0.695312 0.122787 0.508870 0.089604
H29   H     H_    0.686774 0.897837 0.520548 0.056853
N12   N     N_R   0.215948 0.761702 0.125328 0.253002
O27   O     O_R   0.099667 0.775850 0.112559 -0.277483
O28   O     O_R   0.266718 0.856109 0.151514 -0.270534
N13   N     N_R   0.133896 0.592757 0.874785 0.280523
O29   O     O_R   0.050867 0.495287 0.872334 -0.281054
O30   O     O_R   0.107234 0.715434 0.858738 -0.285820
N14   N     N_R   0.130527 0.576703 0.975101 0.234744
O31   O     O_R   0.050891 0.674399 0.965593 -0.271939
O32   O     O_R   0.102307 0.484110 0.007772 -0.273608
H30   H     H_    0.453927 0.282812 0.348588 0.216723

loop_
_geom_bond_atom_site_label_1
_geom_bond_atom_site_label_2
_geom_bond_distance
_ccdc_geom_bond_type
C37   H23   1.083324 S    
C53   C54   1.582644 S    
C41   H7    1.108872 S    
N13   O29   1.300639 A    
C53   H19   1.109400 S    
C54   H22   1.113263 S    
C7    C8    1.386229 A    
C12   C15   1.409220 A    
C19   C38   1.420685 A    
N7    O18   1.301299 A    
C49   C50   1.575055 S    
N12   O27   1.301260 A    
C45   C46   1.585304 S    
C7    H5    1.083091 S    
Zn1   O7    2.007745 S    
N1    C11   1.429454 S    
C42   H10   1.113953 S    
C23   C24   1.413505 A    
C4    C17   1.466489 S    
C28   H3    1.082981 S    
C51   C52   1.580689 S    
O4    C2    1.292360 A    
C30   N6    1.435513 S    
C29   H2    1.083356 S    
C5    C13   1.408107 A    
C5    O9    1.348586 S    
C10   N7    1.439982 S    
C3    C47   1.454156 S    
Zn1   O5    2.010995 S    
C21   C22   1.406476 A    
C28   C32   1.396472 A    
C43   H11   1.113575 S    
C38   N5    1.434772 S    
N11   O25   1.296257 A    
O5    C3    1.284759 A    
C31   H25   1.083427 S    
N9    O21   1.301016 A    
C33   C36   1.406795 A    
C2    C16   1.463613 S    
C41   C43   1.529316 S    
C21   N14   1.436519 S    
N10   O24   1.299389 A    
N5    O14   1.301301 A    
C44   H14   1.110167 S    
N8    O19   1.301283 A    
C18   C20   1.415659 A    
C43   H13   1.111426 S    
C42   C44   1.527432 S    
H15   C48   1.109016 S    
C49   N3    1.490295 S    
C9    C10   1.396421 A    
N8    O20   1.302016 A    
C17   C30   1.416886 A    
C23   C27   1.413554 A    
C40   H6    1.080753 S    
C8    H30   1.082266 S    
O3    Zn1   2.017803 S    
N7    O17   1.301740 A    
C49   H17   1.113529 S    
N11   O26   1.300812 A    
C10   C11   1.412790 A    
C41   H9    1.114068 S    
C54   H20   1.111417 S    
C45   N8    1.483904 S    
C12   C13   1.413227 A    
C50   H27   1.105652 S    
O3    C2    1.295021 A    
C52   N4    1.508356 S    
C26   N2    1.364806 A    
C51   N3    1.491922 S    
C15   C37   1.399359 A    
C8    C16   1.401223 A    
C38   C39   1.390871 A    
C31   C32   1.398887 A    
Zn1   N4    2.008136 S    
C9    H1    1.078087 S    
C20   C24   1.410418 A    
C47   C48   1.548376 S    
O1    C1    1.285394 A    
C22   C23   1.415949 A    
C42   H8    1.112538 S    
C22   N13   1.432312 S    
C7    C11   1.399449 A    
C52   H29   1.117117 S    
C24   C25   1.408143 A    
N6    O15   1.301508 A    
C51   N10   1.476527 S    
Zn2   O8    2.018010 S    
N5    O13   1.301472 A    
N1    C6    1.365367 A    
C27   O10   1.348499 S    
C18   C21   1.420723 A    
C52   N11   1.468588 S    
C51   H28   1.114612 S    
C19   C35   1.413694 A    
C6    O11   1.350290 S    
N2    C27   1.367888 A    
N6    O16   1.301416 A    
C9    C16   1.401541 A    
C54   N4    1.493465 S    
C50   H18   1.111408 S    
C18   C33   1.419024 A    
C53   N3    1.491773 S    
C17   C29   1.406019 A    
C43   C47   1.548883 S    
C28   C29   1.387246 A    
N2    C32   1.431593 S    
C30   C31   1.395089 A    
N14   O31   1.301360 A    
C45   C48   1.559918 S    
C12   C34   1.410530 A    
C5    N1    1.368175 A    
C33   C34   1.408149 A    
N13   O30   1.300874 A    
C44   C47   1.555219 S    
O1    Zn1   2.011774 S    
C39   H24   1.083532 S    
C42   C46   1.559333 S    
O2    Zn2   2.011728 S    
C6    C15   1.393574 A    
H16   C48   1.109486 S    
O8    C4    1.294597 A    
O6    C3    1.282672 A    
O4    Zn2   2.007531 S    
C50   N4    1.492472 S    
C36   H4    1.080748 S    
C19   C20   1.420907 A    
O2    C1    1.281384 A    
C13   C14   1.416444 A    
C14   C36   1.396798 A    
C25   C26   1.393413 A    
C26   O12   1.350874 S    
C53   H21   1.112609 S    
O7    C4    1.294072 A    
C45   N9    1.489158 S    
N9    O22   1.302059 A    
N12   O28   1.301495 A    
C25   C39   1.396633 A    
Zn2   O6    2.011041 S    
C34   C35   1.410889 A    
C14   N12   1.435168 S    
C49   H26   1.106093 S    
C35   C40   1.408206 A    
C37   C40   1.387201 A    
C44   H12   1.112888 S    
Zn2   N3    2.008933 S    
C1    C46   1.456461 S    
N10   O23   1.300482 A    
N14   O32   1.301507 A    
C41   C46   1.561250 S    
