data_mof_unit_20651.cif
_audit_creation_date              2013-03-05T15:42:51-0500
_audit_creation_method            fapswitch 2.2
_symmetry_space_group_name_H-M    P1
_symmetry_Int_Tables_number       1
_space_group_crystal_system       triclinic
_cell_length_a                    15.030166
_cell_length_b                    15.19007
_cell_length_c                    10.101098
_cell_angle_alpha                 89.701158
_cell_angle_beta                  89.65372
_cell_angle_gamma                 89.829195
_cell_volume                      2306.09082865

loop_
_atom_site_label
_atom_site_type_symbol
_atom_site_description
_atom_site_fract_x
_atom_site_fract_y
_atom_site_fract_z
_atom_type_partial_charge
O1    O     O_R   0.409520 0.909540 0.613040 -0.659130
O2    O     O_R   0.409520 0.090460 0.613040 -0.623567
O3    O     O_R   0.909520 0.409540 0.613040 -0.659264
O4    O     O_R   0.909520 0.590460 0.613040 -0.623452
O5    O     O_R   0.409560 0.909540 0.386900 -0.630898
O6    O     O_R   0.409560 0.090460 0.386900 -0.594459
O7    O     O_R   0.909560 0.409540 0.386900 -0.630749
O8    O     O_R   0.909560 0.590460 0.386900 -0.594372
C1    C     C_R   0.378336 0.884493 0.500597 0.951124
C2    C     C_R   0.381181 0.118420 0.499796 0.957684
C3    C     C_R   0.878361 0.384468 0.500590 0.951387
C4    C     C_R   0.881177 0.618417 0.499804 0.958013
Zn1   Zn    Zn3+2 0.499970 0.000000 0.650990 0.949194
Zn2   Zn    Zn3+2 0.999970 0.500000 0.650990 0.949211
Zn3   Zn    Zn3+2 0.500030 0.000000 0.349010 0.963437
Zn4   Zn    Zn3+2 0.000030 0.500000 0.349010 0.962927
O9    O     O_R   0.590440 0.090460 0.613100 -0.616129
O10   O     O_R   0.590440 0.909540 0.613100 -0.643699
O11   O     O_R   0.090440 0.590460 0.613100 -0.616144
O12   O     O_R   0.090440 0.409540 0.613100 -0.643643
O13   O     O_R   0.590480 0.090460 0.386960 -0.587710
O14   O     O_R   0.590480 0.909540 0.386960 -0.571124
O15   O     O_R   0.090480 0.590460 0.386960 -0.588180
O16   O     O_R   0.090480 0.409540 0.386960 -0.571956
C5    C     C_R   0.617464 0.119821 0.499027 0.960653
C6    C     C_R   0.614232 0.877194 0.500129 0.947003
C7    C     C_R   0.117464 0.619822 0.499031 0.960911
C8    C     C_R   0.114220 0.377188 0.500142 0.947113
C9    C     C_2   0.687630 0.753168 0.393534 0.544095
C10   C     C_2   0.689644 0.243103 0.393393 0.527327
C11   C     C_2   0.187432 0.252999 0.393732 0.544065
C12   C     C_2   0.189263 0.743425 0.393719 0.527325
C13   C     C_2   0.666785 0.798732 0.502827 -0.440897
C14   C     C_2   0.684784 0.185234 0.494456 -0.433854
C15   C     C_2   0.166844 0.298782 0.502910 -0.440580
C16   C     C_2   0.184734 0.685289 0.494459 -0.433585
H1    H     H_    0.688125 0.777278 0.600420 0.126479
H2    H     H_    0.734807 0.180514 0.571178 0.114041
H3    H     H_    0.188437 0.277565 0.600484 0.126424
H4    H     H_    0.234969 0.680397 0.570843 0.113785
C17   C     C_2   0.250244 0.180265 0.408361 -0.282802
C18   C     C_2   0.263315 0.805006 0.390806 -0.269939
C19   C     C_2   0.750312 0.680333 0.408274 -0.283059
C20   C     C_2   0.763734 0.304612 0.390620 -0.269821
C21   C     C_2   0.315301 0.185015 0.497446 -0.384707
C22   C     C_2   0.301231 0.830388 0.503257 -0.395265
C23   C     C_2   0.815293 0.685014 0.497480 -0.384742
C24   C     C_2   0.801294 0.330325 0.503170 -0.395305
H5    H     H_    0.245720 0.124412 0.341840 0.165740
H6    H     H_    0.287843 0.828310 0.295779 0.165836
H7    H     H_    0.745802 0.624500 0.341716 0.165688
H8    H     H_    0.788580 0.327600 0.295599 0.165975
H9    H     H_    0.323707 0.239731 0.564765 0.141278
H10   H     H_    0.273631 0.814149 0.599917 0.157964
H11   H     H_    0.823634 0.739697 0.564888 0.141293
H12   H     H_    0.773442 0.314336 0.599768 0.157964
C25   C     C_2   0.572128 0.992125 0.924335 0.026308
C26   C     C_2   0.072155 0.492435 0.924330 0.027053
N1    N     N_2   0.501330 0.000000 0.852150 0.046963
N2    N     N_2   0.001330 0.500000 0.852150 0.046860
H13   H     H_    0.634298 0.972639 0.877820 0.079541
H14   H     H_    0.134410 0.473210 0.877823 0.079472
C27   C     C_2   0.571240 0.010757 0.072294 0.023252
C28   C     C_2   0.071163 0.511136 0.072261 0.022529
N3    N     N_2   0.501360 0.000000 0.147810 -0.034056
N4    N     N_2   0.001360 0.500000 0.147810 -0.034352
H15   H     H_    0.631791 0.035472 0.116195 0.071711
H16   H     H_    0.131551 0.536274 0.116098 0.071971
O17   O     O_3   0.645338 0.771165 0.273720 -0.631027
C29   C     C_3   0.705305 0.770669 0.165029 0.093688
H17   H     H_    0.664890 0.775313 0.073477 0.159857
H18   H     H_    0.742891 0.708000 0.157719 0.129132
C30   C     C_3   0.768780 0.849726 0.167900 -0.357098
H19   H     H_    0.729526 0.911524 0.175587 0.224276
H20   H     H_    0.812885 0.844933 0.255562 0.223498
C31   C     C_3   0.826663 0.853428 0.043324 -0.968160
H21   H     H_    0.868513 0.793208 0.035986 0.278449
H22   H     H_    0.871082 0.911617 0.047630 0.266268
H23   H     H_    0.784460 0.859208 0.953733 0.256308
O18   O     O_3   0.621579 0.249099 0.300533 -0.620033
C32   C     C_3   0.654654 0.242865 0.169235 0.113380
H24   H     H_    0.612870 0.194387 0.116541 0.172760
H25   H     H_    0.724388 0.217659 0.161963 0.101580
C33   C     C_3   0.645081 0.331473 0.097544 -0.350676
H26   H     H_    0.573460 0.349649 0.092628 0.236824
H27   H     H_    0.680197 0.383827 0.152741 0.212636
C34   C     C_3   0.683109 0.326923 0.957215 -0.992327
H28   H     H_    0.755631 0.312701 0.960139 0.256147
H29   H     H_    0.672915 0.390944 0.906124 0.265063
H30   H     H_    0.649107 0.274828 0.899795 0.280473
O19   O     O_3   0.144603 0.270519 0.274222 -0.631376
C35   C     C_3   0.204274 0.270493 0.165173 0.093564
H31   H     H_    0.163549 0.274638 0.073888 0.160457
H32   H     H_    0.242500 0.208206 0.157756 0.128953
C36   C     C_3   0.266948 0.350169 0.167548 -0.357048
H33   H     H_    0.227148 0.411514 0.176792 0.225504
H34   H     H_    0.311918 0.345388 0.254222 0.222963
C37   C     C_3   0.323561 0.355101 0.041792 -0.969505
H35   H     H_    0.366010 0.295395 0.032874 0.278046
H36   H     H_    0.367340 0.413767 0.045792 0.266467
H37   H     H_    0.280434 0.360843 0.953188 0.256271
O20   O     O_3   0.120901 0.749598 0.301381 -0.620268
C38   C     C_3   0.153555 0.743649 0.169827 0.113384
H38   H     H_    0.111688 0.695177 0.117256 0.172838
H39   H     H_    0.223318 0.718604 0.161935 0.101550
C39   C     C_3   0.143567 0.832368 0.098589 -0.350918
H40   H     H_    0.071898 0.850451 0.094383 0.236792
H41   H     H_    0.178840 0.884661 0.153700 0.212727
C40   C     C_3   0.181040 0.828128 0.957912 -0.991696
H42   H     H_    0.253597 0.814015 0.960132 0.255993
H43   H     H_    0.170536 0.892225 0.907179 0.265199
H44   H     H_    0.146887 0.776082 0.900587 0.280492
O21   O     O_3   0.442564 0.058035 0.905396 -0.556641
C41   C     C_3   0.354645 0.034276 0.872442 0.217249
H45   H     H_    0.326364 0.991001 0.950353 0.094785
H46   H     H_    0.349278 0.997973 0.778941 0.184799
C42   C     C_3   0.297544 0.117771 0.867107 -0.353693
H47   H     H_    0.294841 0.147117 0.967147 0.206980
H48   H     H_    0.328242 0.167098 0.799677 0.245269
C43   C     C_3   0.203098 0.098766 0.821115 -0.996904
H49   H     H_    0.204221 0.068960 0.720902 0.275405
H50   H     H_    0.164644 0.161240 0.816604 0.267330
H51   H     H_    0.169400 0.053435 0.891737 0.264587
O22   O     O_3   0.942377 0.557874 0.905342 -0.556709
C44   C     C_3   0.854543 0.533851 0.872368 0.216892
H52   H     H_    0.826428 0.490395 0.950182 0.095036
H53   H     H_    0.849291 0.497669 0.778777 0.185155
C45   C     C_3   0.797158 0.617152 0.867156 -0.354279
H54   H     H_    0.794284 0.646374 0.967263 0.206979
H55   H     H_    0.827732 0.666649 0.799881 0.245356
C46   C     C_3   0.702813 0.597873 0.820963 -0.996819
H56   H     H_    0.704115 0.568274 0.720613 0.275283
H57   H     H_    0.664116 0.660205 0.816680 0.267378
H58   H     H_    0.669250 0.552268 0.891327 0.264749
C47   C     C_3   0.446311 0.923500 0.118276 -0.515566
H59   H     H_    0.472026 0.865808 0.174158 0.226435
H60   H     H_    0.376840 0.936956 0.149887 0.187105
H61   H     H_    0.445103 0.901613 0.014449 0.151028
C48   C     C_3   0.946626 0.423290 0.118245 -0.515862
H62   H     H_    0.945616 0.401329 0.014446 0.151134
H63   H     H_    0.972477 0.365742 0.174306 0.226786
H64   H     H_    0.877078 0.436515 0.149662 0.187192

loop_
_geom_bond_atom_site_label_1
_geom_bond_atom_site_label_2
_geom_bond_distance
_ccdc_geom_bond_type
C26   H14   1.084429 S    
C47   H61   1.102122 S    
C34   H28   1.111121 S    
C27   N3    1.304509 D    
C30   H19   1.110049 S    
C36   H33   1.109857 S    
O10   C6    1.292800 A    
C33   C34   1.526996 S    
C46   H58   1.110025 S    
C45   H54   1.106993 S    
C41   H45   1.106512 S    
C36   C37   1.526296 S    
C47   H59   1.109717 S    
O7    C3    1.293726 A    
Zn1   O10   1.967657 S    
C12   C16   1.345395 D    
C33   H27   1.110207 S    
C40   H43   1.109229 S    
C48   H64   1.108675 S    
C25   N1    1.298452 D    
C39   H40   1.111882 S    
C26   N2    1.298358 D    
Zn3   N3    2.032318 S    
C9    C13   1.341066 D    
C47   H60   1.108772 S    
C18   C22   1.333164 D    
N2    O22   1.356900 S    
O2    Zn1   1.967975 S    
O6    Zn3   1.967656 S    
Zn3   O14   1.967978 S    
N4    C48   1.461517 S    
C8    C15   1.427990 S    
C44   C45   1.530086 S    
C31   H23   1.111219 S    
C25   C27   1.522535 S    
C29   H17   1.111320 S    
O15   C7    1.287175 A    
O4    C4    1.292237 A    
O11   C7    1.296762 A    
C43   H51   1.110026 S    
N1    O21   1.356886 S    
C5    C14   1.420627 S    
C10   O18   1.394588 S    
C20   H8    1.084241 S    
C21   H9    1.084773 S    
C1    C22   1.422781 S    
Zn4   O16   1.967978 S    
C9    C19   1.458627 S    
C30   H20   1.111284 S    
C10   C20   1.455809 S    
C3    C24   1.422647 S    
O20   C38   1.417020 S    
C29   C30   1.536445 S    
C4    C23   1.413698 S    
C17   H5    1.087547 S    
C32   H25   1.116919 S    
C43   H50   1.110534 S    
C32   H24   1.109448 S    
C9    O17   1.395815 S    
C26   C28   1.522463 S    
C27   H15   1.083740 S    
C10   C14   1.345462 D    
Zn2   O12   1.967657 S    
C16   H4    1.084913 S    
O1    C1    1.290923 A    
C31   H21   1.111135 S    
C42   C43   1.525140 S    
O19   C35   1.416251 S    
O12   C8    1.292673 A    
C35   C36   1.536258 S    
C13   H1    1.086613 S    
C28   N4    1.304507 D    
C15   H3    1.086529 S    
O5    C1    1.293820 A    
C6    C13   1.428087 S    
O8    C4    1.288819 A    
C22   H10   1.086020 S    
C2    C21   1.413654 S    
C35   H32   1.108087 S    
C38   H39   1.116908 S    
C33   H26   1.111861 S    
N3    C47   1.461592 S    
O3    Zn2   1.976410 S    
C18   H6    1.084215 S    
O7    Zn4   1.970529 S    
Zn4   O15   1.976411 S    
C37   H36   1.110377 S    
C34   H29   1.109217 S    
C44   H52   1.106492 S    
C30   C31   1.526382 S    
C11   C15   1.340966 D    
C40   H44   1.111122 S    
O1    Zn1   1.976410 S    
C46   H56   1.111064 S    
O2    C2    1.292296 A    
C45   C46   1.525178 S    
C28   H16   1.083689 S    
C32   C33   1.531876 S    
C43   H49   1.111065 S    
C23   H11   1.084838 S    
O21   C41   1.413025 S    
C24   H12   1.086060 S    
O13   C5    1.287143 A    
C17   C21   1.335215 D    
C11   C17   1.458613 S    
C14   H2    1.084966 S    
Zn2   O11   1.970528 S    
O16   C8    1.293787 A    
C31   H22   1.110483 S    
O18   C32   1.417082 S    
C46   H57   1.110506 S    
C45   H55   1.109616 S    
O6    C2    1.288738 A    
C41   H46   1.099658 S    
C48   H62   1.102138 S    
C36   H34   1.111235 S    
C25   H13   1.084454 S    
Zn1   N1    2.032162 S    
C7    C16   1.420659 S    
C37   H37   1.111157 S    
Zn2   N2    2.032162 S    
C11   O19   1.395540 S    
Zn1   O9    1.970528 S    
O9    C5    1.296790 A    
C42   H48   1.109581 S    
C40   H42   1.111122 S    
C48   H63   1.109618 S    
C19   H7    1.087533 S    
C39   H41   1.110239 S    
C35   H31   1.111239 S    
C38   C39   1.531822 S    
C12   O20   1.394494 S    
O4    Zn2   1.967975 S    
O17   C29   1.416294 S    
O5    Zn3   1.970529 S    
C41   C42   1.530169 S    
O3    C3    1.290953 A    
Zn3   O13   1.976411 S    
Zn4   N4    2.032318 S    
O8    Zn4   1.967656 S    
C37   H35   1.111049 S    
O14   C6    1.293694 A    
C34   H30   1.111110 S    
C38   H38   1.109485 S    
C44   H53   1.099368 S    
C12   C18   1.456095 S    
C29   H18   1.108072 S    
C42   H47   1.107065 S    
C19   C23   1.335139 D    
C20   C24   1.333209 D    
O22   C44   1.412930 S    
C39   C40   1.526977 S    
