data_mof_unit_63749.cif
_audit_creation_date              2012-12-11T16:02:59-0500
_audit_creation_method            fapswitch 2.2
_symmetry_space_group_name_H-M    P1
_symmetry_Int_Tables_number       1
_space_group_crystal_system       triclinic
_cell_length_a                    6.939193
_cell_length_b                    23.199286
_cell_length_c                    25.130465
_cell_angle_alpha                 106.713406
_cell_angle_beta                  90.140448
_cell_angle_gamma                 90.077852
_cell_volume                      3874.68436666

loop_
_atom_site_label
_atom_site_type_symbol
_atom_type_description
_atom_site_fract_x
_atom_site_fract_y
_atom_site_fract_z
_atom_type_partial_charge
O1    O     O_R   0.494320 0.441930 0.440920 -0.521937
O2    O     O_R   0.820780 0.446390 0.546550 -0.501925
O3    O     O_R   0.994330 0.558070 0.559080 -0.522894
C1    C     C_R   0.652293 0.433667 0.562684 0.775212
O4    O     O_R   0.823820 0.435090 0.440550 -0.524309
O5    O     O_R   0.997390 0.546680 0.452330 -0.546558
C2    C     C_R   0.654742 0.416697 0.418536 0.719044
O6    O     O_R   0.491260 0.453320 0.547670 -0.540632
O7    O     O_3   0.661870 0.536630 0.503990 -0.371993
V1    V     V_3+5 0.935460 0.493210 0.499260 1.459269
O8    O     O_R   0.327300 0.553610 0.453450 -0.536535
C3    C     C_R   0.157713 0.564727 0.435847 0.729051
O9    O     O_R   0.324250 0.564910 0.559450 -0.527191
C4    C     C_R   0.155451 0.583334 0.581442 0.718553
V2    V     V_3+5 0.435850 0.506790 0.500740 1.422114
O10   O     O_3   0.159570 0.463370 0.496010 -0.345848
C5    C     C_1   0.145013 0.635383 0.633472 -0.207592
C6    C     C_1   0.133493 0.678160 0.676792 0.010612
C7    C     C_1   0.118299 0.728701 0.728273 0.010009
C8    C     C_1   0.105163 0.771274 0.771702 0.011021
C9    C     C_1   0.089948 0.821813 0.823183 0.014909
C10   C     C_1   0.078383 0.864586 0.866502 -0.199172
C11   C     C_R   0.213599 0.908953 0.146157 0.166133
C12   C     C_R   0.218711 0.875092 0.184448 0.405969
C13   C     C_R   0.087882 0.826734 0.179295 -0.245722
C14   C     C_R   0.950425 0.813926 0.135707 0.175291
C15   C     C_R   0.947999 0.846842 0.096614 0.379814
C16   C     C_R   0.077227 0.895803 0.101903 -0.330454
N1    N     N_R   0.947252 0.779958 0.247489 -0.257929
N2    N     N_R   0.959187 0.744482 0.280758 -0.252831
C17   C     C_R   0.125400 0.715010 0.284856 0.547547
N3    N     N_R   0.280179 0.723294 0.254780 -0.197517
N4    N     N_R   0.268358 0.758871 0.221551 -0.259670
C18   C     C_R   0.101238 0.787633 0.216970 0.494543
C19   C     C_R   0.299322 0.674499 0.354561 0.403766
C20   C     C_R   0.303025 0.638448 0.391273 -0.272370
H1    H     H_    0.428738 0.639985 0.417280 0.139864
C21   C     C_R   0.145895 0.601882 0.395887 -0.214741
C22   C     C_R   0.982846 0.600460 0.361017 0.176817
C23   C     C_R   0.979762 0.634900 0.323180 0.344107
C24   C     C_R   0.135752 0.673825 0.320858 -0.177659
C25   C     C_R   0.481288 0.396562 0.634110 -0.227290
H2    H     H_    0.361946 0.425795 0.631676 0.176456
C26   C     C_R   0.470876 0.363638 0.672736 0.367097
C27   C     C_R   0.624953 0.324993 0.677176 -0.144860
C28   C     C_R   0.788838 0.321333 0.642692 0.097734
C29   C     C_R   0.799703 0.356630 0.604986 0.400018
C30   C     C_R   0.644306 0.394557 0.600719 -0.219906
N5    N     N_R   0.752264 0.288502 0.753810 -0.272736
N6    N     N_R   0.742551 0.253287 0.787351 -0.294433
C31   C     C_R   0.592853 0.214458 0.784062 0.580675
N7    N     N_R   0.453082 0.212950 0.745611 -0.218271
N8    N     N_R   0.462586 0.248060 0.711981 -0.269671
C32   C     C_R   0.612658 0.286529 0.715366 0.497492
C33   C     C_R   0.432418 0.133048 0.819623 0.127599
C34   C     C_R   0.430029 0.097107 0.857199 0.301248
C35   C     C_R   0.576032 0.104218 0.898185 -0.210273
C36   C     C_R   0.724155 0.147247 0.901038 0.301304
C37   C     C_R   0.728165 0.180437 0.862585 -0.201336
H3    H     H_    0.844513 0.212447 0.865814 0.186777
C38   C     C_R   0.583279 0.175086 0.822241 -0.089294
C39   C     C_1   0.643533 0.364683 0.366518 -0.195049
C40   C     C_1   0.632177 0.321895 0.323199 0.016003
C41   C     C_1   0.617604 0.271324 0.271726 0.014819
C42   C     C_1   0.605087 0.228714 0.228299 0.014621
C43   C     C_1   0.590529 0.178144 0.176825 0.015615
C44   C     C_1   0.579208 0.135358 0.133506 -0.195036
O11   O     O_R   0.731800 0.046750 0.952380 -0.536462
O12   O     O_R   0.399050 0.064920 0.059460 -0.530311
O13   O     O_R   0.225670 0.953300 0.047660 -0.539686
C45   C     C_R   0.568090 0.083346 0.081487 0.693965
O14   O     O_R   0.402270 0.053620 0.953470 -0.497848
O15   O     O_R   0.228900 0.941920 0.940910 -0.514038
C46   C     C_R   0.570641 0.065904 0.936998 0.756749
O16   O     O_R   0.728560 0.058130 0.059130 -0.527198
O17   O     O_3   0.561250 0.963410 0.996040 -0.361740
V3    V     V_3+5 0.287590 0.006790 0.000740 1.489084
O18   O     O_R   0.898990 0.935020 0.940500 -0.529285
C47   C     C_R   0.067837 0.916629 0.918528 0.732244
O19   O     O_R   0.895770 0.946320 0.046490 -0.529127
C48   C     C_R   0.065276 0.934353 0.063246 0.710940
V4    V     V_3+5 0.787210 0.993120 0.999190 1.457143
O20   O     O_3   0.063420 0.036580 0.003960 -0.351082
N9    N     N_3   0.345751 0.958502 0.154934 -0.583120
H4    H     H_    0.444630 0.949416 0.122298 0.251707
H5    H     H_    0.269194 0.997711 0.156391 0.216317
O21   O     O_3   0.308739 0.371929 0.705857 -0.631654
H6    H     H_    0.332322 0.356596 0.738143 0.308656
N10   N     N_3   0.941841 0.279994 0.643653 -0.645483
H7    H     H_    0.883961 0.236782 0.636428 0.251951
H8    H     H_    0.007493 0.292772 0.682732 0.295154
O22   O     O_3   0.957550 0.353762 0.570718 -0.631306
H9    H     H_    0.061396 0.329458 0.580517 0.333958
N11   N     N_3   0.283573 0.126792 0.778593 -0.626122
H10   H     H_    0.150438 0.136685 0.798513 0.241693
H11   H     H_    0.283388 0.082673 0.752424 0.233942
O23   O     O_3   0.290237 0.053602 0.854484 -0.634727
H12   H     H_    0.191813 0.053819 0.826158 0.290718
O24   O     O_3   0.865687 0.159689 0.941441 -0.622178
H13   H     H_    0.814106 0.151742 0.975323 0.289929
O25   O     O_3   0.352979 0.891842 0.226947 -0.598610
H14   H     H_    0.317454 0.874733 0.257358 0.314250
N12   N     N_3   0.816334 0.765085 0.128336 -0.570839
H15   H     H_    0.892812 0.725559 0.125676 0.237427
H16   H     H_    0.725453 0.774208 0.162837 0.276152
O26   O     O_3   0.819367 0.828482 0.052928 -0.605755
H17   H     H_    0.874785 0.837473 0.019934 0.284538
O27   O     O_3   0.452206 0.711889 0.352119 -0.596903
H18   H     H_    0.555336 0.706801 0.377777 0.312455
N13   N     N_3   0.820100 0.562135 0.360736 -0.597963
H19   H     H_    0.748641 0.577018 0.398763 0.235694
H20   H     H_    0.867370 0.517861 0.354098 0.222170
O28   O     O_3   0.821796 0.628116 0.288296 -0.592751
H21   H     H_    0.861538 0.635991 0.253237 0.309877

loop_
_geom_bond_atom_site_label_1
_geom_bond_atom_site_label_2
_ccdc_geom_bond_type
C33   C34   A    
O25   H14   S    
C29   O22   S    
O12   V3    S    
C7    C8    T    
C31   C38   S    
C1    O6    A    
O23   H12   S    
C28   N10   S    
N8    C32   A    
O27   H18   S    
C14   C15   A    
C39   C40   T    
C20   H1    S    
N9    H5    S    
C10   C47   S    
C12   O25   S    
O5    C3    A    
N2    C17   A    
O26   H17   S    
V3    O20   S    
O11   C46   A    
N5    C32   A    
C34   C35   A    
C6    C7    S    
O12   C45   A    
O13   C48   A    
N13   H19   S    
C19   O27   S    
O8    V2    S    
N9    H4    S    
C22   N13   S    
C29   C30   A    
C11   C12   A    
O1    V2    S    
N10   H8    S    
C26   O21   S    
O7    V1    S    
C13   C18   S    
C43   C44   T    
C37   H3    S    
O9    C4    A    
O13   V3    S    
C3    C21   S    
C4    C5    S    
C25   C26   A    
C34   O23   S    
C33   N11   S    
N4    C18   A    
C37   C38   A    
C11   N9    S    
C31   N7    A    
C12   C13   A    
O19   V4    S    
O17   V4    S    
C22   C23   A    
O4    C2    A    
O18   C47   A    
C15   O26   S    
N6    C31   A    
C36   C37   A    
C27   C28   A    
N1    C18   A    
C23   O28   S    
C19   C20   A    
C35   C46   S    
O2    C1    A    
C2    C39   S    
O14   V3    S    
C14   N12   S    
O18   V4    S    
O24   H13   S    
C5    C6    T    
O15   C47   A    
N12   H16   S    
C25   C30   A    
C11   C16   A    
O17   V3    S    
N11   H11   S    
O3    C4    A    
O14   C46   A    
C23   C24   A    
C27   C32   S    
V4    O20   S    
O6    V2    S    
O9    V2    S    
C25   H2    S    
O2    V1    S    
N12   H15   S    
C26   C27   A    
O28   H21   S    
C1    C30   S    
C28   C29   A    
C17   C24   S    
C16   C48   S    
O1    C2    A    
C17   N3    A    
C36   O24   S    
O19   C48   A    
O5    V1    S    
O8    C3    A    
O16   V4    S    
O11   V4    S    
C41   C42   T    
C20   C21   A    
C13   C14   A    
O4    V1    S    
O3    V1    S    
V1    O10   S    
N3    N4    A    
C45   O16   A    
C35   C36   A    
C21   C22   A    
C33   C38   A    
O22   H9    S    
C44   C45   S    
C42   C43   S    
O7    V2    S    
N11   H10   S    
C19   C24   A    
N13   H20   S    
N1    N2    A    
C40   C41   S    
C8    C9    S    
O21   H6    S    
N5    N6    A    
C15   C16   A    
O15   V3    S    
N10   H7    S    
C9    C10   T    
V2    O10   S    
N7    N8    A    
