data_mof_unit_12218.cif
_audit_creation_date              2012-12-10T16:42:56-0500
_audit_creation_method            fapswitch 2.2
_symmetry_space_group_name_H-M    P1
_symmetry_Int_Tables_number       1
_space_group_crystal_system       triclinic
_cell_length_a                    7.475272
_cell_length_b                    8.725149
_cell_length_c                    12.972814
_cell_angle_alpha                 87.63915
_cell_angle_beta                  78.773764
_cell_angle_gamma                 102.853774
_cell_volume                      805.971818826

loop_
_atom_site_label
_atom_site_type_symbol
_atom_type_description
_atom_site_fract_x
_atom_site_fract_y
_atom_site_fract_z
_atom_type_partial_charge
C1    C     C_R   0.453042 0.200054 0.503285 0.767911
C2    C     C_R   0.546957 0.799946 0.496715 0.767911
C3    C     C_R   0.465386 0.494635 0.701597 0.804260
C4    C     C_R   0.534614 0.505365 0.298403 0.804260
C5    C     C_R   0.555810 0.511132 0.184282 -0.171705
C6    C     C_R   0.444190 0.488868 0.815718 -0.171705
C7    C     C_R   0.249264 0.439660 0.991716 -0.200400
C8    C     C_R   0.750736 0.560340 0.008284 -0.200400
C9    C     C_R   0.265352 0.444829 0.883183 0.598310
C10   C     C_R   0.734647 0.555171 0.116817 0.598310
C11   C     C_R   0.605330 0.527019 0.857915 -0.220756
C12   C     C_R   0.394670 0.472981 0.142085 -0.220756
C13   C     C_R   0.589655 0.521950 0.966322 0.055974
C14   C     C_R   0.410344 0.478050 0.033678 0.055974
C15   C     C_2   0.426318 0.032865 0.505192 0.314197
C16   C     C_2   0.573682 0.967135 0.494808 0.314197
Cu1   Cu    Cu3+1 0.686350 0.517570 0.488220 1.222225
Cu2   Cu    Cu3+1 0.313650 0.482430 0.511780 1.222225
H1    H     H_    0.256619 0.438689 0.193441 0.221399
H2    H     H_    0.743381 0.561311 0.806559 0.221399
H3    H     H_    0.111134 0.405096 0.042807 0.197205
H4    H     H_    0.888866 0.594904 0.957192 0.197205
N1    N     N_2   0.033570 0.455950 0.529530 0.256912
N2    N     N_2   0.966430 0.544050 0.470470 0.256912
O1    O     O_R   0.621060 0.286250 0.492350 -0.533253
O2    O     O_R   0.378940 0.713750 0.507650 -0.533253
O3    O     O_R   0.306310 0.256580 0.512240 -0.517467
O4    O     O_R   0.693690 0.743420 0.487760 -0.517467
O5    O     O_R   0.631800 0.512400 0.642670 -0.570687
O6    O     O_R   0.368200 0.487600 0.357330 -0.570687
O7    O     O_R   0.317060 0.482730 0.662570 -0.521873
O8    O     O_R   0.682940 0.517270 0.337430 -0.521872
F1    F     F_    0.893877 0.595372 0.155033 -0.632462
F2    F     F_    0.106123 0.404628 0.844967 -0.632461
F3    F     F_    0.906602 0.352153 0.600788 -0.485362
F4    F     F_    0.093398 0.647847 0.399212 -0.485362
F5    F     F_    0.246453 0.945902 0.517995 -0.584428
F6    F     F_    0.753547 0.054098 0.482005 -0.584428

loop_
_geom_bond_atom_site_label_1
_geom_bond_atom_site_label_2
_ccdc_geom_bond_type
C8    H4    S    
N1    N2    D    
C1    O1    A    
C8    C13   A    
Cu2   O6    S    
Cu1   O5    S    
Cu2   O2    S    
C3    C6    S    
Cu1   O1    S    
C6    C9    A    
Cu1   Cu2   S    
C5    C10   A    
C2    O2    A    
C4    O8    A    
C13   C14   A    
C3    O7    A    
C11   C13   A    
C3    O5    A    
N2    F4    S    
C1    C15   S    
C12   H1    S    
C8    C10   A    
C12   C14   A    
C10   F1    S    
N1    F3    S    
C9    F2    S    
C11   H2    S    
Cu1   N2    S    
Cu2   N1    S    
C2    C16   S    
C5    C12   A    
C7    C9    A    
C6    C11   A    
C1    O3    A    
Cu1   O8    S    
C15   F5    S    
C2    O4    A    
Cu2   O7    S    
C7    H3    S    
Cu1   O4    S    
C7    C14   A    
C4    O6    A    
Cu2   O3    S    
C15   C16   D    
C16   F6    S    
C4    C5    S    
