data_mof_unit_19743.cif
_audit_creation_date              2012-10-26T19:53:28-0400
_audit_creation_method            fapswitch 2.2
_symmetry_space_group_name_H-M    P1
_symmetry_Int_Tables_number       1
_space_group_crystal_system       triclinic
_cell_length_a                    9.083533
_cell_length_b                    7.812458
_cell_length_c                    10.706167
_cell_angle_alpha                 90.595414
_cell_angle_beta                  90.044208
_cell_angle_gamma                 89.991554
_cell_volume                      759.718886729

loop_
_atom_site_label
_atom_site_type_symbol
_atom_type_description
_atom_site_fract_x
_atom_site_fract_y
_atom_site_fract_z
_atom_type_partial_charge
C1    C     C_R   0.220145 0.500009 0.500060 0.561104
C2    C     C_3   0.630862 0.536207 0.048841 -0.083866
C3    C     C_3   0.509126 0.504535 0.876420 0.022333
C4    C     C_3   0.490874 0.495465 0.123580 0.022333
C5    C     C_1   0.065417 0.500013 0.500017 0.017737
C6    C     C_1   0.934583 0.499987 0.499983 0.017736
C7    C     C_1   0.224212 0.425107 0.896222 0.200137
C8    C     C_1   0.775787 0.574893 0.103778 0.200137
C9    C     C_2   0.283871 0.741204 0.077651 0.277353
C10   C     C_2   0.716129 0.258796 0.922349 0.277353
C11   C     C_2   0.597022 0.833597 0.937578 0.231557
C12   C     C_R   0.779855 0.499991 0.499940 0.561104
C13   C     C_2   0.402978 0.166403 0.062422 0.231557
C14   C     C_R   0.492797 0.498715 0.259414 0.586720
C15   C     C_R   0.507203 0.501284 0.740586 0.586720
C16   C     C_3   0.401249 0.616136 0.039798 -0.044662
C17   C     C_3   0.598751 0.383864 0.960202 -0.044662
C18   C     C_3   0.541711 0.657364 0.964808 -0.026603
C19   C     C_3   0.458289 0.342636 0.035192 -0.026603
C20   C     C_3   0.369138 0.463792 0.951159 -0.083866
Cu1   Cu    Cu3+1 0.500000 0.669080 0.500000 1.148591
Cu2   Cu    Cu3+1 0.500000 0.330920 0.500000 1.148591
H1    H     H_    0.230255 0.817566 0.006914 0.115195
H2    H     H_    0.769745 0.182434 0.993086 0.115195
H3    H     H_    0.621255 0.919442 0.014960 0.102148
H4    H     H_    0.378745 0.080558 0.985040 0.102148
N1    N     N_1   0.500000 0.076820 0.500000 -0.037876
N2    N     N_1   0.500000 0.923180 0.500000 -0.037876
N3    N     N_1   0.110258 0.394788 0.852994 -0.246907
N4    N     N_1   0.889742 0.605211 0.147006 -0.246907
O1    O     O_R   0.288390 0.642760 0.500000 -0.488811
O2    O     O_2   0.753930 0.244246 0.813472 -0.431457
O3    O     O_2   0.618075 0.880383 0.830847 -0.449090
O4    O     O_2   0.381925 0.119617 0.169153 -0.449090
O5    O     O_R   0.711610 0.357240 0.500000 -0.488811
O6    O     O_R   0.711610 0.642760 0.500000 -0.498275
O7    O     O_R   0.288390 0.357240 0.500000 -0.498275
O8    O     O_R   0.499960 0.642760 0.316850 -0.481109
O9    O     O_R   0.500040 0.357240 0.683150 -0.481109
O10   O     O_R   0.500040 0.642760 0.683150 -0.474218
O11   O     O_R   0.499960 0.357240 0.316850 -0.474218
O12   O     O_2   0.246069 0.755753 0.186528 -0.431457

loop_
_geom_bond_atom_site_label_1
_geom_bond_atom_site_label_2
_ccdc_geom_bond_type
C4    C16   S    
C2    C4    S    
C11   C18   S    
C7    N3    T    
C2    C18   S    
C19   C20   S    
C4    C19   S    
C1    O7    A    
C16   C20   S    
C8    N4    T    
C3    C20   S    
Cu1   O6    S    
Cu1   Cu2   S    
C12   O5    A    
C6    C12   S    
Cu2   O5    S    
Cu1   O1    S    
C15   O9    A    
C9    O12   D    
Cu1   O10   S    
C14   O11   A    
C1    C5    S    
Cu2   O9    S    
C17   C19   S    
C9    C16   S    
C3    C17   S    
Cu2   N1    S    
C1    O1    A    
C4    C14   S    
C5    C6    T    
C13   H4    S    
C15   O10   A    
Cu2   O11   S    
C12   O6    A    
C13   C19   S    
C10   C17   S    
C14   O8    A    
C10   O2    D    
C11   O3    D    
C3    C15   S    
C3    C18   S    
C16   C18   S    
C7    C20   S    
N1    N2    T    
C11   H3    S    
C9    H1    S    
C13   O4    D    
C10   H2    S    
Cu2   O7    S    
Cu1   N2    S    
C2    C8    S    
Cu1   O8    S    
C2    C17   S    
