data_mof_unit_13714.cif
_audit_creation_date              2012-12-10T17:57:23-0500
_audit_creation_method            fapswitch 2.2
_symmetry_space_group_name_H-M    P1
_symmetry_Int_Tables_number       1
_space_group_crystal_system       triclinic
_cell_length_a                    9.620832
_cell_length_b                    10.765613
_cell_length_c                    13.407471
_cell_angle_alpha                 90.289706
_cell_angle_beta                  74.254837
_cell_angle_gamma                 88.987077
_cell_volume                      1336.28317927

loop_
_atom_site_label
_atom_site_type_symbol
_atom_type_description
_atom_site_fract_x
_atom_site_fract_y
_atom_site_fract_z
_atom_type_partial_charge
C1    C     C_R   0.498906 0.737441 0.500166 0.781756
C2    C     C_R   0.430482 0.447394 0.979226 0.007359
C3    C     C_R   0.473586 0.436907 0.869997 -0.022615
C4    C     C_R   0.538148 0.440363 0.033518 -0.039963
C5    C     C_R   0.683033 0.412393 0.978593 -0.043248
C6    C     C_R   0.711708 0.362656 0.877222 0.390704
C7    C     C_R   0.606269 0.376330 0.823233 -0.284168
C8    C     C_R   0.508812 0.474052 0.138195 -0.284241
C9    C     C_R   0.762316 0.497803 0.124109 0.436019
C10   C     C_R   0.382387 0.488121 0.812449 -0.080072
C11   C     C_R   0.612685 0.933021 0.433578 -0.184272
C12   C     C_R   0.424373 0.494304 0.699144 0.800241
C13   C     C_R   0.611786 0.061650 0.432662 -0.192215
C14   C     C_R   0.499440 0.128427 0.500404 -0.012816
C15   C     C_R   0.382159 0.066750 0.564696 -0.189560
C16   C     C_R   0.380502 0.937854 0.563576 -0.169487
C17   C     C_R   0.497164 0.871261 0.499267 -0.011049
C18   C     C_R   0.900726 0.581844 0.560434 -0.254718
C19   C     C_R   0.049806 0.580613 0.563423 0.625706
C20   C     C_R   0.100281 0.421632 0.437240 -0.213782
C21   C     C_R   0.950336 0.415170 0.441616 0.581320
C22   C     C_R   0.500364 0.262460 0.500211 0.773367
C23   C     C_R   0.576842 0.503437 0.300043 0.830257
C24   C     C_R   0.795278 0.445348 0.023593 0.367427
C25   C     C_R   0.618537 0.492655 0.185917 -0.220289
C26   C     C_R   0.252528 0.547222 0.864985 -0.256687
C27   C     C_R   0.204393 0.542692 0.971709 -0.149490
C28   C     C_R   0.283831 0.478237 0.027767 0.487329
Cu1   Cu    Cu3+1 0.359340 0.499980 0.500000 0.994982
Cu2   Cu    Cu3+1 0.640660 0.500020 0.500000 0.963178
H1    H     H_    0.695211 0.109232 0.376899 0.152425
H2    H     H_    0.293036 0.118242 0.615951 0.149089
H3    H     H_    0.290406 0.890222 0.614143 0.167563
H4    H     H_    0.822928 0.647622 0.606102 0.169330
H5    H     H_    0.179102 0.363112 0.383835 0.170876
H6    H     H_    0.400927 0.493447 0.184067 0.247016
H7    H     H_    0.185829 0.594509 0.823285 0.186788
H8    H     H_    0.101681 0.585135 0.009787 0.218981
H9    H     H_    0.630553 0.341456 0.744606 0.163746
H10   H     H_    0.701137 0.881759 0.381383 0.142888
N1    N     N_R   0.147940 0.499970 0.499970 -0.218465
N2    N     N_R   0.852060 0.500060 0.499990 -0.222630
O1    O     O_R   0.381250 0.680340 0.500010 -0.531265
O2    O     O_R   0.618820 0.680370 0.500010 -0.595568
O3    O     O_R   0.323240 0.499950 0.650980 -0.535879
O4    O     O_R   0.560810 0.499980 0.650980 -0.594437
O5    O     O_R   0.381180 0.319630 0.499990 -0.589163
O6    O     O_R   0.618750 0.319660 0.499990 -0.547728
O7    O     O_R   0.439190 0.500020 0.349020 -0.587738
O8    O     O_R   0.676760 0.500050 0.349020 -0.559289
O9    O     O_3   0.846958 0.595995 0.138757 -0.607909
C29   C     C_3   0.927101 0.568396 0.209747 -0.178520
H11   H     H_    0.940895 0.467207 0.221279 0.224629
H12   H     H_    0.879425 0.618285 0.283917 0.177566
H13   H     H_    0.034634 0.610221 0.182112 0.182197
O10   O     O_3   0.103629 0.663602 0.623292 -0.548962
C30   C     C_3   0.997608 0.712693 0.709482 -0.405129
H14   H     H_    0.052877 0.758275 0.762060 0.192402
H15   H     H_    0.929082 0.638678 0.754377 0.162198
H16   H     H_    0.931545 0.785990 0.684877 0.172570
O11   O     O_3   0.904723 0.329653 0.380436 -0.572290
C31   C     C_3   0.940609 0.207447 0.404728 -0.377461
H17   H     H_    0.928137 0.143706 0.342801 0.178842
H18   H     H_    0.054371 0.193633 0.406565 0.141628
H19   H     H_    0.867503 0.178756 0.480042 0.192367
O12   O     O_3   0.842832 0.304055 0.831728 -0.718006
H20   H     H_    0.845140 0.276693 0.760543 0.314563
O13   O     O_3   0.937181 0.442647 0.966591 -0.701895
H21   H     H_    0.941697 0.477637 0.897576 0.344140
O14   O     O_3   0.213697 0.441596 0.126923 -0.635828
C32   C     C_3   0.201518 0.311161 0.127814 -0.333734
H22   H     H_    0.308995 0.263848 0.112895 0.170848
H23   H     H_    0.143677 0.279128 0.071091 0.205330
H24   H     H_    0.137273 0.283121 0.205830 0.202936

loop_
_geom_bond_atom_site_label_1
_geom_bond_atom_site_label_2
_ccdc_geom_bond_type
C19   O10   S    
C32   H24   S    
C22   O6    A    
C9    C24   A    
C31   H17   S    
C16   H3    S    
C11   C13   A    
C1    O2    A    
C21   O11   S    
C2    C3    A    
C9    O9    S    
C29   H13   S    
C31   H18   S    
C4    C8    A    
Cu2   N2    S    
C20   C21   A    
C10   C26   A    
C23   C25   S    
C22   O5    A    
Cu2   O8    S    
C9    C25   A    
C15   H2    S    
C26   H7    S    
C3    C10   A    
Cu1   O7    S    
C13   C14   A    
Cu1   O1    S    
C8    C25   A    
C18   H4    S    
Cu2   O2    S    
C26   C27   A    
Cu1   Cu2   S    
C5    C24   A    
C10   C12   S    
Cu1   O5    S    
C5    C6    A    
C2    C4    A    
C7    H9    S    
Cu2   O6    S    
C29   H12   S    
C20   N1    A    
C6    C7    A    
C3    C7    A    
C18   N2    A    
O11   C31   S    
C30   H15   S    
C4    C5    A    
C23   O7    A    
O10   C30   S    
C24   O13   S    
C27   H8    S    
C11   H10   S    
C19   N1    A    
C32   H22   S    
O14   C32   S    
O12   H20   S    
C29   H11   S    
C1    O1    A    
C14   C22   S    
C18   C19   A    
C8    H6    S    
C27   C28   A    
C32   H23   S    
C13   H1    S    
C14   C15   A    
C16   C17   A    
C23   O8    A    
C2    C28   A    
C21   N2    A    
C31   H19   S    
Cu1   N1    S    
C30   H14   S    
O13   H21   S    
C20   H5    S    
C1    C17   S    
Cu2   O4    S    
C15   C16   A    
C28   O14   S    
O9    C29   S    
C6    O12   S    
Cu1   O3    S    
C12   O3    A    
C30   H16   S    
C12   O4    A    
C11   C17   A    
