data_mof_unit_48137.cif
_audit_creation_date              2012-12-10T20:46:50-0500
_audit_creation_method            fapswitch 2.2
_symmetry_space_group_name_H-M    P1
_symmetry_Int_Tables_number       1
_space_group_crystal_system       triclinic
_cell_length_a                    13.000083
_cell_length_b                    8.934935
_cell_length_c                    8.095842
_cell_angle_alpha                 90.012288
_cell_angle_beta                  95.758485
_cell_angle_gamma                 89.999591
_cell_volume                      935.626243259

loop_
_atom_site_label
_atom_site_type_symbol
_atom_type_description
_atom_site_fract_x
_atom_site_fract_y
_atom_site_fract_z
_atom_type_partial_charge
C1    C     C_R   0.500011 0.217949 0.499992 0.938144
C2    C     C_R   0.862725 0.422709 0.680585 -0.269284
C3    C     C_R   0.132980 0.448245 0.584955 0.132639
C4    C     C_R   0.867020 0.551766 0.415051 0.132636
C5    C     C_R   0.025440 0.462257 0.569985 0.098000
C6    C     C_R   0.974560 0.537755 0.430021 0.098010
C7    C     C_1   0.500003 0.065178 0.499987 -0.196113
C8    C     C_1   0.499997 0.934822 0.500013 -0.196113
C9    C     C_3   0.795623 0.535481 0.125714 -0.708733
C10   C     C_3   0.204370 0.464532 0.874300 -0.708728
C11   C     C_R   0.499989 0.782051 0.500008 0.938144
C12   C     C_R   0.298205 0.498166 0.470363 0.900973
C13   C     C_R   0.701795 0.501834 0.529637 0.900978
C14   C     C_R   0.812433 0.495159 0.543204 -0.084958
C15   C     C_R   0.187567 0.504846 0.456798 -0.084963
C16   C     C_R   0.032003 0.596040 0.307255 -0.229766
C17   C     C_R   0.967996 0.403968 0.692748 -0.229786
C18   C     C_R   0.137274 0.577294 0.319415 -0.269284
H1    H     H_    0.819982 0.375947 0.776663 0.174332
H2    H     H_    0.131035 0.486058 0.929351 0.211473
H3    H     H_    0.239767 0.573817 0.847288 0.252925
H4    H     H_    0.257862 0.404391 0.967149 0.241383
H5    H     H_    0.180016 0.624051 0.223333 0.174330
H6    H     H_    0.997185 0.657294 0.201013 0.157580
H7    H     H_    0.002814 0.342712 0.798990 0.157591
H8    H     H_    0.838700 0.732364 0.254165 0.212033
H9    H     H_    0.868945 0.514031 0.070606 0.211473
H10   H     H_    0.742083 0.595583 0.032909 0.241402
H11   H     H_    0.760279 0.426164 0.152742 0.252907
H12   H     H_    0.161299 0.267647 0.745843 0.212030
N1    N     N_1   0.500020 0.500000 0.073640 -0.042562
N2    N     N_1   0.499980 0.500000 0.926360 -0.042565
N3    N     N_2   0.813236 0.625424 0.275197 -0.297500
N4    N     N_2   0.186764 0.374587 0.724814 -0.297486
O1    O     O_R   0.499990 0.285340 0.636850 -0.613516
O2    O     O_R   0.500010 0.714660 0.363150 -0.613519
O3    O     O_R   0.500010 0.285340 0.363150 -0.620308
O4    O     O_R   0.499990 0.714660 0.636850 -0.620311
O5    O     O_R   0.346350 0.500000 0.614250 -0.595875
O6    O     O_R   0.653650 0.500000 0.385750 -0.595869
O7    O     O_R   0.346360 0.500000 0.340500 -0.639607
O8    O     O_R   0.653640 0.500000 0.659500 -0.639608
Zn1   Zn    Zn3+2 0.499990 0.500000 0.682780 0.978735
Zn2   Zn    Zn3+2 0.500010 0.500000 0.317220 0.978736

loop_
_geom_bond_atom_site_label_1
_geom_bond_atom_site_label_2
_ccdc_geom_bond_type
C15   C18   A    
C12   O7    A    
C9    H11   S    
C11   O4    A    
O1    Zn1   S    
C16   H6    S    
H8    N3    S    
N1    N2    T    
C12   C15   S    
C1    O3    A    
C17   H7    S    
O3    Zn2   S    
C7    C8    T    
C10   N4    S    
C13   C14   S    
C10   H4    S    
C2    C17   A    
C9    N3    S    
C1    O1    A    
C12   O5    A    
C8    C11   S    
C16   C18   A    
C13   O8    A    
N2    Zn1   S    
O6    Zn2   S    
C10   H3    S    
C4    C14   A    
C5    C6    A    
C2    C14   A    
O7    Zn2   S    
O2    Zn2   S    
C5    C17   A    
N1    Zn2   S    
H12   N4    S    
C6    C16   A    
C18   H5    S    
O4    Zn1   S    
C3    C15   A    
C9    H9    S    
C4    C6    A    
O8    Zn1   S    
C4    N3    S    
C11   O2    A    
C13   O6    A    
O5    Zn1   S    
C3    N4    S    
C2    H1    S    
C1    C7    S    
C9    H10   S    
C10   H2    S    
C3    C5    A    
