data_mof_unit_9500.cif
_audit_creation_date              2013-03-05T16:09:19-0500
_audit_creation_method            fapswitch 2.2
_symmetry_space_group_name_H-M    P1
_symmetry_Int_Tables_number       1
_space_group_crystal_system       triclinic
_cell_length_a                    7.227096
_cell_length_b                    12.179288
_cell_length_c                    21.267131
_cell_angle_alpha                 89.998423
_cell_angle_beta                  90.386093
_cell_angle_gamma                 89.999575
_cell_volume                      1871.90915999

loop_
_atom_site_label
_atom_site_type_symbol
_atom_site_description
_atom_site_fract_x
_atom_site_fract_y
_atom_site_fract_z
_atom_type_partial_charge
O1    O     O_R   0.354460 0.152320 0.595720 -0.585299
O2    O     O_R   0.645540 0.847680 0.404280 -0.585300
O3    O     O_R   0.145540 0.652320 0.404280 -0.585294
O4    O     O_R   0.854460 0.347680 0.595720 -0.585294
O5    O     O_R   0.683670 0.140090 0.727290 -0.575520
O6    O     O_R   0.316330 0.859910 0.272710 -0.575507
O7    O     O_R   0.816330 0.640090 0.272710 -0.575510
O8    O     O_R   0.183670 0.359910 0.727290 -0.575505
O9    O     O_R   0.854010 0.349340 0.727750 -0.585874
O10   O     O_R   0.145990 0.650660 0.272250 -0.585865
O11   O     O_R   0.645990 0.849340 0.272250 -0.585855
O12   O     O_R   0.354010 0.150660 0.727750 -0.585874
C1    C     C_R   0.516146 0.112304 0.746915 0.942249
C2    C     C_R   0.483857 0.887693 0.253082 0.942190
C3    C     C_R   0.983858 0.612300 0.253089 0.942220
C4    C     C_R   0.016143 0.387685 0.746919 0.942250
O13   O     O_R   0.684170 0.139420 0.596190 -0.584370
O14   O     O_R   0.315830 0.860580 0.403810 -0.584373
O15   O     O_R   0.815830 0.639420 0.403810 -0.584371
O16   O     O_R   0.184170 0.360580 0.596190 -0.584367
C5    C     C_R   0.515219 0.113139 0.574453 0.946418
C6    C     C_R   0.484781 0.886861 0.425547 0.946420
C7    C     C_R   0.984781 0.613140 0.425547 0.946424
C8    C     C_R   0.015218 0.386860 0.574453 0.946447
O17   O     O_3   0.520730 0.319480 0.661730 -0.279285
O18   O     O_3   0.479270 0.680520 0.338270 -0.279271
O19   O     O_3   0.979270 0.819480 0.338270 -0.279304
O20   O     O_3   0.020730 0.180520 0.661730 -0.279309
V1    V     V_3+5 0.795560 0.238090 0.661730 1.213401
V2    V     V_3+5 0.204440 0.761910 0.338270 1.213423
V3    V     V_3+5 0.704440 0.738090 0.338270 1.213434
V4    V     V_3+5 0.295560 0.261910 0.661730 1.213415
C9    C     C_R   0.008920 0.466609 0.798329 -0.147778
C10   C     C_R   0.991082 0.533367 0.201685 -0.147534
C11   C     C_R   0.491098 0.966611 0.201661 -0.147771
C12   C     C_R   0.508950 0.033350 0.798315 -0.147830
C13   C     C_R   0.955868 0.652051 0.835576 0.427681
C14   C     C_R   0.044201 0.347929 0.164443 0.426777
C15   C     C_R   0.544323 0.152052 0.164397 0.427231
C16   C     C_R   0.455872 0.847892 0.835547 0.427816
C17   C     C_R   0.975436 0.577076 0.786151 -0.154276
C18   C     C_R   0.024505 0.422893 0.213867 -0.154915
C19   C     C_R   0.524487 0.077091 0.213828 -0.154285
C20   C     C_R   0.475367 0.922895 0.786128 -0.154307
C21   C     C_R   0.027535 0.429235 0.859797 -0.216382
C22   C     C_R   0.972571 0.570746 0.140216 -0.216275
C23   C     C_R   0.472678 0.929209 0.140197 -0.216291
C24   C     C_R   0.527798 0.070673 0.859784 -0.216375
C25   C     C_R   0.007049 0.501109 0.911311 0.095577
C26   C     C_R   0.993093 0.498873 0.088704 0.095804
C27   C     C_R   0.493389 0.001048 0.088677 0.095325
C28   C     C_R   0.507411 0.998767 0.911289 0.095595
C29   C     C_R   0.961963 0.612949 0.898602 -0.011539
C30   C     C_R   0.038176 0.387034 0.101415 -0.011193
C31   C     C_R   0.538634 0.112873 0.101374 -0.011485
C32   C     C_R   0.462125 0.886961 0.898578 -0.011617
C33   C     C_R   0.022159 0.463718 0.974896 0.095471
C34   C     C_R   0.978010 0.536266 0.025119 0.095441
C35   C     C_R   0.478355 0.963626 0.025097 0.095356
C36   C     C_R   0.522732 0.036119 0.974871 0.095379
C37   C     C_R   0.917405 0.643450 0.010152 -0.234776
C38   C     C_R   0.082774 0.356536 0.989865 -0.234831
C39   C     C_R   0.583830 0.143204 0.989829 -0.235134
C40   C     C_R   0.417552 0.856479 0.010134 -0.234803
C41   C     C_R   0.912413 0.681101 0.948669 -0.119511
C42   C     C_R   0.087761 0.318886 0.051350 -0.119586
C43   C     C_R   0.588790 0.180888 0.051306 -0.118397
C44   C     C_R   0.412514 0.818825 0.948650 -0.119383
H1    H     H_    0.860410 0.763241 0.940898 0.182649
H2    H     H_    0.139757 0.236745 0.059123 0.182640
H3    H     H_    0.641309 0.262911 0.059065 0.182840
H4    H     H_    0.360362 0.736718 0.940881 0.182667
H5    H     H_    0.951647 0.657770 0.134430 0.111318
H6    H     H_    0.048500 0.342214 0.865583 0.111358
H7    H     H_    0.548800 0.157690 0.865590 0.111438
H8    H     H_    0.451724 0.842184 0.134419 0.111390
H9    H     H_    0.033985 0.395105 0.262189 0.154267
H10   H     H_    0.965871 0.604859 0.737830 0.154231
H11   H     H_    0.465675 0.895144 0.737804 0.154207
H12   H     H_    0.533814 0.104882 0.262151 0.154436
H13   H     H_    0.868272 0.700510 0.044922 0.141111
H14   H     H_    0.131913 0.299479 0.955093 0.141120
H15   H     H_    0.633412 0.200130 0.955052 0.141135
H16   H     H_    0.368288 0.799458 0.044908 0.141129
C45   C     C_1   0.995230 0.533131 0.478079 -0.206323
C46   C     C_1   0.004770 0.466868 0.521921 -0.206337
C47   C     C_1   0.504770 0.033131 0.521920 -0.206323
C48   C     C_1   0.495230 0.966869 0.478079 -0.206321
N1    N     N_R   0.931447 0.766625 0.820645 0.230306
O21   O     O_R   0.853865 0.794915 0.767672 -0.396203
O22   O     O_R   0.017192 0.841643 0.853227 -0.443306
N2    N     N_R   0.068662 0.233360 0.179376 0.230135
O23   O     O_R   0.146248 0.205084 0.232350 -0.396276
O24   O     O_R   0.982920 0.158334 0.146802 -0.443477
N3    N     N_R   0.568554 0.266662 0.179328 0.230418
O25   O     O_R   0.644554 0.295019 0.232572 -0.395933
O26   O     O_R   0.484256 0.341741 0.146314 -0.443304
N4    N     N_R   0.431390 0.733325 0.820608 0.230325
O27   O     O_R   0.353870 0.705062 0.767616 -0.396213
O28   O     O_R   0.517046 0.658280 0.853205 -0.443233

loop_
_geom_bond_atom_site_label_1
_geom_bond_atom_site_label_2
_geom_bond_distance
_ccdc_geom_bond_type
C47   C48   1.234726 T    
C5    C47   1.484025 S    
O1    C5    1.337606 A    
C9    C21   1.389886 A    
O3    C7    1.337598 A    
N3    O25   1.301847 A    
C10   C18   1.391019 A    
C11   C23   1.389833 A    
C25   C33   1.430361 A    
C33   C38   1.412586 A    
C45   C46   1.234702 T    
C35   C40   1.412612 A    
C26   C30   1.425969 A    
C36   C39   1.412546 A    
C40   C44   1.385940 A    
O20   V1    1.771948 S    
O9    C4    1.323209 A    
C23   H8    1.077573 S    
C14   C18   1.400261 A    
O10   C3    1.323214 A    
C16   N4    1.441700 S    
O4    C8    1.337597 A    
O11   C2    1.323225 A    
C25   C29   1.425974 A    
C43   H3    1.080946 S    
C14   N2    1.441654 S    
O13   V1    2.004998 S    
C40   H16   1.076789 S    
C28   C36   1.430278 A    
C15   C31   1.423075 A    
O16   C8    1.341432 A    
C16   C32   1.422888 A    
O2    C6    1.337606 A    
C10   C22   1.389858 A    
C6    C48   1.484026 S    
N1    O22   1.301223 A    
C11   C19   1.391018 A    
C3    C10   1.457019 S    
O5    C1    1.327163 A    
O4    V1    1.985306 S    
O9    V1    1.994445 S    
C13   C29   1.422879 A    
C34   C37   1.412577 A    
O7    C3    1.327166 A    
C38   H14   1.076771 S    
O15   V3    2.004945 S    
C35   C36   1.424054 A    
O8    C4    1.327174 A    
O12   V4    1.994388 S    
O19   V2    1.771949 S    
C24   H7    1.077598 S    
O5    V1    2.009384 S    
C39   C43   1.385892 A    
O7    V3    2.009424 S    
C38   C42   1.385922 A    
O8    V4    2.009422 S    
C1    C12   1.457059 S    
C17   H10   1.083686 S    
C23   C27   1.410896 A    
C19   H12   1.083676 S    
C32   C44   1.398658 A    
O1    V4    1.985354 S    
O13   C5    1.341443 A    
C39   H15   1.076877 S    
O2    V3    1.985351 S    
C26   C34   1.430344 A    
O3    V2    1.985303 S    
O15   C7    1.341431 A    
C4    C9    1.457029 S    
O6    C2    1.327193 A    
O10   V2    1.994445 S    
C31   C43   1.398764 A    
C14   C30   1.422905 A    
C21   C25   1.410919 A    
C44   H4    1.080999 S    
N2    O24   1.301186 A    
C15   N3    1.441950 S    
O14   V2    2.004998 S    
O6    V2    2.009385 S    
C16   C20   1.400307 A    
N4    O28   1.301287 A    
C12   C20   1.391042 A    
C27   C35   1.430362 A    
C2    C11   1.457104 S    
C29   C41   1.398613 A    
O16   V4    2.004945 S    
O14   C6    1.341442 A    
O18   V3    1.771958 S    
C20   H11   1.083690 S    
C15   C19   1.400422 A    
N3    O26   1.301714 A    
C30   C42   1.398635 A    
C22   C26   1.410899 A    
C13   N1    1.441676 S    
C9    C17   1.391005 A    
C37   H13   1.076754 S    
C33   C34   1.424074 A    
C42   H2    1.080983 S    
O17   V4    1.771958 S    
C41   H1    1.080980 S    
N2    O23   1.301438 A    
C12   C24   1.389886 A    
C27   C31   1.426042 A    
C13   C17   1.400260 A    
O11   V3    1.994388 S    
C37   C41   1.385886 A    
C24   C28   1.410892 A    
O12   C1    1.323235 A    
C18   H9    1.083690 S    
N4    O27   1.301541 A    
C7    C45   1.483986 S    
C21   H6    1.077560 S    
N1    O21   1.301449 A    
C8    C46   1.483985 S    
C22   H5    1.077556 S    
C28   C32   1.425942 A    
