data_mof_unit_50611.cif
_audit_creation_date              2013-03-05T15:44:34-0500
_audit_creation_method            fapswitch 2.2
_symmetry_space_group_name_H-M    P1
_symmetry_Int_Tables_number       1
_space_group_crystal_system       triclinic
_cell_length_a                    18.937102
_cell_length_b                    10.944841
_cell_length_c                    18.879902
_cell_angle_alpha                 89.922854
_cell_angle_beta                  90.05795
_cell_angle_gamma                 89.941737
_cell_volume                      3913.10831995

loop_
_atom_site_label
_atom_site_type_symbol
_atom_site_description
_atom_site_fract_x
_atom_site_fract_y
_atom_site_fract_z
_atom_type_partial_charge
O1    O     O_R   0.787540 0.042690 0.170470 -0.489095
O2    O     O_R   0.212460 0.042690 0.829530 -0.490639
O3    O     O_R   0.287540 0.542690 0.170470 -0.488761
O4    O     O_R   0.712460 0.542690 0.829530 -0.489227
O5    O     O_R   0.765660 0.292160 0.175050 -0.515833
O6    O     O_R   0.234340 0.292160 0.824950 -0.515515
O7    O     O_R   0.265660 0.792160 0.175050 -0.514468
O8    O     O_R   0.734340 0.792160 0.824950 -0.515679
C1    C     C_R   0.729483 0.375275 0.145089 0.562833
C2    C     C_R   0.270544 0.375119 0.854937 0.564135
C3    C     C_R   0.229477 0.875260 0.145083 0.559016
C4    C     C_R   0.770549 0.875101 0.854945 0.563419
O9    O     O_R   0.670190 0.408980 0.168550 -0.482592
O10   O     O_R   0.329810 0.408980 0.831450 -0.482151
O11   O     O_R   0.170190 0.908980 0.168550 -0.489234
O12   O     O_R   0.829810 0.908980 0.831450 -0.481683
O13   O     O_R   0.556580 0.251450 0.175160 -0.467141
O14   O     O_R   0.443420 0.251450 0.824840 -0.467673
O15   O     O_R   0.056580 0.751450 0.175160 -0.468624
O16   O     O_R   0.943420 0.751450 0.824840 -0.467195
C5    C     C_R   0.531230 0.155329 0.146528 0.581847
C6    C     C_R   0.468746 0.155182 0.853476 0.581576
C7    C     C_R   0.031225 0.655329 0.146533 0.581322
C8    C     C_R   0.968742 0.655182 0.853479 0.581443
O17   O     O_R   0.545920 0.049510 0.170320 -0.509698
O18   O     O_R   0.454080 0.049510 0.829680 -0.510906
O19   O     O_R   0.045920 0.549510 0.170320 -0.510005
O20   O     O_R   0.954080 0.549510 0.829680 -0.510724
O21   O     O_R   0.681390 0.957840 0.176710 -0.448665
O22   O     O_R   0.318610 0.957840 0.823290 -0.449770
O23   O     O_R   0.181390 0.457840 0.176710 -0.451886
O24   O     O_R   0.818610 0.457840 0.823290 -0.448812
C9    C     C_R   0.741476 0.969138 0.147361 0.609331
C10   C     C_R   0.258528 0.969001 0.852640 0.608616
C11   C     C_R   0.241470 0.469155 0.147352 0.606498
C12   C     C_R   0.758531 0.469009 0.852644 0.610421
O25   O     O_R   0.787500 0.044280 0.330990 -0.503353
O26   O     O_R   0.212500 0.044280 0.669010 -0.509977
O27   O     O_R   0.287500 0.544280 0.330990 -0.497675
O28   O     O_R   0.712500 0.544280 0.669010 -0.503834
O29   O     O_R   0.765610 0.293630 0.323860 -0.523003
O30   O     O_R   0.234390 0.293630 0.676140 -0.519816
O31   O     O_R   0.265610 0.793630 0.323860 -0.516896
O32   O     O_R   0.734390 0.793630 0.676140 -0.523940
C13   C     C_R   0.730858 0.381842 0.351170 0.567501
C14   C     C_R   0.269417 0.380282 0.648261 0.571444
C15   C     C_R   0.227847 0.876086 0.354004 0.547655
C16   C     C_R   0.769151 0.881807 0.648801 0.561483
O33   O     O_R   0.670140 0.410570 0.329080 -0.438391
O34   O     O_R   0.329860 0.410570 0.670920 -0.444623
O35   O     O_R   0.170140 0.910570 0.329080 -0.444225
O36   O     O_R   0.829860 0.910570 0.670920 -0.444887
O37   O     O_R   0.556540 0.252920 0.323970 -0.483698
O38   O     O_R   0.443460 0.252920 0.676030 -0.489952
O39   O     O_R   0.056540 0.752920 0.323970 -0.445372
O40   O     O_R   0.943460 0.752920 0.676030 -0.485535
C17   C     C_R   0.535355 0.156475 0.355436 0.548801
C18   C     C_R   0.468044 0.157557 0.646674 0.550341
C19   C     C_R   0.033693 0.656448 0.354434 0.552303
C20   C     C_R   0.966595 0.657679 0.645944 0.545278
O41   O     O_R   0.545870 0.051100 0.330840 -0.519262
O42   O     O_R   0.454130 0.051100 0.669160 -0.519210
O43   O     O_R   0.045870 0.551100 0.330840 -0.519837
O44   O     O_R   0.954130 0.551100 0.669160 -0.510273
O45   O     O_R   0.681340 0.959300 0.325510 -0.478029
O46   O     O_R   0.318660 0.959300 0.674490 -0.476647
O47   O     O_R   0.181340 0.459300 0.325510 -0.497482
O48   O     O_R   0.818660 0.459300 0.674490 -0.474291
C21   C     C_R   0.739660 0.978439 0.357206 0.578792
C22   C     C_R   0.258612 0.970805 0.645843 0.582543
C23   C     C_R   0.240244 0.477112 0.356575 0.559870
C24   C     C_R   0.760527 0.479013 0.642631 0.581262
Cr1   Cr    Cr6+3 0.772000 0.169640 0.250110 1.085741
Cr2   Cr    Cr6+3 0.228000 0.169640 0.749890 1.086767
Cr3   Cr    Cr6+3 0.272000 0.669640 0.250110 1.084089
Cr4   Cr    Cr6+3 0.728000 0.669640 0.749890 1.081561
Cr5   Cr    Cr6+3 0.614960 0.323350 0.249260 1.159225
Cr6   Cr    Cr6+3 0.385040 0.323350 0.750740 1.154669
Cr7   Cr    Cr6+3 0.114960 0.823350 0.249260 1.167416
Cr8   Cr    Cr6+3 0.885040 0.823350 0.750740 1.158502
Cr9   Cr    Cr6+3 0.616670 0.010620 0.250840 1.130988
Cr10  Cr    Cr6+3 0.383330 0.010620 0.749160 1.131915
Cr11  Cr    Cr6+3 0.116670 0.510620 0.250840 1.114068
Cr12  Cr    Cr6+3 0.883330 0.510620 0.749160 1.135571
O49   O     O_3   0.667880 0.167870 0.250070 -0.309720
O50   O     O_3   0.332120 0.167870 0.749930 -0.306992
O51   O     O_3   0.167880 0.667870 0.250070 -0.307537
O52   O     O_3   0.832120 0.667870 0.749930 -0.311015
C25   C     C_R   0.498579 0.162591 0.925593 0.028053
C26   C     C_R   0.501272 0.162889 0.074445 0.027727
C27   C     C_R   0.998561 0.662593 0.925603 0.027966
C28   C     C_R   0.001250 0.662888 0.074457 0.028654
C29   C     C_R   0.505307 0.275359 0.962499 -0.024551
C30   C     C_R   0.494828 0.275568 0.037238 -0.024690
C31   C     C_R   0.005286 0.775361 0.962511 -0.024502
C32   C     C_R   0.994804 0.775566 0.037251 -0.024574
C33   C     C_R   0.500313 0.053110 0.036492 -0.138493
C34   C     C_R   0.499052 0.052967 0.963852 -0.138638
C35   C     C_R   0.000279 0.553110 0.036504 -0.137865
C36   C     C_R   0.999022 0.552969 0.963864 -0.138661
C37   C     C_R   0.520914 0.387754 0.927905 0.204546
C38   C     C_R   0.479418 0.388228 0.071513 0.204704
C39   C     C_R   0.020896 0.887759 0.927922 0.204568
C40   C     C_R   0.979397 0.888221 0.071533 0.203969
C41   C     C_R   0.011434 0.997636 0.964569 -0.139069
C42   C     C_R   0.988927 0.997866 0.034537 -0.139611
C43   C     C_R   0.511452 0.497635 0.964548 -0.139321
C44   C     C_R   0.488946 0.497870 0.034514 -0.139244
C45   C     C_R   0.700324 0.852675 0.039790 0.190845
C46   C     C_R   0.299788 0.852625 0.960380 0.190689
C47   C     C_R   0.200285 0.352763 0.039761 0.192500
C48   C     C_R   0.799805 0.352665 0.960394 0.190373
C49   C     C_R   0.702474 0.845114 0.965826 -0.126143
C50   C     C_R   0.297659 0.845247 0.034350 -0.125989
C51   C     C_R   0.202441 0.345207 0.965799 -0.126228
C52   C     C_R   0.797677 0.345293 0.034364 -0.126286
H1    H     H_    0.665997 0.785089 0.938635 0.162531
H2    H     H_    0.334192 0.785233 0.061665 0.162982
H3    H     H_    0.165956 0.285204 0.938602 0.162557
H4    H     H_    0.834211 0.285282 0.061680 0.162919
C53   C     C_R   0.754799 0.907569 0.927679 -0.009813
C54   C     C_R   0.245262 0.907811 0.072362 -0.009576
C55   C     C_R   0.254786 0.407622 0.927662 -0.009803
C56   C     C_R   0.745276 0.407847 0.072374 -0.009554
C57   C     C_R   0.804047 0.979584 0.963271 -0.124919
C58   C     C_R   0.195965 0.979833 0.036657 -0.125497
C59   C     C_R   0.304042 0.479613 0.963259 -0.124941
C60   C     C_R   0.695979 0.479868 0.036668 -0.125287
H5    H     H_    0.846514 0.025620 0.935850 0.218238
H6    H     H_    0.153477 0.025980 0.064001 0.218017
H7    H     H_    0.346522 0.525621 0.935844 0.218221
H8    H     H_    0.653487 0.526004 0.064012 0.218113
C61   C     C_R   0.802674 0.987644 0.035378 -0.157375
C62   C     C_R   0.197303 0.987676 0.964546 -0.157581
C63   C     C_R   0.302665 0.487667 0.035367 -0.157132
C64   C     C_R   0.697317 0.487708 0.964557 -0.157925
H9    H     H_    0.841606 0.046481 0.059764 0.171455
H10   H     H_    0.158311 0.046508 0.940054 0.170898
H11   H     H_    0.341609 0.546473 0.059760 0.171595
H12   H     H_    0.658322 0.546532 0.940063 0.170871
C65   C     C_R   0.750513 0.927276 0.074734 0.036545
C66   C     C_R   0.249521 0.927180 0.925309 0.037222
C67   C     C_R   0.250492 0.427319 0.074717 0.037109
C68   C     C_R   0.749533 0.427208 0.925319 0.036556
C69   C     C_R   0.528653 0.056971 0.471120 -0.129198
C70   C     C_R   0.521018 0.060514 0.543404 -0.128771
C71   C     C_R   0.049617 0.579125 0.474538 -0.118578
C72   C     C_R   0.037540 0.582865 0.546595 -0.120796
H13   H     H_    0.545031 0.971234 0.447771 0.155388
H14   H     H_    0.529274 0.976921 0.573146 0.153389
H15   H     H_    0.086262 0.511842 0.454365 0.149061
H16   H     H_    0.062839 0.516280 0.580792 0.146390
C73   C     C_R   0.497757 0.167561 0.576065 0.025417
C74   C     C_R   0.516689 0.162060 0.429988 0.020047
C75   C     C_R   0.991225 0.669710 0.573809 0.027027
C76   C     C_R   0.015036 0.661150 0.428779 0.042719
C77   C     C_R   0.488415 0.274853 0.535932 -0.117600
C78   C     C_R   0.498620 0.272324 0.462884 -0.118761
C79   C     C_R   0.957665 0.754147 0.528484 -0.102189
C80   C     C_R   0.969006 0.748947 0.455784 -0.078058
C81   C     C_R   0.793723 0.020085 0.472438 -0.128667
C82   C     C_R   0.186107 0.955309 0.541166 -0.110728
C83   C     C_R   0.287459 0.529264 0.473298 -0.113553
C84   C     C_R   0.706076 0.520012 0.527398 -0.121423
H17   H     H_    0.830208 0.082280 0.446992 0.174562
H18   H     H_    0.141103 0.988638 0.570978 0.184905
H19   H     H_    0.317694 0.602482 0.449450 0.170302
H20   H     H_    0.669153 0.581397 0.552880 0.170213
C85   C     C_R   0.793425 0.015193 0.545622 0.191138
C86   C     C_R   0.181519 0.955441 0.468756 0.196819
C87   C     C_R   0.287476 0.519363 0.546360 0.196846
C88   C     C_R   0.706185 0.515050 0.454213 0.200144
C89   C     C_R   0.748693 0.930235 0.579696 0.010300
C90   C     C_R   0.238762 0.908148 0.427978 -0.009356
C91   C     C_R   0.249178 0.423538 0.578168 0.002229
C92   C     C_R   0.751331 0.430663 0.420137 0.009925
C93   C     C_R   0.696522 0.869210 0.540503 -0.183453
C94   C     C_R   0.301384 0.873237 0.461915 -0.179838
C95   C     C_R   0.205149 0.348943 0.536519 -0.174717
C96   C     C_R   0.804187 0.370862 0.459238 -0.172600
H21   H     H_    0.660024 0.806893 0.565824 0.155281
H22   H     H_    0.345724 0.837732 0.432109 0.157465
H23   H     H_    0.175043 0.274962 0.559742 0.181948
H24   H     H_    0.840963 0.309034 0.433897 0.163498
C97   C     C_R   0.693866 0.882487 0.467371 -0.133379
C98   C     C_R   0.307401 0.885936 0.534800 -0.098902
C99   C     C_R   0.203785 0.363048 0.463476 -0.155470
C100  C     C_R   0.807230 0.384808 0.532333 -0.118005
C101  C     C_R   0.744966 0.952510 0.432654 -0.018495
C102  C     C_R   0.249338 0.926433 0.574497 0.000637
C103  C     C_R   0.246541 0.450360 0.431538 -0.028516
C104  C     C_R   0.755476 0.453463 0.567138 -0.016903
H25   H     H_    0.503058 0.965283 0.062860 0.204450
H26   H     H_    0.495946 0.965093 0.937730 0.204674
H27   H     H_    0.003017 0.465284 0.062873 0.204617
H28   H     H_    0.995914 0.465096 0.937741 0.204794
N1    N     N_R   0.839965 0.094451 0.584395 0.073172
O53   O     O_R   0.817839 0.149419 0.641334 -0.307187
O54   O     O_R   0.902861 0.118448 0.560387 -0.336167
N2    N     N_R   0.118555 0.007087 0.438763 0.103557
O55   O     O_R   0.067048 0.935267 0.421284 -0.308127
O56   O     O_R   0.103843 0.120971 0.451205 -0.360169
N3    N     N_R   0.328471 0.604237 0.587210 0.078663
O57   O     O_R   0.302449 0.652603 0.644483 -0.307430
O58   O     O_R   0.391172 0.636274 0.566059 -0.355477
N4    N     N_R   0.659022 0.593594 0.415450 0.074161
O59   O     O_R   0.596051 0.616707 0.439631 -0.357018
O60   O     O_R   0.680592 0.648721 0.358279 -0.311775
H29   H     H_    0.652310 0.837900 0.438021 0.209743
H30   H     H_    0.357933 0.868303 0.559637 0.201899
H31   H     H_    0.170025 0.306204 0.431468 0.205643
H32   H     H_    0.849445 0.341476 0.561593 0.219047
N5    N     N_R   0.553674 0.391524 0.859142 0.084411
O61   O     O_R   0.598719 0.307496 0.840719 -0.336850
O62   O     O_R   0.545384 0.486367 0.818297 -0.315183
N6    N     N_R   0.446734 0.392554 0.140296 0.084173
O63   O     O_R   0.401591 0.308958 0.159024 -0.342075
O64   O     O_R   0.455196 0.487519 0.180840 -0.314930
N7    N     N_R   0.053661 0.891536 0.859161 0.084264
O65   O     O_R   0.098709 0.807512 0.840737 -0.337257
O66   O     O_R   0.045372 0.986381 0.818317 -0.313306
N8    N     N_R   0.946724 0.892540 0.140323 0.083961
O67   O     O_R   0.901590 0.808935 0.159062 -0.338688
O68   O     O_R   0.955203 0.987488 0.180876 -0.313940
H33   H     H_    0.022094 0.084157 0.938896 0.208624
H34   H     H_    0.978346 0.084564 0.059948 0.209171
H35   H     H_    0.522109 0.584154 0.938871 0.208498
H36   H     H_    0.478360 0.584570 0.059921 0.209534
N9    N     N_R   0.648834 0.782287 0.078036 0.067169
O69   O     O_R   0.666181 0.727424 0.136752 -0.300541
O70   O     O_R   0.587906 0.758257 0.049368 -0.393008
N10   N     N_R   0.351322 0.782105 0.922265 0.066712
O71   O     O_R   0.334068 0.727500 0.863546 -0.300075
O72   O     O_R   0.412197 0.757734 0.951046 -0.394142
N11   N     N_R   0.148776 0.282395 0.077992 0.068331
O73   O     O_R   0.166116 0.227464 0.136686 -0.316731
O74   O     O_R   0.087852 0.258393 0.049307 -0.392579
N12   N     N_R   0.851339 0.282140 0.922283 0.066771
O75   O     O_R   0.834081 0.227510 0.863572 -0.300188
O76   O     O_R   0.912213 0.257767 0.951067 -0.393830
H37   H     H_    0.469984 0.358588 0.560262 0.176061
H38   H     H_    0.491428 0.355152 0.432229 0.172567
H39   H     H_    0.919950 0.819797 0.548811 0.156109
H40   H     H_    0.942097 0.812497 0.420926 0.164258

loop_
_geom_bond_atom_site_label_1
_geom_bond_atom_site_label_2
_geom_bond_distance
_ccdc_geom_bond_type
C18   O42   1.267578 A    
Cr11  O51   1.976392 S    
N3    O57   1.301678 A    
O4    C12   1.264428 A    
C61   H9    1.082270 S    
C29   C30   1.425156 A    
O39   C19   1.277759 A    
O20   Cr12  2.070280 S    
O29   C13   1.277424 A    
O37   Cr5   1.951829 S    
C31   C32   1.425175 A    
C82   C102  1.388113 A    
C64   H12   1.082212 S    
C40   C42   1.399632 A    
C33   C34   1.371617 A    
O1    C9    1.265282 A    
N5    O61   1.301651 A    
C48   N12   1.437821 S    
O7    C3    1.270191 A    
C88   C92   1.413845 A    
N3    O58   1.301415 A    
O5    C1    1.270201 A    
C77   C78   1.393103 A    
C81   H17   1.082725 S    
O24   C12   1.271878 A    
C59   C63   1.364625 A    
C74   C78   1.400306 A    
O25   C21   1.259482 A    
C60   C64   1.364315 A    
C78   H38   1.083287 S    
C64   C68   1.402311 A    
C5    C26   1.476092 S    
N4    O60   1.302142 A    
O47   C23   1.275030 A    
C95   C99   1.387673 A    
C58   H6    1.081529 S    
C93   C97   1.389011 A    
C57   C61   1.364618 A    
C35   H27   1.083093 S    
O8    Cr4   1.956002 S    
C1    C56   1.449485 S    
O23   Cr11  1.949056 S    
C34   H26   1.083063 S    
C46   C66   1.416374 A    
O30   C14   1.271662 A    
C33   H25   1.083099 S    
O32   Cr4   1.946941 S    
C1    O9    1.262391 A    
O44   Cr12  2.068496 S    
C77   H37   1.083300 S    
C96   C100  1.389791 A    
C71   C72   1.380408 A    
C82   H18   1.084934 S    
C45   N9    1.437748 S    
O41   Cr9   2.068784 S    
O11   Cr7   2.072580 S    
C4    C53   1.450136 S    
C4    O12   1.262959 A    
O21   C9    1.272174 A    
C37   N5    1.439966 S    
N2    O55   1.296068 A    
C43   H35   1.082494 S    
C47   N11   1.437727 S    
N11   O73   1.301671 A    
C42   H34   1.082476 S    
C26   C30   1.423540 A    
C72   C75   1.391847 A    
C41   H33   1.082492 S    
C27   C36   1.399660 A    
C83   C87   1.383492 A    
C52   H4    1.083255 S    
C46   C50   1.399389 A    
C26   C33   1.399909 A    
C99   C103  1.390461 A    
O2    Cr2   2.067380 S    
C45   C49   1.399621 A    
C56   C60   1.393940 A    
C81   C85   1.382685 A    
Cr6   O50   1.975817 S    
C63   C67   1.402085 A    
O42   Cr10  2.068496 S    
Cr5   O49   1.974025 S    
O18   Cr10  2.070280 S    
C70   H14   1.083956 S    
C90   C94   1.399906 A    
Cr8   O52   1.975817 S    
C25   C29   1.423906 A    
N11   O74   1.301201 A    
C79   H39   1.083481 S    
C40   N8    1.439997 S    
N8    O67   1.301652 A    
C3    O11   1.262389 A    
C60   H8    1.081524 S    
C58   C62   1.364307 A    
Cr7   O51   1.974025 S    
C31   C39   1.423434 A    
C69   C70   1.373085 A    
C95   H23   1.083233 S    
C7    O19   1.272083 A    
C36   H28   1.083060 S    
C28   C32   1.423510 A    
O31   Cr3   1.949382 S    
O24   Cr12  1.948678 S    
N12   O76   1.301188 A    
C38   C44   1.399631 A    
O30   Cr2   1.946941 S    
C51   C55   1.403280 A    
O22   C10   1.271887 A    
O26   C22   1.265240 A    
C75   C79   1.409196 A    
O48   Cr12  1.950067 S    
C10   C66   1.455983 S    
Cr12  O52   1.974708 S    
C84   H20   1.082749 S    
O32   C16   1.277399 A    
N6    O63   1.301647 A    
C81   C101  1.401847 A    
C2    C55   1.450101 S    
C2    O10   1.262936 A    
C13   C92   1.460323 S    
C21   C101  1.455430 S    
N7    O65   1.301653 A    
O16   Cr8   1.947006 S    
N4    O59   1.302018 A    
C15   O35   1.247302 A    
C44   H36   1.082474 S    
C9    C65   1.456487 S    
Cr10  O50   1.974708 S    
O6    Cr2   1.956002 S    
C87   C91   1.409721 A    
O13   C5    1.277281 A    
Cr4   O52   1.971806 S    
O40   C20   1.265843 A    
C51   H3    1.083250 S    
O43   Cr11  2.068784 S    
O48   C24   1.272043 A    
O12   Cr8   2.073471 S    
C14   C91   1.455740 S    
C50   C54   1.403514 A    
C54   C58   1.393942 A    
O15   C7    1.277287 A    
C53   C57   1.394340 A    
N9    O69   1.301695 A    
C18   C73   1.451551 S    
C57   H5    1.081482 S    
C62   C66   1.402313 A    
O39   Cr7   1.951829 S    
C92   C96   1.403966 A    
O45   Cr9   1.948256 S    
C79   C80   1.390714 A    
C82   C86   1.369776 A    
O3    C11   1.265308 A    
C83   H19   1.083152 S    
O8    C4    1.271533 A    
C24   C104  1.455908 S    
O13   Cr5   1.949437 S    
C13   O33   1.262075 A    
C84   C104  1.401532 A    
C39   C41   1.399683 A    
C50   H2    1.083252 S    
O47   Cr11  1.948256 S    
C80   H40   1.083488 S    
O15   Cr7   1.949437 S    
C71   C76   1.405962 A    
O35   Cr7   2.068076 S    
Cr1   O49   1.971845 S    
C94   H22   1.083336 S    
C46   N10   1.437819 S    
C97   C101  1.398155 A    
C49   H1    1.083245 S    
C69   C74   1.404995 A    
Cr3   O51   1.971845 S    
O14   Cr6   1.947006 S    
C99   H31   1.077970 S    
O21   Cr9   1.949056 S    
O27   Cr3   2.071966 S    
C98   H30   1.082274 S    
C87   N3    1.436195 S    
C91   C95   1.407781 A    
C97   H29   1.079411 S    
C84   C88   1.382867 A    
C3    C54   1.449498 S    
C43   C44   1.388434 A    
C29   C37   1.423429 A    
C86   C90   1.427346 A    
C8    C27   1.475981 S    
C55   C59   1.394353 A    
C48   C52   1.399386 A    
C96   H24   1.082787 S    
O3    Cr3   2.069699 S    
C22   C102  1.443114 S    
C8    O20   1.272177 A    
C85   N1    1.437735 S    
C16   C89   1.459452 S    
O38   C18   1.270580 A    
O25   Cr1   2.071966 S    
C38   N6    1.439963 S    
O45   C21   1.273250 A    
C32   C40   1.423414 A    
C5    O17   1.272091 A    
N12   O75   1.301700 A    
N8    O68   1.301589 A    
O37   C17   1.275835 A    
O22   Cr10  1.948678 S    
O28   C24   1.259383 A    
C83   C103  1.403492 A    
N10   O72   1.301187 A    
O14   C6    1.276472 A    
C19   O43   1.257815 A    
O5    Cr1   1.953215 S    
C72   H16   1.083910 S    
N6    O64   1.301589 A    
O17   Cr9   2.068876 S    
C62   H10   1.082216 S    
O7    Cr3   1.953215 S    
C19   C76   1.448730 S    
C17   O41   1.259599 A    
C76   C80   1.394136 A    
C47   C67   1.416736 A    
Cr2   O50   1.971806 S    
C41   C42   1.388457 A    
C14   O34   1.266181 A    
C61   C65   1.402092 A    
O40   Cr8   1.952442 S    
C35   C36   1.371623 A    
C100  C104  1.399314 A    
C25   C34   1.399653 A    
C20   O44   1.268038 A    
C63   H11   1.082269 S    
O1    Cr1   2.069699 S    
C48   C68   1.416391 A    
C59   H7    1.081480 S    
N1    O54   1.301720 A    
C12   C68   1.456007 S    
N5    O62   1.301586 A    
N9    O70   1.301198 A    
C20   C75   1.445878 S    
O36   Cr8   2.065221 S    
O33   Cr5   2.068076 S    
O9    Cr5   2.072580 S    
C47   C51   1.399580 A    
C100  H32   1.080204 S    
C85   C89   1.413200 A    
O2    C10   1.264417 A    
O46   C22   1.264801 A    
C70   C73   1.395841 A    
C93   H21   1.082666 S    
C71   H15   1.081273 S    
O34   Cr6   2.065221 S    
O19   Cr11  2.068876 S    
N10   O71   1.301697 A    
C6    C25   1.475960 S    
O26   Cr2   2.075082 S    
O23   C11   1.272155 A    
N7    O66   1.301587 A    
O10   Cr6   2.073471 S    
C73   C77   1.407590 A    
N1    O53   1.302025 A    
Cr9   O49   1.976392 S    
O4    Cr4   2.067380 S    
C15   C90   1.455092 S    
O6    C2    1.271550 A    
O29   Cr1   1.949382 S    
C88   N4    1.437954 S    
C94   C98   1.387828 A    
O28   Cr4   2.075082 S    
C86   N2    1.434670 S    
C16   O36   1.263058 A    
C49   C53   1.403333 A    
C30   C38   1.423415 A    
C27   C31   1.423928 A    
N2    O56   1.298708 A    
C6    O18   1.272165 A    
C39   N7    1.439985 S    
C37   C43   1.399670 A    
O27   C23   1.255319 A    
C7    C28   1.476087 S    
C45   C65   1.416690 A    
C98   C102  1.403111 A    
C23   C103  1.449658 S    
C89   C93   1.403887 A    
C52   C56   1.403505 A    
C17   C74   1.452948 S    
O31   C15   1.284769 A    
O16   C8    1.276466 A    
C69   H13   1.082531 S    
O46   Cr10  1.950067 S    
C28   C35   1.399896 A    
C11   C67   1.456515 S    
O38   Cr6   1.952442 S    
