data_mof_unit_24495.cif
_audit_creation_date              2012-12-11T17:17:04-0500
_audit_creation_method            fapswitch 2.2
_symmetry_space_group_name_H-M    P1
_symmetry_Int_Tables_number       1
_space_group_crystal_system       triclinic
_cell_length_a                    6.985412
_cell_length_b                    13.365704
_cell_length_c                    14.709338
_cell_angle_alpha                 99.127943
_cell_angle_beta                  89.99718
_cell_angle_gamma                 90.112402
_cell_volume                      1355.94276586

loop_
_atom_site_label
_atom_site_type_symbol
_atom_type_description
_atom_site_fract_x
_atom_site_fract_y
_atom_site_fract_z
_atom_type_partial_charge
O1    O     O_R   0.354890 0.151580 0.148210 -0.542300
O2    O     O_R   0.645110 0.848420 0.851790 -0.542301
O3    O     O_R   0.682370 0.152980 0.336770 -0.525095
O4    O     O_R   0.317630 0.847020 0.663230 -0.525099
O5    O     O_R   0.854980 0.348430 0.351800 -0.532019
O6    O     O_R   0.145020 0.651570 0.648200 -0.532017
C1    C     C_R   0.513819 0.131724 0.366037 0.782652
C2    C     C_R   0.486182 0.868279 0.633964 0.782664
O7    O     O_R   0.684450 0.139580 0.148000 -0.537780
O8    O     O_R   0.315550 0.860420 0.852000 -0.537780
O9    O     O_R   0.857080 0.334940 0.161680 -0.526325
O10   O     O_R   0.142920 0.665060 0.838320 -0.526325
C3    C     C_R   0.515549 0.112788 0.114147 0.734618
C4    C     C_R   0.484451 0.887212 0.885853 0.734615
O11   O     O_R   0.352790 0.165070 0.338330 -0.540828
O12   O     O_R   0.647210 0.834930 0.661670 -0.540799
O13   O     O_3   0.522170 0.314120 0.254710 -0.376731
O14   O     O_3   0.477830 0.685880 0.745290 -0.376736
V1    V     V_3+5 0.796120 0.238110 0.249130 1.488860
V2    V     V_3+5 0.203880 0.761890 0.750870 1.488870
O15   O     O_R   0.186930 0.347040 0.163240 -0.551258
O16   O     O_R   0.813070 0.652960 0.836760 -0.551264
C5    C     C_R   0.018472 0.367231 0.132921 0.748240
C6    C     C_R   0.981527 0.632771 0.867080 0.748236
O17   O     O_R   0.184850 0.360440 0.352010 -0.538711
O18   O     O_R   0.815150 0.639560 0.647990 -0.538714
C7    C     C_R   0.015925 0.387266 0.385819 0.758625
C8    C     C_R   0.984075 0.612734 0.614181 0.758611
V3    V     V_3+5 0.296410 0.261900 0.250880 1.444074
V4    V     V_3+5 0.703590 0.738100 0.749120 1.444088
O19   O     O_3   0.020490 0.185890 0.245290 -0.376709
O20   O     O_3   0.979510 0.814110 0.754710 -0.376694
C9    C     C_1   0.005260 0.466893 0.466288 -0.163215
C10   C     C_1   0.994740 0.533107 0.533712 -0.163223
C11   C     C_3   0.127785 0.573751 0.020479 0.341240
C12   C     C_3   0.872214 0.426253 0.979523 0.341253
C13   C     C_3   0.963283 0.551346 0.083914 0.049799
C14   C     C_3   0.036717 0.448658 0.916089 0.049817
C15   C     C_3   0.009693 0.436781 0.062179 -0.131665
C16   C     C_3   0.990307 0.563222 0.937823 -0.131678
C17   C     C_3   0.175754 0.459384 0.998830 0.026195
C18   C     C_3   0.824245 0.540619 0.001172 0.026150
C19   C     C_3   0.324339 0.032241 0.485772 0.320808
C20   C     C_3   0.675655 0.967767 0.514226 0.320989
C21   C     C_3   0.388562 0.920812 0.470591 0.290303
C22   C     C_3   0.611427 0.079194 0.529405 0.290287
C23   C     C_3   0.494256 0.938163 0.564047 -0.245306
C24   C     C_3   0.505741 0.061840 0.435947 -0.245383
C25   C     C_3   0.429203 0.050775 0.579373 0.004243
C26   C     C_3   0.570792 0.949226 0.420625 0.004423
C27   C     C_1   0.504955 0.033138 0.033701 -0.177054
C28   C     C_1   0.495045 0.966862 0.966299 -0.177053
C29   C     C_3   0.923337 0.608850 0.179993 -0.796681
H1    H     H_    0.897720 0.690029 0.176309 0.225252
H2    H     H_    0.794915 0.576517 0.209077 0.215122
H3    H     H_    0.047837 0.602067 0.225470 0.200676
C30   C     C_3   0.076659 0.391151 0.820010 -0.796647
H4    H     H_    0.102273 0.309972 0.823696 0.225268
H5    H     H_    0.952158 0.397934 0.774534 0.200653
H6    H     H_    0.205080 0.423482 0.790925 0.215102
O21   O     O_3   0.251240 0.656555 0.041186 -0.654157
H7    H     H_    0.273512 0.665144 0.108505 0.285668
O22   O     O_3   0.748758 0.343451 0.958809 -0.654144
H8    H     H_    0.726375 0.334913 0.891501 0.285635
C31   C     C_3   0.361935 0.401922 0.991628 -0.652043
H9    H     H_    0.440802 0.420984 0.931581 0.217281
H10   H     H_    0.445031 0.420382 0.056268 0.230025
H11   H     H_    0.332148 0.319254 0.979219 0.205704
C32   C     C_3   0.638064 0.598083 0.008374 -0.651996
H12   H     H_    0.559190 0.579026 0.068423 0.217320
H13   H     H_    0.667849 0.680751 0.020781 0.205700
H14   H     H_    0.554964 0.579621 0.943734 0.230014
O23   O     O_3   0.269674 0.837878 0.440458 -0.615465
H15   H     H_    0.222952 0.848143 0.378993 0.289889
O24   O     O_3   0.730328 0.162120 0.559542 -0.615426
H16   H     H_    0.776290 0.152084 0.621195 0.289789
O25   O     O_3   0.139168 0.066293 0.471764 -0.593148
H17   H     H_    0.104383 0.035434 0.408133 0.303551
O26   O     O_3   0.860828 0.933723 0.528239 -0.593222
H18   H     H_    0.895682 0.964659 0.591839 0.303679
C33   C     C_3   0.348427 0.109405 0.668063 -0.702189
H19   H     H_    0.316927 0.188410 0.658456 0.230348
H20   H     H_    0.214479 0.072622 0.686553 0.210645
H21   H     H_    0.454278 0.110242 0.724440 0.174643
C34   C     C_3   0.651573 0.890590 0.331941 -0.702043
H22   H     H_    0.683119 0.811594 0.341554 0.230339
H23   H     H_    0.545698 0.889721 0.275572 0.174737
H24   H     H_    0.785498 0.927386 0.313444 0.210520

loop_
_geom_bond_atom_site_label_1
_geom_bond_atom_site_label_2
_ccdc_geom_bond_type
V4    O20   S    
O6    C8    A    
O13   V3    S    
O23   H15   S    
C12   C18   S    
O4    C2    A    
V1    O19   S    
C33   H19   S    
C23   C25   S    
O25   H17   S    
C7    C9    S    
C22   C25   S    
O9    V1    S    
C11   C13   S    
O3    C1    A    
C34   H22   S    
C30   H5    S    
O12   V4    S    
O9    C5    A    
C21   O23   S    
C21   C23   S    
C25   C33   S    
C13   C18   S    
C32   H13   S    
O7    C3    A    
C26   C34   S    
O13   V1    S    
C3    C27   S    
O7    V1    S    
C4    C28   S    
O8    V2    S    
C31   H10   S    
O3    V1    S    
O14   V4    S    
C12   O22   S    
C19   C24   S    
C20   C23   S    
C13   C29   S    
C24   C26   S    
C8    C10   S    
C2    O12   A    
O5    C7    A    
C32   H12   S    
C11   C17   S    
C22   O24   S    
C33   H20   S    
C20   C22   S    
O11   V3    S    
C29   H2    S    
O17   V3    S    
C22   C24   S    
C34   H23   S    
C27   C28   T    
C14   C17   S    
C15   C17   S    
O8    C4    A    
C19   C25   S    
C30   H6    S    
C17   C31   S    
C29   H1    S    
O15   V3    S    
C12   C15   S    
C18   C32   S    
O22   H8    S    
C32   H14   S    
O24   H16   S    
C14   C30   S    
C31   H11   S    
O10   V2    S    
O1    V3    S    
C9    C10   T    
C11   O21   S    
C19   C21   S    
O18   V4    S    
O15   C5    A    
O17   C7    A    
O16   C6    A    
O1    C3    A    
C33   H21   S    
C34   H24   S    
V2    O20   S    
C29   H3    S    
C20   C26   S    
O16   V4    S    
C20   O26   S    
C16   C18   S    
O5    V1    S    
C19   O25   S    
O6    V2    S    
O10   C6    A    
O18   C8    A    
O2    V4    S    
C1    C24   S    
C12   C14   S    
C11   C16   S    
C2    C23   S    
V3    O19   S    
C14   C16   S    
C30   H4    S    
C21   C26   S    
C5    C15   S    
C1    O11   A    
C6    C16   S    
O14   V2    S    
O21   H7    S    
O2    C4    A    
O26   H18   S    
O4    V2    S    
C13   C15   S    
C31   H9    S    
