data_mof_unit_47980.cif
_audit_creation_date              2012-12-10T20:24:49-0500
_audit_creation_method            fapswitch 2.2
_symmetry_space_group_name_H-M    P1
_symmetry_Int_Tables_number       1
_space_group_crystal_system       triclinic
_cell_length_a                    10.81729
_cell_length_b                    19.321067
_cell_length_c                    18.560772
_cell_angle_alpha                 89.021536
_cell_angle_beta                  87.913501
_cell_angle_gamma                 92.525709
_cell_volume                      3872.21479665

loop_
_atom_site_label
_atom_site_type_symbol
_atom_type_description
_atom_site_fract_x
_atom_site_fract_y
_atom_site_fract_z
_atom_type_partial_charge
C1    C     C_R   0.502061 0.365316 0.500401 0.939229
C2    C     C_R   0.501121 0.176717 0.561373 0.491740
C3    C     C_R   0.554714 0.854646 0.495346 -0.049197
C4    C     C_R   0.548477 0.147252 0.498654 -0.072781
C5    C     C_R   0.526436 0.819569 0.560448 -0.379060
C6    C     C_R   0.578144 0.187279 0.437198 -0.412974
C7    C     C_R   0.507810 0.747907 0.562308 0.438460
C8    C     C_R   0.560563 0.258317 0.436620 0.460840
C9    C     C_R   0.519056 0.710716 0.497490 -0.279585
C10   C     C_R   0.513109 0.289525 0.499991 -0.302332
C11   C     C_R   0.649508 0.966808 0.530098 -0.411157
C12   C     C_R   0.503792 0.634679 0.499273 0.939684
C13   C     C_R   0.466740 0.036025 0.458429 -0.445086
C14   C     C_R   0.650215 0.039219 0.531110 0.513314
C15   C     C_R   0.464488 0.963965 0.458469 0.487889
C16   C     C_R   0.260268 0.502350 0.500942 0.935800
C17   C     C_R   0.739916 0.499286 0.499147 0.955504
C18   C     C_R   0.557779 0.072973 0.495056 0.118567
C19   C     C_R   0.557269 0.929782 0.494008 0.131501
C20   C     C_R   0.573652 0.547037 0.725990 0.534730
C21   C     C_R   0.415577 0.459014 0.274114 0.521393
C22   C     C_R   0.572422 0.547013 0.801644 -0.323904
C23   C     C_R   0.872431 0.499315 0.498702 -0.232247
C24   C     C_R   0.415004 0.460102 0.198471 -0.331619
C25   C     C_R   0.502612 0.497126 0.842607 -0.187892
C26   C     C_R   0.496125 0.504455 0.157618 -0.193135
C27   C     C_R   0.432455 0.447184 0.805752 0.422513
C28   C     C_R   0.577304 0.548715 0.194324 0.430820
C29   C     C_R   0.427054 0.451855 0.729607 0.385072
C30   C     C_R   0.581687 0.543628 0.270420 0.359837
C31   C     C_R   0.527282 0.439956 0.964986 -0.125640
C32   C     C_R   0.472220 0.561992 0.035628 -0.132844
C33   C     C_R   0.524056 0.441734 0.040681 -0.197365
C34   C     C_R   0.127892 0.504904 0.502480 -0.242135
C35   C     C_R   0.474810 0.560115 0.959902 -0.199892
C36   C     C_R   0.497190 0.502867 0.076954 0.231341
C37   C     C_R   0.501503 0.498906 0.923488 0.228268
C38   C     C_R   0.250195 0.699995 0.361786 -0.276635
C39   C     C_R   0.748717 0.305683 0.638469 -0.203511
C40   C     C_R   0.184292 0.658599 0.414759 0.488826
C41   C     C_R   0.814072 0.348274 0.585969 0.428204
C42   C     C_R   0.140989 0.590982 0.396731 -0.013116
C43   C     C_R   0.859272 0.414815 0.605724 0.014537
C44   C     C_R   0.159301 0.567592 0.324845 0.520807
C45   C     C_R   0.930429 0.459597 0.551082 -0.120066
C46   C     C_R   0.840002 0.437440 0.677748 0.501338
C47   C     C_R   0.223525 0.610744 0.273697 -0.140596
C48   C     C_R   0.774932 0.393728 0.728033 -0.187730
C49   C     C_R   0.269038 0.676277 0.292019 -0.344871
C50   C     C_R   0.729607 0.328454 0.708589 -0.240974
C51   C     C_R   0.941357 0.543212 0.449748 0.416343
C52   C     C_R   0.058682 0.461622 0.551884 0.420251
C53   C     C_3   0.366074 0.717449 0.652342 0.120039
C54   C     C_3   0.343085 0.672697 0.720099 -0.742802
C55   C     C_3   0.546491 0.284339 0.316015 0.105575
C56   C     C_R   0.069849 0.546470 0.451567 -0.126510
C57   C     C_3   0.612621 0.323389 0.252886 -0.755731
C58   C     C_3   0.398886 0.331648 0.833450 0.158366
C59   C     C_3   0.343340 0.283086 0.892583 -0.833265
C60   C     C_3   0.626504 0.662460 0.165670 0.131067
C61   C     C_3   0.686993 0.708227 0.105689 -0.822958
C62   C     C_3   0.113176 0.747761 0.486220 0.052520
C63   C     C_3   0.203624 0.803455 0.512690 -0.819388
C64   C     C_3   0.859077 0.258793 0.507843 0.102049
C65   C     C_3   0.913239 0.247202 0.432441 -0.773744
C66   C     C_3   0.853219 0.646519 0.427013 0.100782
C67   C     C_R   0.553493 0.746779 0.431905 0.187345
C68   C     C_3   0.870429 0.702366 0.368095 -0.687007
C69   C     C_3   0.137919 0.355376 0.570769 0.093419
C70   C     C_3   0.121112 0.299044 0.629246 -0.811945
C71   C     C_3   0.537333 0.847066 0.311308 0.170985
C72   C     C_3   0.545465 0.912778 0.264760 -0.838689
C73   C     C_3   0.348747 0.116531 0.626708 0.109756
C74   C     C_3   0.326161 0.059075 0.683244 -0.802084
C75   C     C_R   0.483728 0.247720 0.562713 0.202423
C76   C     C_R   0.570897 0.819046 0.430936 0.504450
H1    H     H_    0.319714 0.708840 0.251999 0.165269
H2    H     H_    0.454179 0.606360 0.929648 0.142273
H3    H     H_    0.287355 0.750895 0.374430 0.162558
H4    H     H_    0.711442 0.254831 0.625735 0.182981
H5    H     H_    0.238847 0.593050 0.219175 0.166586
H6    H     H_    0.758759 0.410760 0.782729 0.167342
H7    H     H_    0.517188 0.848145 0.609966 0.187477
H8    H     H_    0.620156 0.163252 0.390599 0.186596
H9    H     H_    0.302556 0.697164 0.610928 0.184714
H10   H     H_    0.344677 0.771647 0.665788 0.122357
H11   H     H_    0.247701 0.679375 0.742250 0.203299
H12   H     H_    0.678994 0.295289 0.748072 0.181500
H13   H     H_    0.352603 0.617334 0.707009 0.258231
H14   H     H_    0.410279 0.687813 0.761502 0.253964
H15   H     H_    0.449997 0.301486 0.321737 0.172086
H16   H     H_    0.543609 0.228384 0.302850 0.116372
H17   H     H_    0.704855 0.301864 0.242084 0.245174
H18   H     H_    0.557264 0.318157 0.203889 0.194434
H19   H     H_    0.626010 0.379096 0.265394 0.267086
H20   H     H_    0.796148 0.045922 0.589132 0.327306
H21   H     H_    0.313927 0.958017 0.403999 0.327271
H22   H     H_    0.655348 0.587208 0.640156 0.384745
H23   H     H_    0.719661 0.939212 0.557572 0.162719
H24   H     H_    0.346688 0.411980 0.359829 0.371730
H25   H     H_    0.501730 0.329953 0.834557 0.092203
H26   H     H_    0.367991 0.311638 0.781036 0.221849
H27   H     H_    0.240669 0.281956 0.891590 0.269858
H28   H     H_    0.375111 0.229869 0.884020 0.210957
H29   H     H_    0.372798 0.300847 0.946156 0.251160
H30   H     H_    0.660440 0.681682 0.217733 0.204935
H31   H     H_    0.524384 0.668348 0.164927 0.084604
H32   H     H_    0.654319 0.691074 0.052560 0.255097
H33   H     H_    0.662429 0.762849 0.113688 0.201441
H34   H     H_    0.395251 0.063504 0.431970 0.153043
H35   H     H_    0.789258 0.705219 0.106191 0.271644
H36   H     H_    0.344550 0.418985 0.646733 0.400395
H37   H     H_    0.653161 0.583066 0.353526 0.411630
H38   H     H_    0.032307 0.744762 0.524874 0.166199
H39   H     H_    0.077731 0.765158 0.433644 0.138746
H40   H     H_    0.296203 0.799228 0.486256 0.271532
H41   H     H_    0.169219 0.855460 0.500245 0.242056
H42   H     H_    0.210873 0.798865 0.571856 0.219307
H43   H     H_    0.774973 0.224488 0.515786 0.189099
H44   H     H_    0.928035 0.243394 0.547388 0.131379
H45   H     H_    0.628777 0.585741 0.828494 0.210793
H46   H     H_    0.999333 0.279945 0.422677 0.234787
H47   H     H_    0.935316 0.191935 0.426706 0.204251
H48   H     H_    0.845670 0.260595 0.391421 0.294770
H49   H     H_    0.081699 0.475181 0.343258 0.354094
H50   H     H_    0.917542 0.529955 0.660382 0.344707
H51   H     H_    0.909340 0.662419 0.473378 0.106857
H52   H     H_    0.755206 0.643712 0.446653 0.160439
H53   H     H_    0.808068 0.691362 0.323309 0.310989
H54   H     H_    0.849559 0.753640 0.390561 0.207306
H55   H     H_    0.966961 0.704196 0.345681 0.220657
H56   H     H_    0.349868 0.426075 0.171542 0.213465
H57   H     H_    0.233814 0.356112 0.547543 0.104923
H58   H     H_    0.075626 0.341364 0.526394 0.149462
H59   H     H_    0.024468 0.296676 0.651478 0.248126
H60   H     H_    0.142042 0.248074 0.606148 0.180462
H61   H     H_    0.183164 0.309721 0.674296 0.301490
H62   H     H_    0.501818 0.694093 0.351927 0.348934
H63   H     H_    0.377905 0.306636 0.615024 0.347865
H64   H     H_    0.438452 0.836682 0.328641 0.146719
H65   H     H_    0.568375 0.803969 0.277227 0.163593
H66   H     H_    0.642318 0.923501 0.244330 0.256809
H67   H     H_    0.552158 0.392700 0.938953 0.133917
H68   H     H_    0.484773 0.906383 0.218131 0.201198
H69   H     H_    0.515159 0.957447 0.296735 0.268611
H70   H     H_    0.315518 0.096614 0.574438 0.113159
H71   H     H_    0.293717 0.161346 0.642954 0.168230
H72   H     H_    0.356051 0.077358 0.736558 0.261376
H73   H     H_    0.226009 0.043646 0.687398 0.201898
H74   H     H_    0.379130 0.013278 0.667822 0.253702
H75   H     H_    0.448813 0.609445 0.061887 0.130701
H76   H     H_    0.544598 0.395538 0.071058 0.139257
N1    N     N_R   0.500020 0.499980 0.689440 -0.240889
N2    N     N_R   0.499980 0.500020 0.310560 -0.231722
O1    O     O_R   0.500010 0.398180 0.560840 -0.627918
O2    O     O_3   0.610610 0.298724 0.379409 -0.560511
O3    O     O_3   0.738590 0.077806 0.566765 -0.780461
O4    O     O_3   0.371216 0.925935 0.426302 -0.819040
O5    O     O_3   0.649302 0.597217 0.691542 -0.706341
O6    O     O_3   0.329035 0.414666 0.308647 -0.758835
O7    O     O_3   0.357126 0.399134 0.844966 -0.571206
O8    O     O_3   0.659433 0.593143 0.155121 -0.559976
O9    O     O_3   0.341965 0.408540 0.698315 -0.748260
O10   O     O_3   0.673142 0.582338 0.301906 -0.710290
O11   O     O_3   0.166740 0.681785 0.484931 -0.641596
O12   O     O_R   0.499990 0.601820 0.439160 -0.642873
O13   O     O_3   0.829356 0.329072 0.514248 -0.609886
O14   O     O_3   0.116471 0.503510 0.301916 -0.708909
O15   O     O_3   0.881225 0.501592 0.701307 -0.728274
O16   O     O_3   0.883930 0.581895 0.398222 -0.564240
O17   O     O_3   0.115902 0.420482 0.601366 -0.567465
O18   O     O_3   0.581643 0.712163 0.369941 -0.787868
O19   O     O_3   0.441929 0.274208 0.626860 -0.734816
O20   O     O_3   0.616646 0.855733 0.369792 -0.596172
O21   O     O_3   0.476259 0.135948 0.622662 -0.557940
O22   O     O_R   0.499950 0.398180 0.439210 -0.605573
O23   O     O_R   0.500050 0.601820 0.560790 -0.593593
O24   O     O_R   0.316790 0.500010 0.560810 -0.605936
O25   O     O_R   0.683210 0.499990 0.439190 -0.575475
O26   O     O_R   0.316730 0.500000 0.439190 -0.661870
O27   O     O_R   0.683270 0.500000 0.560810 -0.678685
O28   O     O_3   0.490928 0.714063 0.628546 -0.552921
Zn1   Zn    Zn3+2 0.500040 0.500000 0.581210 0.962286
Zn2   Zn    Zn3+2 0.499960 0.500000 0.418790 0.967391

loop_
_geom_bond_atom_site_label_1
_geom_bond_atom_site_label_2
_ccdc_geom_bond_type
C66   C68   S    
C1    O22   A    
C34   C56   A    
C69   H58   S    
C23   C45   A    
C75   O19   S    
C73   C74   S    
C29   O9    S    
C2    C4    A    
C30   O10   S    
C61   H33   S    
C72   H68   S    
C28   O8    S    
C39   C41   A    
C38   C49   A    
C53   C54   S    
C72   H66   S    
C11   C19   A    
C55   H16   S    
C64   H43   S    
C13   C18   A    
C73   H71   S    
C59   H28   S    
C32   C36   A    
C74   H72   S    
C35   C37   A    
C24   C26   A    
C62   H38   S    
C64   O13   S    
C65   H47   S    
C44   O14   S    
C54   H11   S    
C63   H41   S    
C11   C14   A    
O1    Zn1   S    
C27   C29   A    
C38   H3    S    
C72   H69   S    
C33   C36   A    
C66   H51   S    
C11   H23   S    
C51   C56   A    
C69   O17   S    
C65   H48   S    
C1    O1    A    
C61   H32   S    
C14   C18   A    
C55   H15   S    
C42   C56   S    
N1    Zn1   S    
C49   H1    S    
C22   C25   A    
N2    Zn2   S    
C60   O8    S    
C21   N2    A    
C31   C33   A    
C74   H73   S    
C3    C19   S    
C53   H10   S    
C58   H26   S    
O24   Zn1   S    
C44   C47   A    
C50   H12   S    
C71   H65   S    
C25   C37   S    
C17   O25   A    
C40   C42   A    
C12   O23   A    
C38   C40   A    
C57   H17   S    
C70   H60   S    
C41   C43   A    
C68   H53   S    
C42   C44   A    
C52   O17   S    
C47   C49   A    
C43   C46   A    
C16   O24   A    
O27   Zn1   S    
C55   O2    S    
C46   C48   A    
C6    H8    S    
C20   N1    A    
C14   O3    S    
H62   O18   S    
C32   C35   A    
H49   O14   S    
O12   Zn2   S    
C54   H13   S    
C4    C6    A    
C5    C7    A    
C63   H42   S    
O22   Zn2   S    
C6    C8    A    
C45   C52   A    
C58   C59   S    
O23   Zn1   S    
C20   O5    S    
C31   C37   A    
C60   C61   S    
C73   O21   S    
C68   H55   S    
C15   C19   A    
C9    C67   A    
C62   C63   S    
C2    O21   S    
C10   C75   A    
H24   O6    S    
C23   C51   A    
C48   H6    S    
C13   C15   A    
C16   C34   S    
C62   O11   S    
C59   H29   S    
C58   H25   S    
C17   C23   S    
C65   H46   S    
C68   H54   S    
C3    C76   A    
C43   C45   S    
C13   H34   S    
C40   O11   S    
C60   H31   S    
C15   O4    S    
C63   H40   S    
C26   C36   S    
C20   C22   A    
C57   H18   S    
C55   C57   S    
C70   H59   S    
C21   O6    S    
H63   O19   S    
C61   H35   S    
O26   Zn2   S    
C60   H30   S    
C22   H45   S    
C29   N1    A    
O25   Zn2   S    
C7    C9    A    
H36   O9    S    
C69   H57   S    
C7    O28   S    
C34   C52   A    
C66   O16   S    
C51   O16   S    
C1    C10   S    
C3    C5    A    
C33   H76   S    
C71   O20   S    
C54   H14   S    
C71   H64   S    
C67   O18   S    
C25   C27   A    
C35   H2    S    
C26   C28   A    
C64   H44   S    
C46   O15   S    
C73   H70   S    
C59   H27   S    
H21   O4    S    
C28   C30   A    
C4    C18   S    
C62   H39   S    
H50   O15   S    
C53   O28   S    
C39   H4    S    
H37   O10   S    
C12   O12   A    
C24   H56   S    
C32   H75   S    
C5    H7    S    
C41   O13   S    
C64   C65   S    
C48   C50   A    
C66   H52   S    
H20   O3    S    
C76   O20   S    
C47   H5    S    
C31   H67   S    
C69   C70   S    
C8    O2    S    
C9    C12   S    
C17   O27   A    
C30   N2    A    
C39   C50   A    
C71   C72   S    
H22   O5    S    
C70   H61   S    
C8    C10   A    
C57   H19   S    
C21   C24   A    
C74   H74   S    
C53   H9    S    
C67   C76   A    
C58   O7    S    
C27   O7    S    
C2    C75   A    
C16   O26   A    
