data_mof_unit_46309.cif
_audit_creation_date              2012-12-10T16:56:30-0500
_audit_creation_method            fapswitch 2.2
_symmetry_space_group_name_H-M    P1
_symmetry_Int_Tables_number       1
_space_group_crystal_system       triclinic
_cell_length_a                    7.755071
_cell_length_b                    8.628771
_cell_length_c                    15.708084
_cell_angle_alpha                 90.862023
_cell_angle_beta                  86.036311
_cell_angle_gamma                 93.428567
_cell_volume                      1046.67967551

loop_
_atom_site_label
_atom_site_type_symbol
_atom_type_description
_atom_site_fract_x
_atom_site_fract_y
_atom_site_fract_z
_atom_type_partial_charge
C1    C     C_R   0.545645 0.794071 0.498612 0.909280
C2    C     C_3   0.402931 0.373228 0.029902 -0.251854
C3    C     C_1   0.506789 0.498722 0.750566 -0.186406
C4    C     C_1   0.493046 0.501039 0.249364 -0.181402
C5    C     C_3   0.335590 0.503100 0.975342 -0.210261
C6    C     C_3   0.663820 0.496199 0.024504 -0.210260
C7    C     C_3   0.503262 0.499571 0.916690 0.105273
C8    C     C_3   0.496138 0.499767 0.083186 0.104620
C9    C     C_1   0.506941 0.498532 0.825814 -0.057445
C10   C     C_1   0.492659 0.501003 0.174095 -0.056906
C11   C     C_3   0.288304 0.864272 0.004172 -0.814301
C12   C     C_R   0.455382 0.205504 0.503154 0.905178
C13   C     C_3   0.711278 0.134926 0.995223 -0.813565
C14   C     C_3   0.876745 0.030297 0.472024 -0.702896
C15   C     C_3   0.345743 0.974897 0.664865 -0.762449
C16   C     C_R   0.502317 0.499719 0.661936 0.896244
C17   C     C_R   0.497663 0.500272 0.338041 0.896347
C18   C     C_2   0.569161 0.955717 0.488995 -0.031166
C19   C     C_2   0.439142 0.044658 0.519543 -0.034239
C20   C     C_3   0.430600 0.626497 0.029477 0.292863
C21   C     C_3   0.568793 0.372819 0.970358 0.292729
C22   C     C_3   0.596473 0.626071 0.969955 -0.252410
H1    H     H_    0.672328 0.730130 0.944067 0.145782
H2    H     H_    0.393193 0.907537 0.957194 0.240852
H3    H     H_    0.563394 0.175205 0.893259 0.220115
H4    H     H_    0.768128 0.034179 0.961345 0.236843
H5    H     H_    0.606536 0.091371 0.042197 0.240679
H6    H     H_    0.814812 0.199024 0.029227 0.249784
H7    H     H_    0.722360 0.953878 0.375664 0.215155
H8    H     H_    0.973980 0.091927 0.427423 0.217301
H9    H     H_    0.924753 0.915224 0.485688 0.235313
H10   H     H_    0.864519 0.099069 0.532311 0.246828
H11   H     H_    0.186347 0.042992 0.573818 0.235822
H12   H     H_    0.327072 0.269154 0.055766 0.146167
H13   H     H_    0.233331 0.922917 0.704369 0.237317
H14   H     H_    0.381958 0.091638 0.691322 0.223617
H15   H     H_    0.455516 0.898721 0.668415 0.233390
H16   H     H_    0.796687 0.491376 0.046126 0.148921
H17   H     H_    0.202745 0.507903 0.953689 0.148682
H18   H     H_    0.014061 0.383528 0.436001 0.193596
H19   H     H_    0.986147 0.617193 0.563688 0.194292
H20   H     H_    0.435799 0.824382 0.106335 0.219912
H21   H     H_    0.231470 0.965223 0.037850 0.237323
H22   H     H_    0.184817 0.800092 0.970174 0.249192
N1    N     N_2   0.950320 0.457950 0.477300 -0.173043
N2    N     N_2   0.049680 0.542050 0.522700 -0.171436
N3    N     N_2   0.356331 0.764877 0.065449 -0.301131
N4    N     N_2   0.642960 0.234551 0.934167 -0.301611
N5    N     N_2   0.712281 0.012995 0.433249 -0.293661
N6    N     N_2   0.299786 0.987744 0.577597 -0.292437
O1    O     O_R   0.389250 0.738570 0.505570 -0.590726
O2    O     O_R   0.610750 0.261430 0.494430 -0.584518
O3    O     O_R   0.678390 0.711630 0.491020 -0.635165
O4    O     O_R   0.321610 0.288370 0.508980 -0.645670
O5    O     O_R   0.355460 0.513480 0.630490 -0.605337
O6    O     O_R   0.644540 0.486520 0.369510 -0.607640
O7    O     O_R   0.644600 0.486540 0.615950 -0.624051
O8    O     O_R   0.355400 0.513460 0.384050 -0.622711
Zn1   Zn    Zn3+2 0.306940 0.517990 0.509710 0.947801
Zn2   Zn    Zn3+2 0.693060 0.482010 0.490290 0.947476

loop_
_geom_bond_atom_site_label_1
_geom_bond_atom_site_label_2
_ccdc_geom_bond_type
C13   N4    S    
H19   N2    S    
C6    H16   S    
C13   H6    S    
C11   H21   S    
C3    C9    T    
O5    Zn1   S    
N2    Zn1   S    
C7    C22   S    
C5    C7    S    
C17   O8    A    
C11   N3    S    
C19   N6    S    
C14   H9    S    
C16   O7    A    
C21   N4    S    
C2    H12   S    
C2    C21   S    
O8    Zn1   S    
C16   O5    A    
C11   H22   S    
N1    Zn2   S    
C5    C20   S    
H7    N5    S    
N1    N2    D    
C13   H5    S    
C1    O1    A    
H3    N4    S    
C1    C18   S    
C8    C20   S    
C14   H8    S    
C4    C17   S    
C12   C19   S    
C15   H13   S    
H20   N3    S    
C12   O2    A    
O3    Zn2   S    
C20   C22   S    
C17   O6    A    
O4    Zn1   S    
C5    H17   S    
H18   N1    S    
C12   O4    A    
C13   H4    S    
C2    C5    S    
O1    Zn1   S    
C4    C10   T    
C20   N3    S    
C11   H2    S    
C14   N5    S    
C8    C10   S    
C18   C19   D    
C15   N6    S    
C7    C9    S    
C1    O3    A    
C22   H1    S    
C15   H15   S    
O7    Zn2   S    
C6    C8    S    
O2    Zn2   S    
H11   N6    S    
C7    C21   S    
C6    C21   S    
C15   H14   S    
C2    C8    S    
C3    C16   S    
O6    Zn2   S    
C18   N5    S    
C14   H10   S    
C6    C22   S    
