data_mof_unit_59880.cif
_audit_creation_date              2012-12-10T17:02:30-0500
_audit_creation_method            fapswitch 2.2
_symmetry_space_group_name_H-M    P1
_symmetry_Int_Tables_number       1
_space_group_crystal_system       triclinic
_cell_length_a                    10.752685
_cell_length_b                    11.027744
_cell_length_c                    9.886151
_cell_angle_alpha                 111.507415
_cell_angle_beta                  97.303276
_cell_angle_gamma                 91.502884
_cell_volume                      1078.4301893

loop_
_atom_site_label
_atom_site_type_symbol
_atom_type_description
_atom_site_fract_x
_atom_site_fract_y
_atom_site_fract_z
_atom_type_partial_charge
C1    C     C_R   0.490798 0.254082 0.440395 0.837057
C2    C     C_R   0.509204 0.745918 0.559605 0.837048
C3    C     C_2   0.485843 0.114155 0.406939 -0.369264
C4    C     C_2   0.514163 0.885846 0.593061 -0.369254
C5    C     C_2   0.502252 0.069715 0.516069 -0.139884
C6    C     C_2   0.497759 0.930285 0.483932 -0.139900
C7    C     C_2   0.520442 0.496493 0.074879 0.396926
C8    C     C_2   0.479539 0.503518 0.925113 0.396936
C9    C     C_R   0.263349 0.500087 0.501870 0.798373
C10   C     C_R   0.736651 0.499916 0.498131 0.798370
C11   C     C_R   0.152245 0.738328 0.645061 -0.171950
C12   C     C_R   0.847755 0.261675 0.354944 -0.171922
C13   C     C_R   0.097990 0.855062 0.710547 -0.140597
C14   C     C_R   0.902013 0.144939 0.289469 -0.140611
C15   C     C_R   0.968282 0.855569 0.705205 -0.140041
C16   C     C_R   0.031720 0.144432 0.294820 -0.140038
C17   C     C_R   0.892397 0.739292 0.634606 -0.142929
C18   C     C_R   0.107605 0.260709 0.365412 -0.142968
C19   C     C_R   0.945617 0.619139 0.568485 0.060511
C20   C     C_R   0.054382 0.380863 0.431522 0.060474
C21   C     C_R   0.076958 0.618738 0.573482 0.063938
C22   C     C_R   0.923043 0.381264 0.426523 0.063962
C23   C     C_R   0.870216 0.500351 0.495317 -0.187984
C24   C     C_R   0.129783 0.499652 0.504687 -0.187976
Cu1   Cu    Cu3+1 0.521920 0.521810 0.644910 0.957830
Cu2   Cu    Cu3+1 0.478080 0.478190 0.355090 0.957803
H1    H     H_    0.073838 0.053518 0.244787 0.134425
H2    H     H_    0.926166 0.946481 0.755251 0.134414
H3    H     H_    0.253409 0.743265 0.650887 0.130494
H4    H     H_    0.746590 0.256738 0.349110 0.130481
H5    H     H_    0.480788 0.863550 0.369560 0.185777
H6    H     H_    0.519225 0.136451 0.630440 0.185784
H7    H     H_    0.531152 0.952857 0.707234 0.145523
H8    H     H_    0.468852 0.047144 0.292767 0.145525
H9    H     H_    0.640775 0.597989 0.921816 0.190486
H10   H     H_    0.359218 0.402015 0.078204 0.190452
N1    N     N_2   0.445130 0.445420 0.137360 -0.324874
N2    N     N_2   0.554870 0.554580 0.862640 -0.324832
O1    O     O_R   0.511700 0.332340 0.577400 -0.548331
O2    O     O_R   0.488300 0.667660 0.422600 -0.548377
O3    O     O_R   0.474680 0.295500 0.332650 -0.593569
O4    O     O_R   0.525320 0.704500 0.667350 -0.593558
O5    O     O_R   0.338170 0.518410 0.622370 -0.536597
O6    O     O_R   0.661830 0.481590 0.377630 -0.536585
O7    O     O_R   0.301150 0.481570 0.377630 -0.586326
O8    O     O_R   0.698850 0.518430 0.622370 -0.586331
H11   H     H_    0.156820 0.945558 0.764883 0.137621
H12   H     H_    0.843182 0.054443 0.235137 0.137627
H13   H     H_    0.791899 0.745052 0.631436 0.134197
H14   H     H_    0.208103 0.254949 0.368591 0.134210
O9    O     O_3   0.361150 0.449516 0.851220 -0.560266
C25   C     C_3   0.271314 0.538767 0.910111 0.067562
H15   H     H_    0.273573 0.619994 0.869087 0.175079
H16   H     H_    0.287195 0.583349 0.032527 0.104736
C26   C     C_3   0.140565 0.467617 0.862913 -0.776201
H17   H     H_    0.133118 0.393882 0.914174 0.229310
H18   H     H_    0.068571 0.538580 0.898212 0.205073
H19   H     H_    0.121968 0.417113 0.741761 0.263902
O10   O     O_3   0.638879 0.550380 0.148690 -0.560316
C27   C     C_3   0.728581 0.460970 0.089770 0.067635
H20   H     H_    0.712658 0.416392 0.967353 0.104774
H21   H     H_    0.726178 0.379755 0.130800 0.175063
C28   C     C_3   0.859419 0.531914 0.136914 -0.776214
H22   H     H_    0.878019 0.582536 0.258053 0.263951
H23   H     H_    0.931305 0.460802 0.101721 0.205099
H24   H     H_    0.867032 0.605521 0.085513 0.229268

loop_
_geom_bond_atom_site_label_1
_geom_bond_atom_site_label_2
_ccdc_geom_bond_type
Cu1   O4    S    
C10   O8    A    
C19   C23   A    
C26   H17   S    
C28   H23   S    
Cu2   N1    S    
C9    O7    A    
C19   C21   A    
C2    O2    A    
C10   C23   S    
C2    C4    S    
Cu2   O7    S    
C25   C26   S    
C20   C22   A    
C3    C5    D    
C5    H6    S    
Cu1   O5    S    
C16   H1    S    
C26   H18   S    
C6    H5    S    
C7    N1    D    
C28   H24   S    
Cu2   O6    S    
O10   C27   S    
C9    C24   S    
Cu1   O1    S    
C27   H21   S    
C11   C13   A    
C8    O9    S    
Cu2   O2    S    
C15   H2    S    
C26   H19   S    
C8    N2    D    
C2    O4    A    
C27   C28   S    
C18   H14   S    
C1    O3    A    
H10   N1    S    
C17   C19   A    
C25   H16   S    
C18   C20   A    
C13   C15   A    
C5    C6    S    
Cu1   N2    S    
C14   C16   A    
C9    O5    A    
C4    C6    D    
C1    O1    A    
C10   O6    A    
C28   H22   S    
C12   C22   A    
C7    C8    S    
H9    N2    S    
C25   H15   S    
C11   H3    S    
C16   C18   A    
C21   C24   A    
C7    O10   S    
C15   C17   A    
C20   C24   A    
C4    H7    S    
C14   H12   S    
C3    H8    S    
C12   H4    S    
Cu1   Cu2   S    
C22   C23   A    
C13   H11   S    
Cu1   O8    S    
C11   C21   A    
C17   H13   S    
O9    C25   S    
Cu2   O3    S    
C12   C14   A    
C27   H20   S    
C1    C3    S    
