data_mof_unit_65484.cif
_audit_creation_date              2012-12-11T18:32:24-0500
_audit_creation_method            fapswitch 2.2
_symmetry_space_group_name_H-M    P1
_symmetry_Int_Tables_number       1
_space_group_crystal_system       triclinic
_cell_length_a                    8.251949
_cell_length_b                    14.297886
_cell_length_c                    18.768432
_cell_angle_alpha                 94.408593
_cell_angle_beta                  92.69368
_cell_angle_gamma                 91.785096
_cell_volume                      2204.06612032

loop_
_atom_site_label
_atom_site_type_symbol
_atom_type_description
_atom_site_fract_x
_atom_site_fract_y
_atom_site_fract_z
_atom_type_partial_charge
Ba1   Ba    Ba6+2 0.841340 0.543980 0.464170 1.632585
Ba2   Ba    Ba6+2 0.348470 0.456100 0.535830 1.633695
C1    C     C_3   0.578209 0.875022 0.262989 -0.378965
C2    C     C_3   0.438415 0.511209 0.243745 -0.013459
C3    C     C_2   0.376493 0.518143 0.166706 -0.126223
C4    C     C_3   0.108029 0.744891 0.263533 0.304021
C5    C     C_2   0.218379 0.496057 0.146697 -0.077578
C6    C     C_2   0.106597 0.470780 0.204258 -0.142873
C7    C     C_1   0.160883 0.474967 0.272533 0.062636
C8    C     C_R   0.048311 0.493006 0.929234 0.463415
C9    C     C_R   0.157630 0.495946 0.069721 0.456711
C10   C     C_R   0.081999 0.528986 0.799476 -0.139008
C11   C     C_R   0.028665 0.520006 0.726490 0.071894
C12   C     C_3   0.597097 0.780331 0.293552 0.343266
C13   C     C_R   0.785667 0.435777 0.757097 0.006603
C14   C     C_R   0.838155 0.443692 0.829637 -0.124477
C15   C     C_R   0.989192 0.488706 0.851948 -0.056674
C16   C     C_3   0.093732 0.769070 0.186111 -0.347448
C17   C     C_R   0.884089 0.470414 0.706078 -0.270778
C18   C     C_R   0.700149 0.936061 0.541085 -0.039871
C19   C     C_R   0.510802 0.801446 0.499089 0.054186
C20   C     C_R   0.365368 0.769516 0.462815 -0.291885
C21   C     C_R   0.259325 0.832188 0.434094 0.013987
C22   C     C_R   0.303862 0.927164 0.436226 -0.143008
C23   C     C_3   0.439905 0.255512 0.319013 0.525421
C24   C     C_R   0.452448 0.960378 0.470170 -0.003310
C25   C     C_R   0.556207 0.898461 0.503856 -0.024423
C26   C     C_R   0.639851 0.092853 0.506991 -0.024345
C27   C     C_R   0.744076 0.032024 0.541609 0.004986
C28   C     C_3   0.189196 0.744169 0.611777 0.309414
C29   C     C_R   0.683875 0.189355 0.507668 0.019444
C30   C     C_R   0.826684 0.224112 0.544284 -0.274866
C31   C     C_R   0.934785 0.163643 0.574591 0.001303
C32   C     C_R   0.893138 0.067769 0.574243 -0.149654
C33   C     C_R   0.495310 0.055571 0.472162 -0.049308
C34   C     C_3   0.327642 0.168718 0.315025 -0.312897
C35   C     C_3   0.197068 0.850205 0.628085 -0.395128
C36   C     C_3   0.988008 0.257516 0.390492 0.291515
C37   C     C_3   0.932651 0.154850 0.371468 -0.417035
C38   C     C_3   0.700331 0.666208 0.673678 0.309715
C39   C     C_3   0.720704 0.694053 0.753552 -0.390437
C40   C     C_3   0.634348 0.312188 0.232748 -0.162410
C41   C     C_3   0.244443 0.246465 0.856501 -0.175780
C42   C     C_3   0.072155 0.225728 0.742998 0.542091
C43   C     C_3   0.983033 0.141181 0.770574 -0.355427
C44   C     C_3   0.586885 0.207113 0.700797 0.380899
C45   C     C_3   0.560429 0.109052 0.725547 -0.379981
C46   C     C_2   0.300567 0.517310 0.293658 -0.238136
H1    H     H_    0.721086 0.778408 0.318745 0.114777
H2    H     H_    0.819514 0.647458 0.653349 0.010443
H3    H     H_    0.614035 0.604797 0.665187 0.069873
H4    H     H_    0.669011 0.884511 0.222065 0.136015
H5    H     H_    0.811152 0.753323 0.763647 0.124608
H6    H     H_    0.763021 0.634172 0.782638 0.064702
H7    H     H_    0.602703 0.715770 0.774414 0.130898
H8    H     H_    0.506144 0.773704 0.334630 -0.017867
H9    H     H_    0.597469 0.932034 0.306522 0.080209
H10   H     H_    0.378663 0.318257 0.342237 -0.004164
H11   H     H_    0.273358 0.163284 0.366907 0.067996
H12   H     H_    0.294414 0.870372 0.669821 0.125991
H13   H     H_    0.229126 0.173105 0.273155 0.099701
H14   H     H_    0.396073 0.104451 0.301747 0.100302
H15   H     H_    0.454194 0.879505 0.238094 0.114007
H16   H     H_    0.157906 0.716771 0.151938 0.090359
H17   H     H_    0.979125 0.267692 0.716361 -0.059519
H18   H     H_    0.070184 0.093146 0.794191 0.108602
H19   H     H_    0.897526 0.165348 0.811510 0.090265
H20   H     H_    0.913924 0.100742 0.725736 0.068937
H21   H     H_    0.716997 0.217571 0.690612 -0.081846
H22   H     H_    0.514082 0.211243 0.650046 0.104132
H23   H     H_    0.223003 0.885912 0.579384 0.067398
H24   H     H_    0.623190 0.103741 0.778587 0.110051
H25   H     H_    0.609012 0.056310 0.686335 0.072720
H26   H     H_    0.052066 0.673686 0.266323 0.078581
H27   H     H_    0.429268 0.092701 0.729915 0.148439
H28   H     H_    0.463077 0.534614 0.127306 0.109167
H29   H     H_    0.981400 0.448957 0.189994 0.111837
H30   H     H_    0.194885 0.567310 0.815066 0.109253
H31   H     H_    0.761118 0.414788 0.868208 0.098517
H32   H     H_    0.312177 0.561114 0.343692 0.055087
H33   H     H_    0.842699 0.464075 0.650311 0.065025
H34   H     H_    0.079016 0.874057 0.647534 0.115086
H35   H     H_    0.330269 0.695727 0.460268 0.067209
H36   H     H_    0.221674 0.975107 0.412496 0.070826
H37   H     H_    0.977656 0.021388 0.598112 0.065009
H38   H     H_    0.238993 0.744511 0.280218 -0.024894
H39   H     H_    0.859873 0.297931 0.544278 0.061409
H40   H     H_    0.780385 0.891982 0.569488 0.098717
H41   H     H_    0.412200 0.100254 0.447400 0.091304
H42   H     H_    0.963904 0.768091 0.167408 0.134080
H43   H     H_    0.149110 0.839917 0.181132 0.115430
H44   H     H_    0.309744 0.720618 0.596582 0.007612
H45   H     H_    0.887106 0.296182 0.413800 0.040115
H46   H     H_    0.097970 0.726370 0.567047 0.064549
H47   H     H_    0.383189 0.297739 0.216566 0.153006
H48   H     H_    0.642605 0.321165 0.174763 0.082374
H49   H     H_    0.732941 0.266132 0.249114 0.151436
H50   H     H_    0.649180 0.381501 0.262506 0.118761
H51   H     H_    0.201872 0.346452 0.783574 0.228749
H52   H     H_    0.312949 0.302924 0.890376 0.122187
H53   H     H_    0.331780 0.197252 0.832595 0.150202
H54   H     H_    0.164688 0.208735 0.891605 0.089601
H55   H     H_    0.091025 0.260296 0.430806 0.057341
H56   H     H_    0.819199 0.150126 0.337551 0.156152
H57   H     H_    0.914222 0.118447 0.420465 0.073092
H58   H     H_    0.022006 0.115108 0.340693 0.116097
N1    N     N_R   0.201721 0.524520 0.950288 -0.243662
N2    N     N_R   0.255004 0.525872 0.018768 -0.244550
N3    N     N_R   0.004073 0.464825 0.048724 -0.246613
N4    N     N_R   0.950968 0.463209 0.980222 -0.245567
N5    N     N_2   0.477685 0.270822 0.245678 -0.449411
N6    N     N_2   0.147348 0.287431 0.801347 -0.427174
O1    O     O_2   0.878750 0.447310 0.330740 -0.470845
O2    O     O_2   0.269910 0.167268 0.563490 -0.499773
O3    O     O_3   0.192319 0.193660 0.696694 -0.597486
O4    O     O_3   0.131030 0.448880 0.418060 -0.484943
O5    O     O_3   0.553640 0.613150 0.531430 -0.484183
O6    O     O_2   0.393070 0.270760 0.474720 -0.481171
O7    O     O_3   0.582136 0.237474 0.359436 -0.662152
O8    O     O_2   0.449522 0.448938 0.756098 -0.482641
O9    O     O_3   0.538762 0.274488 0.753469 -0.596267
O10   O     O_3   0.627390 0.618170 0.367170 -0.486626
O11   O     O_2   0.770197 0.571256 0.246661 -0.491157
O12   O     O_3   0.641118 0.742733 0.639652 -0.640376
O13   O     O_3   0.036148 0.297005 0.328523 -0.651079
O14   O     O_3   0.571704 0.708279 0.238541 -0.607014
O15   O     O_2   0.796630 0.729270 0.525320 -0.473134
O16   O     O_3   0.039210 0.666640 0.400620 -0.485575
O17   O     O_2   0.919912 0.833786 0.435480 -0.492379
O18   O     O_3   0.026680 0.811445 0.306425 -0.604592
O19   O     O_2   0.310950 0.552720 0.669300 -0.457032
O20   O     O_3   0.058670 0.551200 0.581940 -0.499625
O21   O     O_3   0.562310 0.381900 0.632830 -0.484625
O22   O     O_3   0.146092 0.702674 0.673438 -0.635531
O23   O     O_3   0.636050 0.386930 0.468580 -0.456604
O24   O     O_3   0.150490 0.333430 0.599380 -0.466606
P1    P     P_3+3 0.053470 0.419720 0.342720 0.974548
P2    P     P_3+3 0.625250 0.715650 0.546950 0.973400
P3    P     P_3+3 0.060677 0.787619 0.395840 0.935226
P4    P     P_3+3 0.136230 0.580350 0.657290 0.985207
P5    P     P_3+3 0.135827 0.212509 0.607834 0.946463
P6    P     P_3+3 0.603262 0.599856 0.273979 0.956808
P7    P     P_3+3 0.573241 0.269199 0.451871 0.927765
P8    P     P_3+3 0.583916 0.386336 0.726100 0.956626

loop_
_geom_bond_atom_site_label_1
_geom_bond_atom_site_label_2
_ccdc_geom_bond_type
C37   H58   S    
C12   H8    S    
O3    P5    S    
C9    N3    A    
O7    P7    S    
O5    P2    S    
O8    P8    D    
Ba1   O16   S    
C4    O18   S    
C34   H11   S    
Ba2   O6    S    
C37   H56   S    
C5    C9    S    
C24   C25   A    
O24   P5    S    
C40   H48   S    
C16   H43   S    
O12   P2    S    
C26   C27   A    
O16   P3    S    
C22   C24   A    
C40   H50   S    
O22   P4    S    
C36   C37   S    
C12   H1    S    
C8    C15   S    
C13   C14   A    
O11   P6    D    
C37   H57   S    
Ba1   Ba2   S    
Ba1   O10   S    
C39   H7    S    
C44   H21   S    
O19   P4    D    
Ba2   O4    S    
C42   O3    S    
C14   C15   A    
C28   O22   S    
C10   H30   S    
C10   C15   A    
C43   H19   S    
Ba2   O20   S    
C21   C22   A    
C44   O9    S    
O15   P2    D    
Ba1   O20   S    
O23   P7    S    
C19   C25   A    
C19   C20   A    
O9    P8    S    
C42   H17   S    
Ba1   O1    S    
C19   P2    S    
C34   H14   S    
O18   P3    S    
C23   O7    S    
C45   H24   S    
C42   N6    S    
Ba2   O5    S    
C4    H26   S    
C18   C27   A    
C4    C16   S    
Ba2   O21   S    
Ba2   O19   S    
C11   C17   A    
C16   H42   S    
C11   P4    S    
C5    C6    S    
C41   H52   S    
C45   H25   S    
C28   H44   S    
O6    P7    D    
C40   H49   S    
C17   H33   S    
C3    C5    D    
C6    C7    D    
O13   P1    S    
C30   H39   S    
C27   C32   A    
O14   P6    S    
Ba2   O24   S    
C28   C35   S    
C32   H37   S    
C13   C17   A    
C40   N5    S    
C41   H53   S    
C36   H55   S    
C29   C30   A    
O17   P3    D    
N1    N2    A    
C43   H20   S    
C31   C32   A    
Ba1   O5    S    
C38   O12   S    
C39   H5    S    
C1    C12   S    
C1    H9    S    
C38   C39   S    
Ba1   O4    S    
C35   H23   S    
C6    H29   S    
O1    P1    D    
C35   H34   S    
C41   N6    S    
O10   P6    S    
C34   H13   S    
C33   H41   S    
C9    N2    A    
C36   O13   S    
Ba1   P1    S    
C42   C43   S    
O4    P1    S    
C2    C46   S    
C21   P3    S    
C26   C33   A    
C44   C45   S    
O21   P8    S    
C8    N1    A    
C26   C29   A    
Ba1   O15   S    
C2    C3    S    
C4    H38   S    
C1    H4    S    
C18   C25   A    
C1    H15   S    
O20   P4    S    
C38   H3    S    
Ba2   O23   S    
C12   O14   S    
C14   H31   S    
C31   P5    S    
C30   C31   A    
C46   H32   S    
C3    H28   S    
C22   H36   S    
C41   H54   S    
C7    P1    S    
C28   H46   S    
H47   N5    S    
N3    N4    A    
C20   H35   S    
C2    P6    S    
C16   H16   S    
C38   H2    S    
H51   N6    S    
C18   H40   S    
C36   H45   S    
C8    N4    A    
C29   P7    S    
C39   H6    S    
C44   H22   S    
C35   H12   S    
C23   N5    S    
C23   C34   S    
C45   H27   S    
C13   P8    S    
C24   C33   A    
C10   C11   A    
C7    C46   D    
C23   H10   S    
C43   H18   S    
C20   C21   A    
Ba2   P4    S    
O2    P5    D    
Ba1   O23   S    
Ba1   P2    S    
