data_mof_unit_36808.cif
_audit_creation_date              2012-12-10T18:46:15-0500
_audit_creation_method            fapswitch 2.2
_symmetry_space_group_name_H-M    P1
_symmetry_Int_Tables_number       1
_space_group_crystal_system       triclinic
_cell_length_a                    9.939917
_cell_length_b                    10.630103
_cell_length_c                    13.436289
_cell_angle_alpha                 90.166127
_cell_angle_beta                  71.375384
_cell_angle_gamma                 88.388287
_cell_volume                      1344.72333975

loop_
_atom_site_label
_atom_site_type_symbol
_atom_type_description
_atom_site_fract_x
_atom_site_fract_y
_atom_site_fract_z
_atom_type_partial_charge
C1    C     C_R   0.498701 0.739704 0.500300 0.862456
C2    C     C_R   0.446943 0.515697 0.979749 0.075448
C3    C     C_R   0.490020 0.527527 0.869716 0.072604
C4    C     C_R   0.553450 0.500741 0.028685 0.043502
C5    C     C_R   0.697447 0.473937 0.967938 0.150310
C6    C     C_R   0.737691 0.485664 0.858851 0.044297
C7    C     C_R   0.637838 0.534776 0.816166 -0.237161
C8    C     C_R   0.520993 0.515087 0.136305 -0.252636
C9    C     C_R   0.761405 0.454486 0.126810 -0.212915
C10   C     C_R   0.384772 0.528025 0.817449 -0.103046
C11   C     C_R   0.574544 0.933681 0.556067 -0.194902
C12   C     C_R   0.423745 0.509176 0.702729 0.853598
C13   C     C_R   0.578614 0.062500 0.553838 -0.199758
C14   C     C_R   0.504672 0.127820 0.496976 -0.007263
C15   C     C_R   0.429109 0.066505 0.440604 -0.192654
C16   C     C_R   0.426935 0.937602 0.441479 -0.213576
C17   C     C_R   0.498010 0.872308 0.500358 -0.002546
C18   C     C_R   0.944187 0.394748 0.471562 -0.086161
C19   C     C_R   0.087301 0.394784 0.471406 -0.127801
C20   C     C_R   0.052228 0.607411 0.527285 0.158775
C21   C     C_R   0.909855 0.604494 0.527585 -0.135573
C22   C     C_R   0.501814 0.260355 0.498978 0.875851
C23   C     C_R   0.577696 0.498497 0.298045 0.872169
C24   C     C_R   0.799050 0.446702 0.018497 -0.221859
C25   C     C_R   0.622886 0.491104 0.185118 -0.042568
C26   C     C_R   0.241079 0.537173 0.876833 -0.222559
C27   C     C_R   0.198939 0.532845 0.985533 -0.144447
C28   C     C_R   0.299676 0.517630 0.036616 -0.178222
H1    H     H_    0.840594 0.433490 0.164623 0.157058
H2    H     H_    0.636107 0.111027 0.597960 0.144598
H3    H     H_    0.373534 0.118222 0.395410 0.142523
H4    H     H_    0.372439 0.889256 0.395251 0.136804
H5    H     H_    0.903382 0.309985 0.448694 0.135702
H6    H     H_    0.152943 0.310088 0.448356 0.141888
H7    H     H_    0.839432 0.686373 0.550829 0.137336
H8    H     H_    0.908555 0.422441 0.975569 0.152331
H9    H     H_    0.417293 0.550118 0.183363 0.158624
H10   H     H_    0.161275 0.544876 0.838701 0.143194
H11   H     H_    0.258782 0.504281 0.120341 0.130491
H12   H     H_    0.087128 0.536855 0.030533 0.141006
H13   H     H_    0.680552 0.580653 0.741928 0.181978
H14   H     H_    0.629942 0.882073 0.601455 0.136935
N1    N     N_R   0.142790 0.500030 0.500030 -0.090903
N2    N     N_R   0.857180 0.499940 0.500010 -0.090316
O1    O     O_R   0.385370 0.683250 0.500010 -0.632965
O2    O     O_R   0.614700 0.683220 0.500010 -0.630385
O3    O     O_R   0.328400 0.499990 0.653620 -0.631530
O4    O     O_R   0.557730 0.499960 0.653620 -0.621702
O5    O     O_R   0.385300 0.316780 0.499990 -0.631955
O6    O     O_R   0.614630 0.316750 0.499990 -0.623603
O7    O     O_R   0.442270 0.500040 0.346380 -0.621636
O8    O     O_R   0.671600 0.500010 0.346380 -0.612502
Zn1   Zn    Zn3+2 0.346870 0.500020 0.500000 0.922460
Zn2   Zn    Zn3+2 0.653130 0.499980 0.500000 0.936117
C29   C     C_3   0.093192 0.736166 0.554969 -0.377380
C30   C     C_3   0.100222 0.744325 0.667205 -0.320273
C31   C     C_3   0.117610 0.879522 0.698708 -0.909274
H15   H     H_    0.024992 0.939629 0.697318 0.257213
H16   H     H_    0.124499 0.881339 0.779569 0.253175
H17   H     H_    0.216025 0.918661 0.644583 0.280704
H18   H     H_    0.000496 0.708932 0.723026 0.196901
H19   H     H_    0.189616 0.686550 0.674950 0.263197
H20   H     H_    0.185199 0.770726 0.493010 0.219108
H21   H     H_    0.011418 0.808264 0.551507 0.160951
C32   C     C_3   0.886066 0.452881 0.786852 -0.418459
C33   C     C_3   0.915402 0.309686 0.779887 -0.348016
C34   C     C_3   0.074167 0.277458 0.736825 -0.839496
H22   H     H_    0.121746 0.321295 0.659331 0.292818
H23   H     H_    0.128468 0.311316 0.791900 0.260589
H24   H     H_    0.091262 0.173883 0.727444 0.243520
H25   H     H_    0.872554 0.265589 0.858091 0.225359
H26   H     H_    0.861454 0.267446 0.727528 0.222491
H27   H     H_    0.900632 0.486305 0.706407 0.207135
H28   H     H_    0.963415 0.502930 0.814261 0.184825

loop_
_geom_bond_atom_site_label_1
_geom_bond_atom_site_label_2
_ccdc_geom_bond_type
C2    C4    A    
C29   C30   S    
C9    C24   A    
C15   H3    S    
C6    C7    A    
C21   H7    S    
C26   H10   S    
C18   N2    A    
C2    C3    A    
C16   H4    S    
C21   N2    A    
C4    C8    A    
C23   O7    A    
C33   H25   S    
C9    H1    S    
C27   H12   S    
C22   O6    A    
C34   H24   S    
C1    O1    A    
C29   H21   S    
C10   C26   A    
C23   C25   S    
C33   C34   S    
C23   O8    A    
O1    Zn1   S    
C3    C10   A    
O6    Zn2   S    
C13   C14   A    
C30   C31   S    
O4    Zn2   S    
C8    C25   A    
C11   C13   A    
O2    Zn2   S    
C26   C27   A    
C24   H8    S    
C5    C24   A    
C10   C12   S    
C12   O3    A    
O5    Zn1   S    
O3    Zn1   S    
C12   O4    A    
C19   N1    A    
C32   C33   S    
C3    C7    A    
C7    H13   S    
C5    C6    A    
C18   H5    S    
C30   H19   S    
C1    O2    A    
C31   H16   S    
C20   C29   S    
C8    H9    S    
C9    C25   A    
C34   H22   S    
N2    Zn2   S    
C13   H2    S    
C4    C5    A    
C20   N1    A    
C32   H27   S    
C20   C21   A    
C11   H14   S    
C14   C22   S    
C18   C19   A    
C22   O5    A    
C27   C28   A    
C14   C15   A    
C11   C17   A    
C31   H17   S    
C2    C28   A    
C28   H11   S    
O7    Zn1   S    
C31   H15   S    
C30   H18   S    
C1    C17   S    
N1    Zn1   S    
C6    C32   S    
C33   H26   S    
C32   H28   S    
C15   C16   A    
O8    Zn2   S    
C16   C17   A    
C34   H23   S    
C19   H6    S    
C29   H20   S    
