data_mof_unit_21823.cif
_audit_creation_date              2012-12-10T18:21:16-0500
_audit_creation_method            fapswitch 2.2
_symmetry_space_group_name_H-M    P1
_symmetry_Int_Tables_number       1
_space_group_crystal_system       triclinic
_cell_length_a                    14.996584
_cell_length_b                    13.986693
_cell_length_c                    10.677387
_cell_angle_alpha                 89.972292
_cell_angle_beta                  90.314803
_cell_angle_gamma                 89.719736
_cell_volume                      2239.54897074

loop_
_atom_site_label
_atom_site_type_symbol
_atom_type_description
_atom_site_fract_x
_atom_site_fract_y
_atom_site_fract_z
_atom_type_partial_charge
C1    C     C_R   0.326487 0.500177 0.498002 0.977382
C2    C     C_3   0.593794 0.480695 0.933784 0.731453
C3    C     C_R   0.816160 0.410595 0.491648 0.528906
C4    C     C_R   0.769469 0.497783 0.483395 -0.200933
C5    C     C_R   0.814562 0.583751 0.463789 -0.358848
C6    C     C_R   0.906747 0.584386 0.459129 0.125197
C7    C     C_R   0.953931 0.497485 0.472466 -0.020652
C8    C     C_R   0.908436 0.410149 0.486999 -0.006796
C9    C     C_R   0.952472 0.670678 0.444223 -0.190362
C10   C     C_R   0.045182 0.671313 0.446068 -0.224455
C11   C     C_R   0.092421 0.585653 0.462757 0.111879
C12   C     C_R   0.493929 0.500176 0.257765 1.045932
C13   C     C_R   0.046744 0.498141 0.474169 0.099012
C14   C     C_R   0.093869 0.411482 0.490325 0.115422
C15   C     C_R   0.048509 0.324856 0.501226 -0.253198
C16   C     C_R   0.956048 0.324126 0.499592 -0.161870
C17   C     C_R   0.184632 0.585980 0.470524 -0.258805
C18   C     C_R   0.230815 0.500028 0.489495 -0.041938
C19   C     C_R   0.185773 0.413050 0.497652 -0.253701
C20   C     C_R   0.570346 0.797752 0.449327 -0.071488
C21   C     C_R   0.569324 0.201560 0.446491 -0.009143
C22   C     C_R   0.429986 0.798410 0.551527 -0.064993
C23   C     C_R   0.430531 0.202257 0.552955 -0.070205
C24   C     C_R   0.428229 0.899109 0.552668 0.006809
C25   C     C_R   0.428465 0.101580 0.553281 0.008791
C26   C     C_R   0.673527 0.499484 0.493737 0.893477
C27   C     C_R   0.499830 0.949365 0.499508 0.089465
C28   C     C_R   0.499778 0.050623 0.499368 0.080807
C29   C     C_R   0.571753 0.898418 0.447212 0.012148
C30   C     C_R   0.571187 0.100872 0.445696 -0.002474
C31   C     C_R   0.357090 0.950485 0.605737 -0.208212
C32   C     C_R   0.357288 0.050909 0.606256 -0.205521
C33   C     C_R   0.642564 0.049506 0.393281 -0.185285
C34   C     C_R   0.643082 0.949109 0.394686 -0.223057
C35   C     C_R   0.499095 0.500301 0.742622 1.074272
C36   C     C_3   0.472796 0.607515 0.071608 0.762940
C37   C     C_3   0.414029 0.430970 0.071394 0.713458
C38   C     C_3   0.462743 0.600535 0.926264 0.237170
C39   C     C_3   0.429535 0.424064 0.925241 0.249512
C40   C     C_3   0.581669 0.463179 0.075668 -0.628852
C41   C     C_3   0.489319 0.500918 0.120544 -0.211472
C42   C     C_3   0.497270 0.501458 0.879419 -0.286425
H1    H     H_    0.079859 0.738700 0.436398 0.143346
H2    H     H_    0.220196 0.653025 0.462584 0.158195
H3    H     H_    0.222007 0.346496 0.511256 0.160131
H4    H     H_    0.084485 0.258011 0.512935 0.146012
H5    H     H_    0.922114 0.256425 0.510197 0.197361
H6    H     H_    0.625202 0.757176 0.410703 0.139715
H7    H     H_    0.623037 0.241516 0.404451 0.179994
H8    H     H_    0.375679 0.758426 0.592074 0.156243
H9    H     H_    0.376704 0.242751 0.594779 0.150059
H10   H     H_    0.301460 0.913032 0.647115 0.143218
H11   H     H_    0.301815 0.088914 0.648047 0.140002
H12   H     H_    0.698198 0.086951 0.351901 0.152867
H13   H     H_    0.699257 0.911189 0.354711 0.140265
H14   H     H_    0.502429 0.658610 0.883532 0.138635
H15   H     H_    0.460795 0.353261 0.905920 0.150943
H16   H     H_    0.637102 0.497798 0.128615 0.224654
H17   H     H_    0.587051 0.385752 0.097769 0.210327
H18   H     H_    0.778095 0.650514 0.453917 0.178568
H19   H     H_    0.916567 0.737632 0.433298 0.139392
N1    N     N_R   0.500070 0.750030 0.500050 -0.105438
N2    N     N_R   0.500070 0.249970 0.500050 -0.108560
O1    O     O_R   0.367860 0.580280 0.500020 -0.627396
O2    O     O_R   0.367860 0.419720 0.500020 -0.636586
O3    O     O_R   0.500000 0.580270 0.314790 -0.570331
O4    O     O_R   0.500000 0.419730 0.314790 -0.600777
O5    O     O_R   0.632160 0.580270 0.499960 -0.658674
O6    O     O_R   0.632160 0.419730 0.499960 -0.564335
O7    O     O_R   0.500030 0.580270 0.685200 -0.634793
O8    O     O_R   0.500030 0.419730 0.685200 -0.585481
Zn1   Zn    Zn3+2 0.500020 0.607200 0.499990 0.974453
Zn2   Zn    Zn3+2 0.500020 0.392800 0.499990 1.014216
O9    O     O_3   0.552938 0.658099 0.102442 -0.610259
C43   C     C_3   0.546506 0.758701 0.098421 0.158896
H20   H     H_    0.505370 0.785177 0.177156 0.176400
H21   H     H_    0.520454 0.784936 0.007302 0.099488
C44   C     C_3   0.639408 0.800267 0.113743 -0.830168
H22   H     H_    0.681241 0.780353 0.032468 0.263201
H23   H     H_    0.635218 0.879437 0.119401 0.204588
H24   H     H_    0.671604 0.772221 0.200082 0.246273
O10   O     O_3   0.431290 0.339323 0.126152 -0.634799
C45   C     C_3   0.362045 0.272593 0.109432 0.118565
H25   H     H_    0.343702 0.264718 0.008977 0.138497
H26   H     H_    0.303049 0.293229 0.166038 0.174081
C46   C     C_3   0.394004 0.175550 0.156456 -0.837392
H27   H     H_    0.411338 0.179871 0.257543 0.265183
H28   H     H_    0.340495 0.121773 0.143650 0.204144
H29   H     H_    0.453788 0.152291 0.103370 0.255959
O11   O     O_3   0.397428 0.644677 0.140063 -0.591992
C47   C     C_3   0.343479 0.716093 0.083299 0.182585
H30   H     H_    0.285231 0.681706 0.037666 0.210797
H31   H     H_    0.378392 0.760148 0.013044 0.121586
C48   C     C_3   0.306240 0.781360 0.184734 -0.906208
H32   H     H_    0.360821 0.818086 0.235772 0.250462
H33   H     H_    0.261878 0.836185 0.141704 0.213634
H34   H     H_    0.267033 0.738817 0.252706 0.263944
O12   O     O_3   0.332147 0.470214 0.119249 -0.615144
C49   C     C_3   0.253513 0.460935 0.047045 0.196546
H35   H     H_    0.245632 0.389165 0.004903 0.150300
H36   H     H_    0.251296 0.516588 0.973114 0.248560
C50   C     C_3   0.173861 0.478041 0.131982 -0.907280
H37   H     H_    0.178066 0.550203 0.175027 0.274822
H38   H     H_    0.111044 0.473253 0.076849 0.219952
H39   H     H_    0.172715 0.423433 0.207502 0.260998
F1    F     F_    0.376119 0.612689 0.883422 -0.685457
F2    F     F_    0.352800 0.425599 0.852506 -0.684758
O13   O     O_3   0.648950 0.563721 0.921850 -0.618954
C51   C     C_3   0.697549 0.570312 0.809120 0.152379
H40   H     H_    0.669791 0.526407 0.732790 0.154294
H41   H     H_    0.767280 0.546713 0.826449 0.146849
C52   C     C_3   0.700109 0.674174 0.766782 -0.828331
H42   H     H_    0.733465 0.718542 0.839039 0.243377
H43   H     H_    0.738329 0.680191 0.678580 0.217703
H44   H     H_    0.631553 0.701832 0.750477 0.260785
O14   O     O_3   0.630872 0.397891 0.873765 -0.642197
C53   C     C_3   0.712586 0.365983 0.927437 0.055411
H45   H     H_    0.698945 0.307654 0.995213 0.155932
H46   H     H_    0.750026 0.423162 0.977228 0.158047
C54   C     C_3   0.771595 0.325112 0.824909 -0.757878
H47   H     H_    0.789025 0.381855 0.756890 0.247331
H48   H     H_    0.834043 0.296003 0.866640 0.195557
H49   H     H_    0.736250 0.266774 0.774862 0.287599
F3    F     F_    0.772647 0.326336 0.507484 -0.695481

loop_
_geom_bond_atom_site_label_1
_geom_bond_atom_site_label_2
_ccdc_geom_bond_type
C27   C29   A    
C24   C27   A    
C31   H10   S    
O1    Zn1   S    
C6    C9    A    
C52   H43   S    
C7    C8    A    
C54   H47   S    
C25   C28   A    
C39   F2    S    
C1    C18   S    
C9    H19   S    
C38   C42   S    
C53   H46   S    
C5    C6    A    
C46   H28   S    
C47   H31   S    
C15   C16   A    
C39   H15   S    
O2    Zn2   S    
O13   C51   S    
C50   H39   S    
C18   C19   A    
C35   C42   S    
C37   O12   S    
C17   H2    S    
C2    O14   S    
O3    Zn1   S    
C45   H25   S    
C35   O7    A    
C1    O2    A    
O6    Zn2   S    
O4    Zn2   S    
C9    C10   A    
C30   C33   A    
C54   H49   S    
C22   H8    S    
C25   C32   A    
C23   N2    A    
C35   O8    A    
C34   H13   S    
C8    C16   A    
C40   H17   S    
C13   C14   A    
C37   C41   S    
C36   C41   S    
C50   H37   S    
C16   H5    S    
C21   H7    S    
C52   H42   S    
C54   H48   S    
C17   C18   A    
C39   C42   S    
C20   C29   A    
C12   O4    A    
C40   H16   S    
O9    C43   S    
C3    C8    A    
C53   C54   S    
C47   H30   S    
O8    Zn2   S    
C46   H27   S    
N2    Zn2   S    
C48   H34   S    
C12   O3    A    
C29   C34   A    
C38   F1    S    
C48   H33   S    
C43   H20   S    
C12   C41   S    
C22   N1    A    
C23   H9    S    
C49   H35   S    
O5    Zn1   S    
C45   C46   S    
C33   C34   A    
N1    Zn1   S    
C50   H38   S    
C43   H21   S    
C20   H6    S    
C36   O9    S    
C40   C41   S    
C49   H36   S    
O12   C49   S    
C22   C24   A    
C37   O10   S    
C51   C52   S    
C3    C4    A    
C1    O1    A    
C32   H11   S    
C3    F3    S    
C36   O11   S    
C33   H12   S    
C11   C17   A    
C5    H18   S    
C45   H26   S    
C10   H1    S    
C44   H22   S    
C14   C19   A    
C31   C32   A    
C4    C5    A    
C46   H29   S    
C4    C26   S    
C19   H3    S    
C6    C7    A    
C21   C30   A    
C26   O5    A    
C51   H41   S    
C24   C31   A    
C28   C30   A    
C37   C39   S    
C51   H40   S    
C36   C38   S    
C11   C13   A    
C44   H24   S    
O11   C47   S    
C2    C42   S    
C2    O13   S    
O14   C53   S    
C44   H23   S    
C23   C25   A    
C20   N1    A    
C48   H32   S    
C43   C44   S    
C21   N2    A    
C10   C11   A    
C2    C40   S    
C7    C13   A    
C49   C50   S    
C38   H14   S    
O10   C45   S    
C27   C28   A    
C26   O6    A    
C14   C15   A    
O7    Zn1   S    
C15   H4    S    
C53   H45   S    
C52   H44   S    
C47   C48   S    
