data_mof_unit_63794.cif
_audit_creation_date              2013-03-05T16:42:39-0500
_audit_creation_method            fapswitch 2.2
_symmetry_space_group_name_H-M    P1
_symmetry_Int_Tables_number       1
_space_group_crystal_system       triclinic
_cell_length_a                    28.162105
_cell_length_b                    28.168407
_cell_length_c                    51.313737
_cell_angle_alpha                 90.040391
_cell_angle_beta                  89.990526
_cell_angle_gamma                 89.994924
_cell_volume                      40706.2343856

loop_
_atom_site_label
_atom_site_type_symbol
_atom_site_description
_atom_site_fract_x
_atom_site_fract_y
_atom_site_fract_z
_atom_type_partial_charge
Zn1   Zn    Zn3+2 0.000000 0.556130 0.272120 1.148647
Zn2   Zn    Zn3+2 0.000000 0.443870 0.727880 1.138815
Zn3   Zn    Zn3+2 0.443870 1.000000 0.272120 1.148864
Zn4   Zn    Zn3+2 0.556130 0.000000 0.727880 1.145529
Zn5   Zn    Zn3+2 1.000000 0.443870 0.272120 1.150554
Zn6   Zn    Zn3+2 1.000000 0.556130 0.727880 1.138820
Zn7   Zn    Zn3+2 0.556130 1.000000 0.272120 1.146803
Zn8   Zn    Zn3+2 0.443870 0.000000 0.727880 1.148472
Zn9   Zn    Zn3+2 0.500000 0.056130 0.772120 1.145543
Zn10  Zn    Zn3+2 0.500000 0.943870 0.227880 1.146734
Zn11  Zn    Zn3+2 0.943870 0.500000 0.772120 1.146205
Zn12  Zn    Zn3+2 0.056130 0.500000 0.227880 1.141884
Zn13  Zn    Zn3+2 0.500000 0.943870 0.772120 1.143649
Zn14  Zn    Zn3+2 0.500000 0.056130 0.227880 1.148954
Zn15  Zn    Zn3+2 0.056130 0.500000 0.772120 1.146271
Zn16  Zn    Zn3+2 0.943870 0.500000 0.227880 1.143059
O1    O     O_3   0.000000 0.500000 0.250000 -0.576933
O2    O     O_3   0.000000 0.500000 0.750000 -0.576212
O3    O     O_3   0.500000 1.000000 0.250000 -0.579054
O4    O     O_3   0.500000 1.000000 0.750000 -0.575132
O5    O     O_R   0.039230 0.500000 0.192340 -0.599322
O6    O     O_R   0.960770 0.500000 0.807660 -0.593324
O7    O     O_R   0.500000 0.039230 0.192340 -0.595063
O8    O     O_R   0.500000 0.960770 0.807660 -0.602866
O9    O     O_R   0.960770 0.500000 0.192340 -0.602790
O10   O     O_R   0.039230 0.500000 0.807660 -0.593354
O11   O     O_R   0.500000 0.960770 0.192340 -0.592042
O12   O     O_R   0.500000 0.039230 0.807660 -0.601617
O13   O     O_R   0.539230 0.000000 0.692340 -0.599579
O14   O     O_R   0.460770 0.000000 0.307660 -0.594804
O15   O     O_R   0.000000 0.539230 0.692340 -0.600998
O16   O     O_R   0.000000 0.460770 0.307660 -0.594988
O17   O     O_R   0.460770 0.000000 0.692340 -0.601873
O18   O     O_R   0.539230 0.000000 0.307660 -0.592334
O19   O     O_R   0.000000 0.460770 0.692340 -0.600966
O20   O     O_R   1.000000 0.539230 0.307660 -0.591936
O21   O     O_R   0.905530 0.555290 0.235160 -0.603596
O22   O     O_R   0.094470 0.444710 0.764840 -0.597311
O23   O     O_R   0.444710 0.905530 0.235160 -0.594942
O24   O     O_R   0.555290 0.094470 0.764840 -0.596411
O25   O     O_R   0.094470 0.444710 0.235160 -0.601101
O26   O     O_R   0.905530 0.555290 0.764840 -0.597741
O27   O     O_R   0.555290 0.094470 0.235160 -0.596400
O28   O     O_R   0.444710 0.905530 0.764840 -0.596546
O29   O     O_R   0.905530 0.444710 0.764840 -0.592158
O30   O     O_R   0.094470 0.555290 0.235160 -0.598584
O31   O     O_R   0.444710 0.094470 0.764840 -0.601352
O32   O     O_R   0.555290 0.905530 0.235160 -0.599544
O33   O     O_R   0.094470 0.555290 0.764840 -0.592130
O34   O     O_R   0.905530 0.444710 0.235160 -0.597232
O35   O     O_R   0.555290 0.905530 0.764840 -0.602241
O36   O     O_R   0.444710 0.094470 0.235160 -0.596544
O37   O     O_R   0.405530 0.055290 0.735160 -0.601416
O38   O     O_R   0.594470 0.944710 0.264840 -0.598877
O39   O     O_R   0.944710 0.405530 0.735160 -0.600821
O40   O     O_R   0.055290 0.594470 0.264840 -0.598910
O41   O     O_R   0.594470 0.944710 0.735160 -0.599338
O42   O     O_R   0.405530 0.055290 0.264840 -0.597369
O43   O     O_R   0.055290 0.594470 0.735160 -0.600717
O44   O     O_R   0.944710 0.405530 0.264840 -0.596054
O45   O     O_R   0.405530 0.944710 0.264840 -0.596627
O46   O     O_R   0.594470 0.055290 0.735160 -0.599305
O47   O     O_R   0.944710 0.594470 0.264840 -0.592902
O48   O     O_R   0.055290 0.405530 0.735160 -0.597701
O49   O     O_R   0.594470 0.055290 0.264840 -0.594924
O50   O     O_R   0.405530 0.944710 0.735160 -0.597092
O51   O     O_R   0.055290 0.405530 0.264840 -0.594971
O52   O     O_R   0.944710 0.594470 0.735160 -0.597271
C1    C     C_R   0.000005 0.499999 0.179896 0.987562
C2    C     C_R   0.999996 0.500000 0.820167 0.980140
C3    C     C_R   0.499999 0.999984 0.179835 0.980113
C4    C     C_R   0.499999 0.000015 0.820102 0.986801
C5    C     C_R   0.500004 0.000000 0.679896 0.988788
C6    C     C_R   0.499996 0.000002 0.320166 0.980374
C7    C     C_R   0.000000 0.499985 0.679898 0.986718
C8    C     C_R   1.000000 0.500016 0.320166 0.980028
C9    C     C_R   0.908897 0.591190 0.250001 0.940710
C10   C     C_R   0.091077 0.408882 0.750013 0.973333
C11   C     C_R   0.408893 0.908805 0.250005 0.942237
C12   C     C_R   0.591099 0.091104 0.750000 0.977174
C13   C     C_R   0.091196 0.408912 0.250005 0.941012
C14   C     C_R   0.908923 0.591109 0.750036 0.973502
C15   C     C_R   0.591184 0.091105 0.250005 0.942038
C16   C     C_R   0.408900 0.908911 0.749997 0.982583
C17   C     C_R   0.908876 0.408868 0.750003 0.924828
C18   C     C_R   0.091119 0.591077 0.250031 0.970674
C19   C     C_R   0.408858 0.091138 0.750007 0.955348
C20   C     C_R   0.591097 0.908911 0.249981 0.969562
C21   C     C_R   0.091124 0.591121 0.750007 0.924504
C22   C     C_R   0.908897 0.408925 0.249994 0.982004
C23   C     C_R   0.591197 0.908922 0.750008 0.939684
C24   C     C_R   0.408914 0.091088 0.250023 0.980944
C25   C     C_R   0.349157 0.787986 0.248636 0.225452
C26   C     C_R   0.680779 0.181688 0.773860 0.223943
C27   C     C_R   0.211971 0.349042 0.248910 0.224860
C28   C     C_R   0.818584 0.680505 0.774481 0.223861
C29   C     C_R   0.650286 0.212084 0.247478 0.215593
C30   C     C_R   0.319104 0.818489 0.773853 0.223915
C31   C     C_R   0.787985 0.650442 0.247437 0.214790
C32   C     C_R   0.181538 0.319298 0.774054 0.223844
C33   C     C_R   0.349068 0.211784 0.752642 0.214843
C34   C     C_R   0.680237 0.818172 0.225740 0.223553
C35   C     C_R   0.212025 0.650536 0.749734 0.225127
C36   C     C_R   0.818067 0.319751 0.225924 0.223963
C37   C     C_R   0.650561 0.788102 0.752458 0.214631
C38   C     C_R   0.318839 0.181575 0.226601 0.224034
C39   C     C_R   0.787983 0.349452 0.749757 0.225142
C40   C     C_R   0.182282 0.680626 0.226758 0.223521
C41   C     C_R   0.849474 0.287986 0.750289 0.224701
C42   C     C_R   0.180266 0.681655 0.274449 0.223182
C43   C     C_R   0.712054 0.849238 0.749267 0.224603
C44   C     C_R   0.318484 0.180494 0.274305 0.223450
C45   C     C_R   0.150535 0.712002 0.750335 0.224704
C46   C     C_R   0.818769 0.318640 0.273625 0.223707
C47   C     C_R   0.287996 0.150578 0.747769 0.215094
C48   C     C_R   0.681822 0.819095 0.273438 0.222978
C49   C     C_R   0.849008 0.711925 0.251296 0.224977
C50   C     C_R   0.180403 0.317773 0.726358 0.224128
C51   C     C_R   0.711840 0.151190 0.251594 0.225276
C52   C     C_R   0.318427 0.819106 0.726151 0.224512
C53   C     C_R   0.150442 0.288016 0.252494 0.215342
C54   C     C_R   0.819101 0.682015 0.726783 0.224134
C55   C     C_R   0.288111 0.849337 0.253022 0.215307
C56   C     C_R   0.681663 0.180774 0.726160 0.224063
C57   C     C_R   0.384408 0.823357 0.247814 0.192677
C58   C     C_R   0.645462 0.146281 0.773875 0.188724
C59   C     C_R   0.176653 0.384362 0.248145 0.190856
C60   C     C_R   0.854106 0.645303 0.774260 0.193861
C61   C     C_R   0.615133 0.176591 0.247702 0.201881
C62   C     C_R   0.354416 0.853903 0.773867 0.189341
C63   C     C_R   0.823427 0.615236 0.247745 0.199786
C64   C     C_R   0.146168 0.354660 0.774004 0.193805
C65   C     C_R   0.384396 0.176466 0.752719 0.193999
C66   C     C_R   0.645111 0.853760 0.225884 0.193066
C67   C     C_R   0.176629 0.615262 0.750028 0.195865
C68   C     C_R   0.853707 0.354814 0.226008 0.189256
C69   C     C_R   0.615305 0.823492 0.752046 0.198318
C70   C     C_R   0.354302 0.146303 0.226397 0.192555
C71   C     C_R   0.823378 0.384725 0.750046 0.195897
C72   C     C_R   0.146953 0.645238 0.226503 0.188953
C73   C     C_R   0.884749 0.323380 0.749988 0.196429
C74   C     C_R   0.145078 0.646130 0.274238 0.193880
C75   C     C_R   0.676696 0.884513 0.748423 0.189400
C76   C     C_R   0.354060 0.145351 0.274145 0.192951
C77   C     C_R   0.115259 0.676608 0.750039 0.196415
C78   C     C_R   0.854296 0.353847 0.273750 0.193345
C79   C     C_R   0.323430 0.115368 0.747507 0.194038
C80   C     C_R   0.646556 0.854560 0.273627 0.192595
C81   C     C_R   0.884328 0.676611 0.252038 0.191203
C82   C     C_R   0.145176 0.353264 0.726266 0.189253
C83   C     C_R   0.676572 0.115822 0.252255 0.192674
C84   C     C_R   0.353834 0.854427 0.726130 0.189458
C85   C     C_R   0.115233 0.323456 0.252164 0.200393
C86   C     C_R   0.854503 0.646692 0.726521 0.188875
C87   C     C_R   0.323487 0.884599 0.252627 0.201838
C88   C     C_R   0.646251 0.145461 0.726138 0.190110
C89   C     C_R   0.371740 0.871748 0.249920 -0.306775
C90   C     C_R   0.628130 0.128140 0.750004 -0.307584
C91   C     C_R   0.128208 0.371724 0.249876 -0.309380
C92   C     C_R   0.872030 0.628271 0.750265 -0.307434
C93   C     C_R   0.628138 0.128358 0.250195 -0.306678
C94   C     C_R   0.371854 0.871892 0.749997 -0.307965
C95   C     C_R   0.871697 0.628189 0.250148 -0.309248
C96   C     C_R   0.128000 0.371745 0.750095 -0.307677
C97   C     C_R   0.371708 0.128181 0.750065 -0.308827
C98   C     C_R   0.628161 0.871934 0.249839 -0.306560
C99   C     C_R   0.128186 0.628178 0.750026 -0.312758
C100  C     C_R   0.871824 0.371953 0.249927 -0.307887
C101  C     C_R   0.628251 0.871789 0.749917 -0.311739
C102  C     C_R   0.371946 0.128153 0.250179 -0.307226
C103  C     C_R   0.871821 0.371809 0.750009 -0.312899
C104  C     C_R   0.128286 0.627961 0.250249 -0.307217
C105  C     C_R   0.301100 0.801179 0.251050 -0.202482
C106  C     C_R   0.698727 0.198732 0.750012 -0.204162
C107  C     C_R   0.198667 0.300960 0.250886 -0.202868
C108  C     C_R   0.801253 0.698673 0.750752 -0.204198
C109  C     C_R   0.698496 0.199228 0.249399 -0.202379
C110  C     C_R   0.301265 0.801288 0.750004 -0.204270
C111  C     C_R   0.800929 0.698641 0.249186 -0.203105
C112  C     C_R   0.198454 0.301019 0.750240 -0.204083
C113  C     C_R   0.300998 0.198659 0.750250 -0.198992
C114  C     C_R   0.698420 0.801027 0.249505 -0.204596
C115  C     C_R   0.198814 0.698803 0.750030 -0.207930
C116  C     C_R   0.800795 0.301819 0.249720 -0.204263
C117  C     C_R   0.698789 0.801125 0.751088 -0.203484
C118  C     C_R   0.301057 0.198433 0.250545 -0.204810
C119  C     C_R   0.801196 0.301187 0.750023 -0.207980
C120  C     C_R   0.198682 0.698725 0.250719 -0.204028
C121  C     C_1   0.264855 0.765161 0.251065 0.241916
C122  C     C_1   0.734873 0.234871 0.750016 0.241783
C123  C     C_1   0.234645 0.264659 0.250859 0.241500
C124  C     C_1   0.764998 0.734699 0.750988 0.240559
C125  C     C_1   0.734420 0.235572 0.249470 0.242089
C126  C     C_1   0.265129 0.765134 0.750009 0.241678
C127  C     C_1   0.764631 0.734612 0.249213 0.241423
C128  C     C_1   0.234604 0.264891 0.750294 0.239624
C129  C     C_1   0.264811 0.234745 0.750294 0.241666
C130  C     C_1   0.734443 0.764776 0.249328 0.240695
C131  C     C_1   0.234954 0.734947 0.750018 0.241728
C132  C     C_1   0.764555 0.265786 0.249589 0.240202
C133  C     C_1   0.734809 0.764867 0.751105 0.241031
C134  C     C_1   0.264809 0.234467 0.250737 0.240535
C135  C     C_1   0.765055 0.265048 0.750020 0.241691
C136  C     C_1   0.234697 0.734974 0.250949 0.240345
C137  C     C_R   0.488500 0.040793 0.054844 0.644700
C138  C     C_R   0.510069 0.958834 0.944906 0.644375
C139  C     C_R   0.041181 0.489788 0.055059 0.644553
C140  C     C_R   0.959160 0.511525 0.945191 0.644808
C141  C     C_R   0.511324 0.959096 0.054796 0.644852
C142  C     C_R   0.489774 0.041195 0.944955 0.644533
C143  C     C_R   0.958858 0.510306 0.055080 0.644414
C144  C     C_R   0.040829 0.488543 0.945170 0.644767
C145  C     C_R   0.989390 0.458910 0.555050 0.644490
C146  C     C_R   0.011671 0.540806 0.445205 0.644915
C147  C     C_R   0.541202 0.989887 0.555060 0.644472
C148  C     C_R   0.459139 0.011456 0.445191 0.644813
C149  C     C_R   0.010460 0.541072 0.555094 0.644434
C150  C     C_R   0.988160 0.459308 0.445162 0.644760
C151  C     C_R   0.458817 0.010155 0.555079 0.644410
C152  C     C_R   0.540860 0.988657 0.445170 0.644807
N1    N     N_R   0.499918 0.999939 0.067955 -0.318996
N2    N     N_R   0.499928 0.000024 0.931796 -0.318996
N3    N     N_R   0.000021 0.500046 0.068204 -0.319019
N4    N     N_R   0.999992 0.500031 0.932045 -0.319022
N5    N     N_R   0.999931 0.499981 0.568206 -0.318956
N6    N     N_R   0.999922 0.500063 0.432049 -0.319045
N7    N     N_R   0.500011 0.000017 0.568204 -0.318977
N8    N     N_R   0.499998 0.000058 0.432045 -0.319026
C153  C     C_R   0.511166 0.958176 0.027393 -0.047273
C154  C     C_R   0.489172 0.041916 0.972358 -0.046683
C155  C     C_R   0.958111 0.510892 0.027678 -0.046590
C156  C     C_R   0.041770 0.488690 0.972572 -0.047202
C157  C     C_R   0.488647 0.041744 0.027442 -0.047194
C158  C     C_R   0.510653 0.958075 0.972308 -0.046584
C159  C     C_R   0.041916 0.489201 0.027657 -0.046698
C160  C     C_R   0.958232 0.511388 0.972593 -0.047212
C161  C     C_R   0.011039 0.541828 0.527692 -0.046685
C162  C     C_R   0.988288 0.458360 0.472563 -0.047351
C163  C     C_R   0.458075 0.010758 0.527677 -0.046736
C164  C     C_R   0.541800 0.988804 0.472572 -0.047394
C165  C     C_R   0.988793 0.458190 0.527648 -0.046706
C166  C     C_R   0.011532 0.541726 0.472608 -0.047441
C167  C     C_R   0.541941 0.989305 0.527657 -0.046769
C168  C     C_R   0.458206 0.011297 0.472593 -0.047404
C169  C     C_R   0.499906 0.999968 0.013664 0.004879
C170  C     C_R   0.499909 0.999986 0.986087 0.004751
C171  C     C_R   0.000011 0.500045 0.013913 0.004763
C172  C     C_R   0.000004 0.500041 0.986336 0.004884
C173  C     C_R   0.999913 0.500018 0.513916 0.004727
C174  C     C_R   0.999910 0.500035 0.486340 0.004849
C175  C     C_R   0.500006 0.000037 0.513913 0.004738
C176  C     C_R   0.500004 0.000046 0.486337 0.004844
C177  C     C_R   0.522032 0.916614 0.013438 -0.077775
C178  C     C_R   0.478191 0.083447 0.986313 -0.078148
C179  C     C_R   0.916584 0.521962 0.013758 -0.078173
C180  C     C_R   0.083326 0.477728 0.986491 -0.077786
C181  C     C_R   0.477779 0.083322 0.013537 -0.077788
C182  C     C_R   0.521626 0.916525 0.986213 -0.078173
C183  C     C_R   0.083437 0.478129 0.013716 -0.078127
C184  C     C_R   0.916683 0.522355 0.986533 -0.077803
C185  C     C_R   0.022380 0.583277 0.513785 -0.078186
C186  C     C_R   0.977048 0.416883 0.486471 -0.077643
C187  C     C_R   0.416521 0.021728 0.513758 -0.078129
C188  C     C_R   0.583383 0.977947 0.486492 -0.077628
C189  C     C_R   0.977444 0.416760 0.513696 -0.078202
C190  C     C_R   0.022771 0.583186 0.486560 -0.077613
C191  C     C_R   0.583492 0.978346 0.513717 -0.078133
C192  C     C_R   0.416626 0.022146 0.486533 -0.077620
O53   O     O_2   0.476866 0.080291 0.068295 -0.470135
O54   O     O_2   0.519365 0.918723 0.931455 -0.473184
O55   O     O_2   0.081285 0.480381 0.068477 -0.472780
O56   O     O_2   0.919665 0.523228 0.931773 -0.470083
O57   O     O_2   0.522963 0.919584 0.068199 -0.469893
O58   O     O_2   0.480487 0.081325 0.931552 -0.472885
O59   O     O_2   0.918759 0.519714 0.068517 -0.473126
O60   O     O_2   0.080318 0.476834 0.931732 -0.470113
O61   O     O_2   0.979717 0.418874 0.568457 -0.473246
O62   O     O_2   0.023634 0.580218 0.431798 -0.469529
O63   O     O_2   0.581335 0.980605 0.568478 -0.472900
O64   O     O_2   0.419621 0.023084 0.431774 -0.469674
O65   O     O_2   0.020141 0.581090 0.568544 -0.473304
O66   O     O_2   0.976202 0.419910 0.431713 -0.469782
O67   O     O_2   0.418686 0.019428 0.568515 -0.473003
O68   O     O_2   0.580375 0.977035 0.431733 -0.469710
H1    H     H_    0.530766 0.883976 0.023499 0.216535
H2    H     H_    0.469753 0.116163 0.976251 0.216201
H3    H     H_    0.883890 0.530482 0.023847 0.216174
H4    H     H_    0.115943 0.468920 0.976403 0.216502
H5    H     H_    0.469044 0.115948 0.023637 0.216520
H6    H     H_    0.530067 0.883821 0.976113 0.216174
H7    H     H_    0.116136 0.469611 0.023789 0.216203
H8    H     H_    0.884061 0.531160 0.976461 0.216493
H9    H     H_    0.031118 0.615901 0.523883 0.216258
H10   H     H_    0.968027 0.384336 0.476373 0.216700
H11   H     H_    0.383802 0.030153 0.523846 0.216321
H12   H     H_    0.616023 0.969225 0.476403 0.216724
H13   H     H_    0.968710 0.384123 0.523759 0.216257
H14   H     H_    0.031791 0.615746 0.476497 0.216723
H15   H     H_    0.616212 0.969914 0.523790 0.216315
H16   H     H_    0.383983 0.030874 0.476461 0.216727
C193  C     C_R   0.035904 0.475680 0.390163 0.258851
C194  C     C_R   0.043333 0.502739 0.610086 0.259833
C195  C     C_R   0.524136 0.036140 0.390166 0.257763
C196  C     C_R   0.496711 0.043339 0.610116 0.259835
C197  C     C_R   0.964020 0.524456 0.390168 0.257716
C198  C     C_R   0.956583 0.497176 0.610109 0.259878
C199  C     C_R   0.475839 0.963949 0.390154 0.259067
C200  C     C_R   0.503315 0.956680 0.610078 0.259423
C201  C     C_R   0.456616 0.003337 0.889900 0.259629
C202  C     C_R   0.463861 0.975782 0.109845 0.257628
C203  C     C_R   0.024159 0.536102 0.890170 0.258224
C204  C     C_R   0.996930 0.543374 0.110118 0.260689
C205  C     C_R   0.543297 0.996765 0.889906 0.260431
C206  C     C_R   0.536059 0.024082 0.109836 0.258728
C207  C     C_R   0.975811 0.463946 0.890152 0.258279
C208  C     C_R   0.003128 0.456685 0.110073 0.259308
C209  C     C_R   0.035767 0.475643 0.362707 0.267929
C210  C     C_R   0.043162 0.502919 0.637542 0.256391
C211  C     C_R   0.524173 0.035959 0.362709 0.267892
C212  C     C_R   0.496517 0.043143 0.637572 0.256320
C213  C     C_R   0.964199 0.524473 0.362710 0.267886
C214  C     C_R   0.956790 0.496991 0.637564 0.256254
C215  C     C_R   0.475798 0.964103 0.362697 0.267608
C216  C     C_R   0.503505 0.956868 0.637534 0.256416
C217  C     C_R   0.456827 0.003531 0.862443 0.256449
C218  C     C_R   0.464049 0.975754 0.137303 0.267640
C219  C     C_R   0.024192 0.535933 0.862713 0.267748
C220  C     C_R   0.996747 0.543172 0.137575 0.256472
C221  C     C_R   0.543123 0.996576 0.862450 0.256512
C222  C     C_R   0.535914 0.024130 0.137293 0.267693
C223  C     C_R   0.975781 0.464100 0.862695 0.267649
C224  C     C_R   0.003312 0.456864 0.137529 0.256726
C225  C     C_R   0.999991 0.500049 0.348940 -0.283429
C226  C     C_R   0.999985 0.499955 0.651232 -0.282032
C227  C     C_R   0.499988 0.000021 0.348938 -0.283303
C228  C     C_R   0.500011 0.000004 0.651231 -0.283322
C229  C     C_R   0.499984 0.000048 0.848768 -0.281797
C230  C     C_R   0.499990 0.999951 0.151063 -0.283285
C231  C     C_R   0.999989 0.500011 0.848938 -0.283160
C232  C     C_R   0.000017 0.500011 0.151231 -0.282160
C233  C     C_R   0.999950 0.500069 0.403906 -0.034430
C234  C     C_R   0.999949 0.499962 0.596348 -0.035103
C235  C     C_R   0.499990 0.000050 0.403902 -0.034508
C236  C     C_R   0.500013 0.000012 0.596347 -0.034714
C237  C     C_R   0.499947 0.000045 0.903653 -0.035109
C238  C     C_R   0.499947 0.999932 0.096099 -0.034468
C239  C     C_R   0.999986 0.500027 0.903902 -0.034555
C240  C     C_R   0.000025 0.500035 0.096346 -0.035015
N9    N     N_R   0.362364 0.738707 0.246946 0.255050
O69   O     O_R   0.392159 0.724437 0.229213 -0.212521
O70   O     O_R   0.345514 0.708054 0.263501 -0.282407
N10   N     N_R   0.699490 0.199122 0.798130 0.255432
O71   O     O_R   0.714327 0.169586 0.815833 -0.215534
O72   O     O_R   0.701657 0.244527 0.802663 -0.281872
N11   N     N_R   0.261306 0.362205 0.247598 0.254799
O73   O     O_R   0.275923 0.392421 0.230191 -0.215426
O74   O     O_R   0.291650 0.344908 0.264191 -0.282091
N12   N     N_R   0.801300 0.698858 0.798869 0.254554
O75   O     O_R   0.830951 0.713560 0.816566 -0.221973
O76   O     O_R   0.755917 0.700841 0.803515 -0.282119
N13   N     N_R   0.636833 0.261271 0.246197 0.248517
O77   O     O_R   0.609955 0.276524 0.227373 -0.215080
O78   O     O_R   0.652182 0.291204 0.263588 -0.282859
N14   N     N_R   0.300288 0.801209 0.798120 0.255454
O79   O     O_R   0.285361 0.830856 0.815771 -0.215576
O80   O     O_R   0.298115 0.755833 0.802705 -0.281998
N15   N     N_R   0.738760 0.637068 0.246261 0.248696
O81   O     O_R   0.723326 0.610159 0.227480 -0.217457
O82   O     O_R   0.708961 0.652584 0.263678 -0.282171
N16   N     N_R   0.199087 0.300903 0.798358 0.254208
O83   O     O_R   0.169624 0.286363 0.816183 -0.222652
O84   O     O_R   0.244524 0.298735 0.802803 -0.281925
N17   N     N_R   0.362214 0.261045 0.754197 0.249150
O85   O     O_R   0.389388 0.276093 0.772955 -0.216537
O86   O     O_R   0.346612 0.291184 0.737004 -0.282628
N18   N     N_R   0.698510 0.800632 0.201388 0.254379
O87   O     O_R   0.713256 0.830083 0.183618 -0.222827
O88   O     O_R   0.700367 0.755215 0.196848 -0.281924
N19   N     N_R   0.261339 0.637119 0.749191 0.254342
O89   O     O_R   0.277303 0.604694 0.764968 -0.214274
O90   O     O_R   0.290233 0.656300 0.732440 -0.281496
N20   N     N_R   0.800624 0.301262 0.201604 0.254405
O91   O     O_R   0.830151 0.286272 0.183911 -0.217154
O92   O     O_R   0.755217 0.299438 0.197019 -0.279850
N21   N     N_R   0.637229 0.738860 0.753333 0.248656
O93   O     O_R   0.610140 0.723098 0.771942 -0.217245
O94   O     O_R   0.653039 0.709352 0.735844 -0.281593
N22   N     N_R   0.299822 0.199067 0.202429 0.254523
O95   O     O_R   0.284943 0.169569 0.184695 -0.222419
O96   O     O_R   0.297440 0.244487 0.198009 -0.283630
N23   N     N_R   0.738668 0.362868 0.749248 0.254368
O97   O     O_R   0.722723 0.395306 0.765051 -0.214263
O98   O     O_R   0.709754 0.343675 0.732503 -0.281562
N24   N     N_R   0.200288 0.699258 0.202607 0.254267
O99   O     O_R   0.171164 0.713942 0.184654 -0.217686
O100  O     O_R   0.245808 0.701485 0.198427 -0.280801
N25   N     N_R   0.862902 0.238685 0.750807 0.254289
O101  O     O_R   0.895340 0.222725 0.735010 -0.217138
O102  O     O_R   0.843718 0.209799 0.767554 -0.280261
N26   N     N_R   0.198350 0.699213 0.298835 0.254462
O103  O     O_R   0.212883 0.669772 0.316662 -0.222142
O104  O     O_R   0.200249 0.744636 0.303350 -0.279216
N27   N     N_R   0.761387 0.862478 0.748184 0.254940
O105  O     O_R   0.776189 0.892869 0.730915 -0.215287
O106  O     O_R   0.791540 0.845072 0.764847 -0.282198
N28   N     N_R   0.301250 0.199034 0.298662 0.254818
O107  O     O_R   0.330934 0.213950 0.316288 -0.221358
O108  O     O_R   0.255880 0.200974 0.303349 -0.279721
N29   N     N_R   0.137107 0.761303 0.750891 0.254201
O109  O     O_R   0.104647 0.777253 0.735123 -0.217320
O110  O     O_R   0.156314 0.790200 0.767643 -0.280456
N30   N     N_R   0.799896 0.301170 0.297839 0.254615
O111  O     O_R   0.785202 0.330686 0.315614 -0.221760
O112  O     O_R   0.797454 0.255751 0.302254 -0.280965
N31   N     N_R   0.238753 0.137296 0.746292 0.249165
O113  O     O_R   0.223705 0.110053 0.727560 -0.216821
O114  O     O_R   0.208633 0.152809 0.763544 -0.283322
N32   N     N_R   0.699575 0.800371 0.297622 0.254679
O115  O     O_R   0.670260 0.785720 0.315493 -0.221890
O116  O     O_R   0.745052 0.798031 0.301915 -0.280735
N33   N     N_R   0.862167 0.761238 0.252761 0.255034
O117  O     O_R   0.892263 0.775725 0.270280 -0.212035
O118  O     O_R   0.844989 0.791696 0.236200 -0.282779
N34   N     N_R   0.198928 0.299957 0.702124 0.253980
O119  O     O_R   0.213749 0.329207 0.684273 -0.218203
O120  O     O_R   0.200938 0.254485 0.697773 -0.282163
N35   N     N_R   0.761168 0.138116 0.253220 0.254899
O121  O     O_R   0.775514 0.108150 0.270823 -0.212519
O122  O     O_R   0.791786 0.155239 0.236721 -0.281825
N36   N     N_R   0.301118 0.800257 0.701886 0.255164
O123  O     O_R   0.330755 0.785343 0.684229 -0.216524
O124  O     O_R   0.255726 0.798038 0.697312 -0.284668
N37   N     N_R   0.137051 0.238798 0.253545 0.248477
O125  O     O_R   0.110000 0.223272 0.272231 -0.214535
O126  O     O_R   0.152684 0.209096 0.236107 -0.283110
N38   N     N_R   0.800194 0.699750 0.702638 0.254343
O127  O     O_R   0.785307 0.670433 0.684816 -0.217591
O128  O     O_R   0.797915 0.745212 0.698333 -0.283698
N39   N     N_R   0.238889 0.862628 0.254516 0.248695
O129  O     O_R   0.223748 0.889303 0.273472 -0.214416
O130  O     O_R   0.208810 0.847282 0.237205 -0.281945
N40   N     N_R   0.699079 0.199471 0.701894 0.255091
O131  O     O_R   0.669521 0.214297 0.684192 -0.216813
O132  O     O_R   0.744490 0.201639 0.697364 -0.284545
N41   N     N_R   0.433382 0.809726 0.246696 0.241320
O133  O     O_R   0.453562 0.791097 0.267063 -0.266773
O134  O     O_R   0.455562 0.809448 0.224455 -0.245690
N42   N     N_R   0.627531 0.128574 0.798215 0.256925
O135  O     O_R   0.611081 0.157770 0.815681 -0.233443
O136  O     O_R   0.629134 0.083374 0.803348 -0.298099
N43   N     N_R   0.190351 0.433333 0.247485 0.241689
O137  O     O_R   0.208908 0.452911 0.268063 -0.264291
O138  O     O_R   0.190812 0.456112 0.225442 -0.253438
N44   N     N_R   0.872066 0.627100 0.798489 0.256182
O139  O     O_R   0.843029 0.610403 0.815949 -0.235001
O140  O     O_R   0.917339 0.628549 0.803506 -0.319601
N45   N     N_R   0.566013 0.189919 0.247309 0.251773
O141  O     O_R   0.539943 0.183743 0.267961 -0.302650
O142  O     O_R   0.545914 0.201676 0.225424 -0.236795
N46   N     N_R   0.372236 0.871774 0.798207 0.256305
O143  O     O_R   0.388587 0.842695 0.815734 -0.234748
O144  O     O_R   0.370656 0.917015 0.803270 -0.292652
N47   N     N_R   0.810026 0.566142 0.247529 0.252227
O145  O     O_R   0.816502 0.540262 0.268213 -0.301879
O146  O     O_R   0.797888 0.545857 0.225748 -0.243214
N48   N     N_R   0.128603 0.372952 0.798316 0.256350
O147  O     O_R   0.157935 0.389579 0.815654 -0.234388
O148  O     O_R   0.083404 0.371592 0.803544 -0.319325
N49   N     N_R   0.433419 0.190035 0.753554 0.252370
O149  O     O_R   0.459763 0.185301 0.732889 -0.299613
O150  O     O_R   0.453165 0.200582 0.775728 -0.241995
N50   N     N_R   0.626908 0.871539 0.201614 0.256626
O151  O     O_R   0.610076 0.842393 0.184237 -0.233694
O152  O     O_R   0.628514 0.916745 0.196473 -0.321041
N51   N     N_R   0.190053 0.566275 0.748452 0.239159
O153  O     O_R   0.207381 0.549481 0.726833 -0.257657
O154  O     O_R   0.191572 0.540545 0.769478 -0.252379
N52   N     N_R   0.871687 0.372686 0.201714 0.256488
O155  O     O_R   0.842707 0.389386 0.184231 -0.234515
O156  O     O_R   0.916921 0.370821 0.196650 -0.291471
N53   N     N_R   0.566209 0.810047 0.751891 0.251959
O157  O     O_R   0.540652 0.817073 0.731132 -0.299460
O158  O     O_R   0.545569 0.797328 0.773461 -0.242784
N54   N     N_R   0.372109 0.128806 0.201962 0.255559
O159  O     O_R   0.388221 0.158194 0.184522 -0.234630
O160  O     O_R   0.370807 0.083612 0.196729 -0.314420
N55   N     N_R   0.809951 0.433711 0.748502 0.239177
O161  O     O_R   0.792633 0.450494 0.726894 -0.257687
O162  O     O_R   0.808426 0.459452 0.769544 -0.252487
N56   N     N_R   0.129845 0.627206 0.202047 0.257769
O163  O     O_R   0.159479 0.610672 0.184831 -0.232008
O164  O     O_R   0.084780 0.628888 0.196537 -0.296736
N57   N     N_R   0.933750 0.309968 0.751543 0.239996
O165  O     O_R   0.950530 0.292627 0.773146 -0.257979
O166  O     O_R   0.959499 0.308454 0.730509 -0.259126
N58   N     N_R   0.126649 0.628417 0.298472 0.256485
O167  O     O_R   0.109695 0.657614 0.315793 -0.233136
O168  O     O_R   0.128178 0.583220 0.303644 -0.321294
N59   N     N_R   0.690323 0.933511 0.747930 0.241396
O169  O     O_R   0.708695 0.952930 0.768603 -0.262086
O170  O     O_R   0.690909 0.956496 0.725952 -0.253918
N60   N     N_R   0.372119 0.127380 0.298405 0.255378
O171  O     O_R   0.343158 0.110810 0.315939 -0.234861
O172  O     O_R   0.417410 0.128896 0.303368 -0.314600
N61   N     N_R   0.066261 0.690021 0.751633 0.240054
O173  O     O_R   0.049503 0.707335 0.773264 -0.257681
O174  O     O_R   0.040491 0.691560 0.730613 -0.259110
N62   N     N_R   0.872292 0.371314 0.298145 0.255391
O175  O     O_R   0.888487 0.341901 0.315547 -0.234141
O176  O     O_R   0.871078 0.416510 0.303382 -0.314582
N63   N     N_R   0.309998 0.066323 0.746588 0.252267
O177  O     O_R   0.314729 0.039927 0.767216 -0.299875
O178  O     O_R   0.299568 0.046636 0.724379 -0.242495
N64   N     N_R   0.629311 0.872637 0.298055 0.256728
O179  O     O_R   0.658882 0.889007 0.315345 -0.232476
O180  O     O_R   0.584176 0.871282 0.303447 -0.320518
N65   N     N_R   0.933302 0.690304 0.252847 0.241026
O181  O     O_R   0.953067 0.708867 0.232336 -0.264416
O182  O     O_R   0.955906 0.690711 0.274954 -0.245522
N66   N     N_R   0.127199 0.370730 0.701888 0.257586
O183  O     O_R   0.110533 0.341380 0.684566 -0.233901
O184  O     O_R   0.129016 0.415848 0.696564 -0.295360
N67   N     N_R   0.690353 0.066888 0.253159 0.241270
O185  O     O_R   0.709092 0.047037 0.232706 -0.265621
O186  O     O_R   0.690653 0.044422 0.275301 -0.245772
N68   N     N_R   0.371668 0.872226 0.701789 0.256283
O187  O     O_R   0.342551 0.888548 0.684266 -0.234954
O188  O     O_R   0.416911 0.870650 0.696717 -0.291695
N69   N     N_R   0.066124 0.310068 0.252253 0.251518
O189  O     O_R   0.040356 0.316681 0.231532 -0.300958
O190  O     O_R   0.045702 0.297837 0.273971 -0.236151
N70   N     N_R   0.872294 0.629334 0.702061 0.257537
O191  O     O_R   0.888586 0.658785 0.684704 -0.233746
O192  O     O_R   0.870655 0.584210 0.696698 -0.295224
N71   N     N_R   0.309995 0.933665 0.253071 0.251872
O193  O     O_R   0.315970 0.959748 0.232418 -0.302741
O194  O     O_R   0.298256 0.953718 0.274985 -0.236468
N72   N     N_R   0.628514 0.127526 0.701795 0.256860
O195  O     O_R   0.657698 0.111082 0.684323 -0.234463
O196  O     O_R   0.583296 0.129114 0.696667 -0.292178
N73   N     N_R   0.072930 0.451611 0.404185 0.265496
O197  O     O_R   0.095169 0.472868 0.423107 -0.309849
O198  O     O_R   0.083044 0.407569 0.398918 -0.214173
N74   N     N_R   0.087467 0.504780 0.596068 0.266733
O199  O     O_R   0.095879 0.475247 0.577114 -0.308434
O200  O     O_R   0.118474 0.537647 0.601338 -0.214152
N75   N     N_R   0.547949 0.073345 0.404195 0.265415
O201  O     O_R   0.526534 0.095454 0.423115 -0.309734
O202  O     O_R   0.591924 0.083760 0.398936 -0.213990
N76   N     N_R   0.494167 0.087449 0.596130 0.266596
O203  O     O_R   0.523622 0.096215 0.577198 -0.308501
O204  O     O_R   0.460934 0.118069 0.601407 -0.214407
N77   N     N_R   0.926974 0.548535 0.404193 0.265367
O205  O     O_R   0.904706 0.527293 0.423097 -0.309806
O206  O     O_R   0.916865 0.592572 0.398945 -0.213888
N78   N     N_R   0.912431 0.495141 0.596114 0.266756
O207  O     O_R   0.903993 0.524682 0.577191 -0.308453
O208  O     O_R   0.881428 0.462276 0.601375 -0.214095
N79   N     N_R   0.452027 0.926759 0.404170 0.265519
O209  O     O_R   0.473449 0.904655 0.423068 -0.309974
O210  O     O_R   0.408045 0.916350 0.398921 -0.214029
N80   N     N_R   0.505860 0.912574 0.596054 0.266537
O211  O     O_R   0.476409 0.903815 0.577117 -0.308509
O212  O     O_R   0.539088 0.881950 0.601302 -0.214093
N81   N     N_R   0.412488 0.005865 0.903901 0.266661
O213  O     O_R   0.403718 0.976410 0.922820 -0.308127
O214  O     O_R   0.381855 0.039083 0.898650 -0.214834
N82   N     N_R   0.426649 0.951964 0.095829 0.265486
O215  O     O_R   0.404519 0.973366 0.076933 -0.309690
O216  O     O_R   0.416246 0.907995 0.101074 -0.213369
N83   N     N_R   0.048007 0.573280 0.904202 0.265678
O217  O     O_R   0.026616 0.595402 0.923125 -0.309408
O218  O     O_R   0.091991 0.583658 0.898942 -0.213778
N84   N     N_R   0.994580 0.587499 0.096136 0.266797
O219  O     O_R   0.024056 0.596131 0.077195 -0.308076
O220  O     O_R   0.961498 0.618275 0.101427 -0.215092
N85   N     N_R   0.587406 0.994235 0.903915 0.266831
O221  O     O_R   0.596145 0.023679 0.922865 -0.308009
O222  O     O_R   0.618051 0.961023 0.898641 -0.214927
N86   N     N_R   0.573250 0.047891 0.095808 0.265610
O223  O     O_R   0.595350 0.026475 0.076886 -0.309732
O224  O     O_R   0.583658 0.091865 0.101070 -0.213661
N87   N     N_R   0.951962 0.426776 0.904165 0.265676
O225  O     O_R   0.973352 0.404661 0.923070 -0.309453
O226  O     O_R   0.907977 0.416397 0.898907 -0.213751
N88   N     N_R   0.005486 0.412574 0.096044 0.266540
O227  O     O_R   0.975998 0.403945 0.077107 -0.308144
O228  O     O_R   0.038589 0.381810 0.101288 -0.214689
Cl1   Cl    Cl    0.082912 0.448229 0.345552 -0.387396
Cl2   Cl    Cl    0.097338 0.504552 0.654946 -0.369018
Cl3   Cl    Cl    0.551294 0.083225 0.345553 -0.377590
Cl4   Cl    Cl    0.494258 0.097272 0.655015 -0.365957
Cl5   Cl    Cl    0.917079 0.551873 0.345556 -0.377520
Cl6   Cl    Cl    0.902635 0.495377 0.654998 -0.369197
Cl7   Cl    Cl    0.448661 0.916828 0.345527 -0.388352
Cl8   Cl    Cl    0.505753 0.902735 0.654931 -0.362977
Cl9   Cl    Cl    0.402694 0.005772 0.845020 -0.365742
Cl10  Cl    Cl    0.416786 0.948630 0.154474 -0.377848
Cl11  Cl    Cl    0.051331 0.583195 0.845564 -0.382988
Cl12  Cl    Cl    0.994788 0.597307 0.155023 -0.373665
Cl13  Cl    Cl    0.597279 0.994349 0.845036 -0.372433
Cl14  Cl    Cl    0.583204 0.051267 0.154447 -0.387457
Cl15  Cl    Cl    0.948638 0.416832 0.845521 -0.383405
Cl16  Cl    Cl    0.005340 0.402716 0.154919 -0.363055

loop_
_geom_bond_atom_site_label_1
_geom_bond_atom_site_label_2
_geom_bond_distance
_ccdc_geom_bond_type
C88   N72   1.436821 S    
N35   O121  1.301064 A    
N8    C235  1.444158 S    
C43   N27   1.439609 S    
C190  H14   1.083039 S    
C212  C228  1.406707 A    
N45   O141  1.300908 A    
Zn5   O51   1.931152 S    
C31   N15   1.437846 S    
C224  C232  1.406712 A    
C196  N76   1.437099 S    
C211  C227  1.409717 A    
N49   O149  1.300864 A    
C42   N26   1.438475 S    
C2    C231  1.476383 S    
C109  C125  1.439373 S    
C224  Cl16  1.768572 S    
C35   C115  1.409622 A    
N27   O106  1.301300 A    
Zn1   O40   1.931601 S    
C167  C191  1.405573 A    
Zn2   O39   1.931603 S    
N25   O102  1.301295 A    
C157  C181  1.405573 A    
C144  C156  1.406366 A    
C75   N59   1.432828 S    
C180  C183  1.397053 A    
C34   N18   1.438482 S    
N82   O215  1.301153 A    
C118  C134  1.439530 S    
C47   C79   1.406931 A    
N77   O205  1.301148 A    
C151  C163  1.406362 A    
C27   C107  1.408997 A    
C21   C99   1.476208 S    
Zn13  O35   1.931152 S    
C177  C182  1.397060 A    
O34   C22   1.267098 A    
Zn14  O36   1.931154 S    
C24   C102  1.474399 S    
N86   O223  1.301148 A    
N59   O170  1.300907 A    
C39   N23   1.439524 S    
Zn3   O3    1.945894 S    
O41   C23   1.267429 A    
C140  C160  1.406371 A    
C112  C128  1.439402 S    
C127  C130  1.201915 T    
C33   N17   1.438324 S    
C58   C90   1.413870 A    
C201  C217  1.408906 A    
C169  C170  1.415059 A    
C214  C226  1.406720 A    
C208  N88   1.437095 S    
N78   O208  1.301020 A    
C60   N44   1.437206 S    
C178  H2    1.083037 S    
C195  C211  1.408927 A    
N60   O172  1.301404 A    
C180  H4    1.083042 S    
C160  C184  1.405573 A    
N47   O145  1.300921 A    
C34   C114  1.408388 A    
C197  C233  1.411918 A    
C175  C176  1.415054 A    
C165  C173  1.408529 A    
O44   C22   1.267705 A    
C38   C118  1.408836 A    
N65   O182  1.300923 A    
C60   C92   1.414198 A    
C111  C127  1.439267 S    
O22   C10   1.267074 A    
O28   C16   1.267482 A    
N77   O206  1.301048 A    
N1    C238  1.444169 S    
C45   C77   1.407598 A    
C86   N70   1.436770 S    
N84   O219  1.301143 A    
C203  N83   1.437160 S    
N51   O154  1.300874 A    
N13   O78   1.301240 A    
O40   C18   1.266615 A    
N11   O73   1.301070 A    
C197  N77   1.437159 S    
C143  N3    1.371641 A    
N10   O71   1.301221 A    
N80   O211  1.301145 A    
C152  O68   1.349204 S    
C74   N58   1.437166 S    
C206  C238  1.411952 A    
C75   C101  1.412747 A    
C197  C213  1.408940 A    
N69   O190  1.300687 A    
O17   C5    1.276047 A    
N46   O144  1.301160 A    
Zn7   O3    1.946197 S    
N5    C234  1.444046 S    
C138  O54   1.349204 S    
N28   O108  1.301260 A    
O9    C1    1.276082 A    
N56   O163  1.301142 A    
C150  C162  1.406356 A    
C125  C132  1.201977 T    
O11   C3    1.277850 A    
N38   O127  1.301220 A    
C40   C72   1.408499 A    
Zn16  O9    1.884690 S    
C158  C182  1.405574 A    
C54   N38   1.438461 S    
C87   N71   1.433518 S    
Zn13  O4    1.946984 S    
C147  C167  1.406370 A    
Zn14  O3    1.946984 S    
C40   C120  1.408673 A    
C155  C171  1.408522 A    
C128  C129  1.201920 T    
C105  C121  1.439231 S    
C41   N25   1.439529 S    
C32   C64   1.408641 A    
C33   C65   1.406926 A    
C4    C229  1.470939 S    
C146  C166  1.406365 A    
N42   O135  1.301154 A    
C88   C90   1.413851 A    
C185  C190  1.397059 A    
N74   O199  1.301136 A    
O38   C20   1.267386 A    
C223  C231  1.409723 A    
C53   C107  1.408651 A    
C54   C108  1.408723 A    
C193  C209  1.408906 A    
C44   N28   1.438470 S    
Zn15  O33   1.931827 S    
N41   O133  1.300608 A    
N36   O124  1.301250 A    
C217  C229  1.406718 A    
N24   O99   1.301221 A    
Zn4   O4    1.945895 S    
C204  C240  1.412846 A    
N70   O191  1.301143 A    
N66   O184  1.301144 A    
N48   O147  1.301156 A    
C152  C164  1.406366 A    
C49   C81   1.407227 A    
C51   C109  1.408932 A    
N29   O109  1.301094 A    
C150  N6    1.371653 A    
Zn13  O28   1.931408 S    
C49   C111  1.408933 A    
Zn9   O12   1.885118 S    
C78   N62   1.437124 S    
Zn14  O27   1.931406 S    
C194  C234  1.412830 A    
C50   C112  1.408495 A    
Zn10  O11   1.885118 S    
C216  C228  1.406708 A    
Zn15  O2    1.946197 S    
C184  H8    1.083036 S    
Zn11  O2    1.945894 S    
C139  N3    1.371641 A    
N33   O117  1.301072 A    
C142  N2    1.371653 A    
C185  H9    1.083036 S    
C214  Cl6   1.768581 S    
O27   C15   1.269419 A    
C160  C172  1.408519 A    
C213  Cl5   1.769916 S    
C145  C165  1.406365 A    
N31   O113  1.300605 A    
C157  C169  1.408511 A    
N3    C240  1.444066 S    
C139  C159  1.406370 A    
C19   C97   1.477537 S    
N81   O213  1.301142 A    
C41   C119  1.409601 A    
C70   N54   1.437152 S    
O26   C14   1.267001 A    
N35   O122  1.301299 A    
C42   C120  1.408382 A    
C173  C174  1.415049 A    
C148  N8    1.371668 A    
N88   O228  1.301021 A    
C194  C210  1.408893 A    
C18   C104  1.474889 S    
O46   C12   1.267090 A    
N30   O111  1.301215 A    
N39   O130  1.301232 A    
N76   O203  1.301139 A    
O14   C6    1.277668 A    
C56   C106  1.408611 A    
C117  C133  1.439421 S    
C73   C103  1.411889 A    
C62   N46   1.436826 S    
N14   O79   1.301219 A    
O43   C21   1.268104 A    
C25   C105  1.408848 A    
C73   N57   1.432957 S    
C79   C97   1.412836 A    
C139  O55   1.349201 S    
N79   O209  1.301152 A    
N22   O95   1.301216 A    
C204  C220  1.408909 A    
C48   C114  1.408768 A    
N84   O220  1.301019 A    
N31   O114  1.301264 A    
C191  H15   1.083040 S    
N44   O139  1.301161 A    
C30   C110  1.408620 A    
C200  C216  1.408903 A    
C43   C75   1.407342 A    
O25   C13   1.267550 A    
C153  C169  1.408521 A    
C62   C94   1.413829 A    
C162  C174  1.408518 A    
C40   N24   1.438473 S    
C163  C187  1.405573 A    
C164  C188  1.405575 A    
C221  C229  1.406713 A    
N54   O159  1.301152 A    
N18   O88   1.301258 A    
N69   O189  1.300931 A    
N32   O116  1.301257 A    
C7    C226  1.470923 S    
N61   O174  1.300868 A    
C167  C175  1.408518 A    
C23   C101  1.477427 S    
C161  C185  1.405571 A    
N22   O96   1.301255 A    
N50   O151  1.301161 A    
Zn12  O30   1.931471 S    
C199  C235  1.411959 A    
C57   N41   1.432749 S    
C178  C181  1.397054 A    
C83   C93   1.412923 A    
C120  C136  1.439321 S    
O5    C1    1.276038 A    
C156  C172  1.408518 A    
O31   C19   1.267980 A    
C193  C233  1.411905 A    
C215  Cl7   1.769872 S    
N73   O197  1.301149 A    
C76   N60   1.437240 S    
C12   C90   1.475180 S    
C202  C218  1.408948 A    
C20   C98   1.474540 S    
C35   N19   1.439522 S    
C186  H10   1.083038 S    
N53   O157  1.300943 A    
C61   C93   1.413014 A    
O37   C19   1.267987 A    
C211  Cl3   1.769905 S    
C8    C225  1.476511 S    
N12   O76   1.301259 A    
C198  C214  1.408896 A    
C220  C232  1.406713 A    
C48   N32   1.438458 S    
N34   O119  1.301217 A    
N11   O74   1.301300 A    
C209  Cl1   1.769896 S    
O51   C13   1.269209 A    
N68   O188  1.301165 A    
N7    C236  1.444092 S    
N63   O177  1.300855 A    
C32   C112  1.408612 A    
C149  C161  1.406362 A    
C33   C113  1.408719 A    
O8    C4    1.276217 A    
C144  N4    1.371657 A    
N23   O98   1.301295 A    
C179  C184  1.397060 A    
C36   C68   1.408223 A    
Zn5   O44   1.931408 S    
C22   C100  1.474736 S    
O48   C10   1.267182 A    
Zn6   O43   1.931406 S    
N26   O103  1.301218 A    
C154  C170  1.408519 A    
Zn8   O37   1.931248 S    
O16   C8    1.277869 A    
N67   O185  1.300604 A    
C140  N4    1.371660 A    
C82   C96   1.413840 A    
C208  C240  1.412837 A    
Zn1   O1    1.945681 S    
O29   C17   1.267562 A    
C138  C158  1.406370 A    
O52   C14   1.267770 A    
C146  O62   1.349200 S    
N64   O179  1.301153 A    
C206  N86   1.437159 S    
C205  N85   1.437095 S    
C192  H16   1.083040 S    
N25   O101  1.301092 A    
C45   C115  1.409607 A    
O45   C11   1.268964 A    
C188  C191  1.397058 A    
C46   C116  1.408844 A    
C81   N65   1.432778 S    
C142  O58   1.349201 S    
N82   O216  1.301048 A    
C43   C117  1.409019 A    
C27   N11   1.439600 S    
C166  C190  1.405569 A    
C39   C71   1.407553 A    
N52   O155  1.301151 A    
C202  N82   1.437154 S    
C145  N5    1.371634 A    
C198  C234  1.412831 A    
C144  O60   1.349202 S    
C37   C69   1.407095 A    
N43   O137  1.300621 A    
N86   O224  1.301046 A    
C47   N31   1.438395 S    
N55   O161  1.300647 A    
C67   C99   1.411904 A    
C41   C73   1.407576 A    
N21   O94   1.301231 A    
N40   O131  1.301219 A    
O42   C24   1.266918 A    
O6    C2    1.277676 A    
C203  C219  1.408921 A    
Zn1   O20   1.885118 S    
C149  N5    1.371638 A    
N62   O175  1.301157 A    
Zn2   O19   1.885118 S    
C148  C168  1.406366 A    
N20   O91   1.301221 A    
C59   N43   1.432793 S    
C87   C89   1.413039 A    
C80   C98   1.413802 A    
C14   C92   1.474853 S    
N75   O201  1.301151 A    
C67   N51   1.432954 S    
C186  C189  1.397054 A    
N19   O89   1.301097 A    
C55   C87   1.407023 A    
C141  N1    1.371668 A    
C58   N42   1.436819 S    
C110  C126  1.439768 S    
O23   C11   1.267208 A    
N72   O195  1.301152 A    
N9    O69   1.301067 A    
C143  C155  1.406373 A    
C74   C104  1.414260 A    
N6    C233  1.444118 S    
Zn16  O34   1.931829 S    
C202  C238  1.411964 A    
N17   O86   1.301261 A    
N65   O181  1.300615 A    
C57   C89   1.413037 A    
Zn5   O1    1.946984 S    
C26   C58   1.408593 A    
C218  Cl10  1.769896 S    
C179  H3    1.083040 S    
C30   N14   1.438450 S    
C217  Cl9   1.768594 S    
C152  N8    1.371669 A    
Zn11  O26   1.931742 S    
C205  C221  1.408901 A    
C50   C82   1.408358 A    
C52   C110  1.408656 A    
C25   N9    1.439599 S    
O35   C23   1.269162 A    
C210  Cl2   1.768565 S    
N27   O105  1.301080 A    
C45   N29   1.439522 S    
Zn16  O1    1.946202 S    
N85   O222  1.301021 A    
N10   O72   1.301251 A    
Zn12  O1    1.945895 S    
N80   O212  1.301020 A    
C124  C133  1.202009 T    
C66   C98   1.414155 A    
C155  C179  1.405573 A    
Zn4   O13   1.884842 S    
Zn16  O21   1.931248 S    
Zn5   O16   1.884468 S    
C182  H6    1.083039 S    
Zn6   O15   1.884468 S    
C113  C129  1.439313 S    
N83   O217  1.301151 A    
N57   O165  1.300648 A    
N45   O142  1.300697 A    
O12   C4    1.276243 A    
N56   O164  1.301163 A    
C79   N63   1.433149 S    
C55   C105  1.408542 A    
C5    C228  1.470898 S    
N38   O128  1.301254 A    
N58   O168  1.301397 A    
N16   O83   1.301213 A    
C219  C231  1.409729 A    
N49   O150  1.300720 A    
C121  C136  1.201890 T    
C187  C192  1.397052 A    
C145  O61   1.349200 S    
C181  H5    1.083041 S    
C166  C174  1.408528 A    
O7    C3    1.277830 A    
C36   N20   1.438483 S    
C213  C225  1.409806 A    
O33   C21   1.268049 A    
C48   C80   1.408647 A    
C71   N55   1.432955 S    
O21   C9    1.269051 A    
C208  C224  1.408896 A    
Zn9   O24   1.931601 S    
C212  Cl4   1.768600 S    
C207  N87   1.437158 S    
Zn10  O23   1.931603 S    
O49   C15   1.267628 A    
N42   O136  1.301156 A    
O39   C17   1.267660 A    
N39   O129  1.300544 A    
C64   C96   1.414061 A    
C31   C111  1.408605 A    
Zn12  O25   1.931744 S    
C28   N12   1.438465 S    
Zn7   O49   1.931827 S    
C28   C60   1.408537 A    
Zn9   O4    1.945681 S    
C29   C109  1.408607 A    
C63   C95   1.412905 A    
Zn10  O3    1.945687 S    
C63   N47   1.433544 S    
Zn6   O52   1.931154 S    
C30   C62   1.408612 A    
C142  C154  1.406372 A    
C207  C223  1.408931 A    
C215  C227  1.409706 A    
N15   O82   1.301236 A    
C17   C103  1.476126 S    
C38   N22   1.438447 S    
N24   O100  1.301260 A    
O18   C6    1.277667 A    
C72   C104  1.413711 A    
C36   C116  1.408340 A    
N70   O192  1.301146 A    
Zn9   O31   1.931548 S    
N48   O148  1.301394 A    
Zn10  O32   1.931546 S    
O10   C2    1.277670 A    
Zn7   O18   1.884690 S    
C143  O59   1.349200 S    
C162  C186  1.405571 A    
C150  O66   1.349208 S    
C76   C102  1.414079 A    
C16   C94   1.475154 S    
N78   O207  1.301141 A    
N87   O226  1.301043 A    
N21   O93   1.300530 A    
C77   C99   1.411892 A    
C83   N67   1.432744 S    
C78   C100  1.413806 A    
N60   O171  1.301168 A    
C55   N39   1.437845 S    
C28   C108  1.408462 A    
C210  C226  1.406712 A    
N50   O152  1.301397 A    
C154  C178  1.405573 A    
C11   C89   1.478034 S    
N16   O84   1.301260 A    
C116  C132  1.439458 S    
C31   C63   1.407062 A    
N4    C239  1.444138 S    
C189  H13   1.083039 S    
C3    C230  1.476383 S    
C29   N13   1.437919 S    
C71   C103  1.411898 A    
N30   O112  1.301257 A    
C53   C85   1.407105 A    
C194  N74   1.437100 S    
C158  C170  1.408511 A    
N76   O204  1.301022 A    
N67   O186  1.300928 A    
C26   N10   1.438454 S    
C46   N30   1.438438 S    
N14   O80   1.301251 A    
C177  H1    1.083038 S    
C218  C230  1.409722 A    
C25   C57   1.407216 A    
N19   O90   1.301292 A    
Zn3   O42   1.931742 S    
C27   C59   1.407330 A    
C32   N16   1.438459 S    
N46   O143  1.301159 A    
C159  C183  1.405570 A    
C82   N66   1.436774 S    
N28   O107  1.301216 A    
N44   O140  1.301402 A    
C188  H12   1.083037 S    
Zn7   O38   1.931250 S    
C151  N7    1.371656 A    
C84   C94   1.413817 A    
N74   O200  1.301021 A    
C70   C102  1.413711 A    
N43   O138  1.300912 A    
O32   C20   1.266679 A    
C9    C95   1.477719 S    
C72   N56   1.436764 S    
N63   O178  1.300730 A    
C10   C96   1.474896 S    
C13   C91   1.477712 S    
C39   C119  1.409593 A    
Zn2   O2    1.945687 S    
N15   O81   1.300539 A    
C156  C180  1.405573 A    
N34   O120  1.301260 A    
N54   O160  1.301393 A    
N23   O97   1.301090 A    
N79   O210  1.301047 A    
O19   C7    1.276255 A    
N61   O173  1.300647 A    
Zn8   O4    1.946202 S    
C205  C237  1.412855 A    
C219  Cl11  1.769896 S    
C52   N36   1.438449 S    
N75   O202  1.301047 A    
C196  C212  1.408889 A    
C138  N2    1.371657 A    
C65   C97   1.412795 A    
C6    C227  1.476363 S    
C107  C123  1.439443 S    
C44   C118  1.408456 A    
C204  N84   1.437101 S    
C122  C135  1.202156 T    
C108  C124  1.439511 S    
O13   C5    1.276057 A    
N59   O169  1.300629 A    
C51   N35   1.439586 S    
C207  C239  1.411947 A    
C193  N73   1.437162 S    
C42   C74   1.408430 A    
C37   C117  1.408662 A    
Zn3   O45   1.931473 S    
N41   O134  1.300932 A    
C35   C67   1.407615 A    
N36   O123  1.301223 A    
C203  C239  1.411943 A    
O20   C8    1.277889 A    
C220  Cl12  1.768608 S    
O15   C7    1.276205 A    
C209  C225  1.409796 A    
N66   O183  1.301149 A    
Zn4   O41   1.931744 S    
C198  N78   1.437098 S    
N71   O193  1.300918 A    
O24   C12   1.267060 A    
Zn8   O50   1.931829 S    
C81   C95   1.412877 A    
C123  C134  1.202020 T    
C201  N81   1.437094 S    
N29   O110  1.301293 A    
C147  N7    1.371652 A    
C119  C135  1.439575 S    
C222  Cl14  1.769874 S    
N71   O194  1.300692 A    
C15   C93   1.478016 S    
C221  Cl13  1.768584 S    
N9    O70   1.301297 A    
C1    C232  1.470924 S    
C147  O63   1.349203 S    
C56   N40   1.438456 S    
C148  O64   1.349205 S    
C161  C173  1.408518 A    
C195  N75   1.437159 S    
C49   N33   1.439597 S    
C222  C230  1.409714 A    
Zn1   O47   1.931548 S    
C159  C171  1.408520 A    
C47   C113  1.408709 A    
Zn2   O48   1.931546 S    
N81   O214  1.301020 A    
C51   C83   1.407260 A    
Zn6   O2    1.946984 S    
C137  O53   1.349206 S    
N83   O218  1.301046 A    
N88   O227  1.301141 A    
C163  C175  1.408516 A    
C200  C236  1.412865 A    
C68   N52   1.436852 S    
C46   C78   1.408829 A    
N26   O104  1.301262 A    
C80   N64   1.437112 S    
N51   O153  1.300650 A    
N55   O162  1.300870 A    
Zn15  O10   1.884690 S    
C85   N69   1.433561 S    
C68   C100  1.413948 A    
C140  O56   1.349202 S    
Zn12  O5    1.884842 S    
C115  C131  1.439673 S    
Zn13  O8    1.884468 S    
C168  C192  1.405571 A    
Zn14  O7    1.884468 S    
C85   C91   1.412874 A    
Zn3   O14   1.884842 S    
N64   O180  1.301384 A    
C34   C66   1.408335 A    
Zn15  O22   1.931250 S    
C86   C92   1.413638 A    
C216  Cl8   1.768614 S    
C195  C235  1.411967 A    
C149  O65   1.349203 S    
C126  C131  1.202214 T    
C183  H7    1.083038 S    
C137  C157  1.406363 A    
C196  C236  1.412853 A    
C199  C215  1.408916 A    
N52   O156  1.301153 A    
C54   C86   1.408552 A    
C26   C106  1.408602 A    
C77   N61   1.432949 S    
C38   C70   1.408718 A    
C106  C122  1.439670 S    
N85   O221  1.301142 A    
C52   C84   1.408656 A    
C141  O57   1.349202 S    
C65   N49   1.433191 S    
C56   C88   1.408599 A    
C69   N53   1.433634 S    
N40   O132  1.301249 A    
C59   C91   1.412814 A    
C200  N80   1.437097 S    
N18   O87   1.301219 A    
C206  C222  1.408911 A    
N62   O176  1.301393 A    
N32   O115  1.301214 A    
O47   C9    1.267169 A    
C151  O67   1.349205 S    
N20   O92   1.301262 A    
C168  C176  1.408516 A    
C69   C101  1.412756 A    
C84   N68   1.436826 S    
C37   N21   1.437754 S    
C171  C172  1.415064 A    
C164  C176  1.408516 A    
N37   O126  1.301232 A    
N13   O77   1.300549 A    
Zn11  O6    1.884842 S    
N72   O196  1.301159 A    
C223  Cl15  1.769891 S    
Zn4   O46   1.931471 S    
C61   N45   1.433481 S    
C44   C76   1.408412 A    
N57   O166  1.300866 A    
C29   C61   1.407098 A    
N87   O225  1.301150 A    
N73   O198  1.301047 A    
N17   O85   1.300599 A    
C199  N79   1.437156 S    
C187  H11   1.083040 S    
C137  N1    1.371673 A    
N58   O167  1.301162 A    
N53   O158  1.300673 A    
C201  C237  1.412858 A    
C165  C189  1.405568 A    
Zn8   O17   1.884690 S    
N2    C237  1.444092 S    
N12   O75   1.301216 A    
C146  N6    1.371650 A    
Zn11  O29   1.931473 S    
C50   N34   1.438484 S    
C141  C153  1.406374 A    
O50   C16   1.267534 A    
C64   N48   1.437140 S    
C153  C177  1.405570 A    
N33   O118  1.301300 A    
N37   O125  1.300543 A    
N47   O146  1.300686 A    
N68   O187  1.301157 A    
C53   N37   1.437844 S    
C114  C130  1.439359 S    
O36   C24   1.267606 A    
C66   N50   1.437202 S    
O30   C18   1.267407 A    
