data_mof_unit_61209.cif
_audit_creation_date              2012-12-10T18:55:36-0500
_audit_creation_method            fapswitch 2.2
_symmetry_space_group_name_H-M    P1
_symmetry_Int_Tables_number       1
_space_group_crystal_system       monoclinic
_cell_length_a                    30.253164
_cell_length_b                    30.25316
_cell_length_c                    23.542162
_cell_angle_alpha                 89.999937
_cell_angle_beta                  90.0
_cell_angle_gamma                 90.0
_cell_volume                      21547.0534896

loop_
_atom_site_label
_atom_site_type_symbol
_atom_type_description
_atom_site_fract_x
_atom_site_fract_y
_atom_site_fract_z
_atom_type_partial_charge
C1    C     C_R   0.586091 0.000000 0.500000 0.861185
C2    C     C_R   0.966963 0.842831 0.530323 -0.046436
C3    C     C_R   0.522745 0.842844 0.956958 -0.020197
C4    C     C_R   0.157156 0.477255 0.043042 -0.020197
C5    C     C_R   0.477255 0.842844 0.043042 -0.020197
C6    C     C_R   0.842844 0.522745 0.043042 -0.020197
C7    C     C_R   0.522745 0.157156 0.043042 -0.020197
C8    C     C_R   0.634010 1.000000 0.500000 -0.111755
C9    C     C_R   1.000000 0.634010 0.500000 -0.111752
C10   C     C_R   0.365990 1.000000 0.500000 -0.111753
C11   C     C_R   0.000000 0.365990 0.500000 -0.111753
C12   C     C_R   0.134010 0.500000 0.000000 -0.111753
C13   C     C_R   0.157169 0.966963 0.530323 -0.046436
C14   C     C_R   0.500000 0.134010 0.000000 -0.111753
C15   C     C_R   0.865990 0.500000 0.000000 -0.111753
C16   C     C_R   0.500000 0.865990 1.000000 -0.111753
C17   C     C_R   0.725664 1.000000 0.500000 0.011949
C18   C     C_R   0.000000 0.725664 0.500000 0.011947
C19   C     C_R   0.274336 1.000000 0.500000 0.011948
C20   C     C_R   0.000000 0.274336 0.500000 0.011948
C21   C     C_R   0.225664 0.500000 0.000000 0.011948
C22   C     C_R   0.500000 0.225664 0.000000 0.011947
C23   C     C_R   0.774336 0.500000 0.000000 0.011948
C24   C     C_R   0.033037 0.157169 0.530323 -0.046436
C25   C     C_R   0.500000 0.774336 1.000000 0.011948
C26   C     C_R   0.796382 0.032718 0.531502 -0.018448
C27   C     C_R   0.967281 0.796382 0.531501 -0.018447
C28   C     C_R   0.203617 0.967282 0.531502 -0.018447
C29   C     C_R   0.032719 0.203617 0.531501 -0.018448
C30   C     C_R   0.796382 0.967282 0.468498 -0.018448
C31   C     C_R   0.967281 0.203617 0.468499 -0.018447
C32   C     C_R   0.203617 0.032718 0.468498 -0.018447
C33   C     C_R   0.032719 0.796383 0.468499 -0.018448
C34   C     C_R   0.296382 0.532718 0.031502 -0.018448
C35   C     C_R   0.842831 0.966963 0.469677 -0.046436
C36   C     C_R   0.467281 0.296382 0.031502 -0.018448
C37   C     C_R   0.703617 0.467282 0.031502 -0.018447
C38   C     C_R   0.532719 0.703617 0.031501 -0.018448
C39   C     C_R   0.296382 0.467281 0.968499 -0.018447
C40   C     C_R   0.467281 0.703617 0.968499 -0.018447
C41   C     C_R   0.703617 0.532718 0.968498 -0.018448
C42   C     C_R   0.532718 0.296383 0.968498 -0.018447
C43   C     C_1   0.634557 0.045394 0.411347 0.186718
C44   C     C_1   0.954612 0.634557 0.411342 0.186714
C45   C     C_1   0.365443 0.954610 0.411344 0.186715
C46   C     C_R   0.966963 0.157169 0.469677 -0.046436
C47   C     C_1   0.045391 0.365443 0.411344 0.186716
C48   C     C_1   0.634557 0.954606 0.588654 0.186718
C49   C     C_1   0.954609 0.365443 0.588656 0.186716
C50   C     C_1   0.365443 0.045390 0.588656 0.186716
C51   C     C_1   0.045388 0.634557 0.588658 0.186713
C52   C     C_1   0.134557 0.545391 0.911344 0.186715
C53   C     C_1   0.454610 0.134557 0.911343 0.186715
C54   C     C_1   0.865443 0.454609 0.911344 0.186715
C55   C     C_1   0.545391 0.865443 0.911344 0.186716
C56   C     C_1   0.134557 0.454609 0.088656 0.186715
C57   C     C_R   0.157169 0.033037 0.469677 -0.046436
C58   C     C_1   0.454609 0.865443 0.088656 0.186716
C59   C     C_1   0.865443 0.545390 0.088656 0.186716
C60   C     C_1   0.545390 0.134557 0.088657 0.186715
C61   C     C_2   0.770794 0.066443 0.564504 0.415779
C62   C     C_2   0.933556 0.770794 0.564503 0.415778
C63   C     C_2   0.229205 0.933557 0.564503 0.415779
C64   C     C_2   0.066444 0.229206 0.564502 0.415780
C65   C     C_2   0.770794 0.933557 0.435496 0.415779
C66   C     C_2   0.933556 0.229206 0.435497 0.415779
C67   C     C_2   0.229206 0.066443 0.435497 0.415780
C68   C     C_R   0.033037 0.842831 0.469677 -0.046436
C69   C     C_2   0.066444 0.770795 0.435497 0.415779
C70   C     C_2   0.270794 0.566443 0.064503 0.415780
C71   C     C_2   0.433557 0.270794 0.064503 0.415778
C72   C     C_2   0.729205 0.433557 0.064503 0.415779
C73   C     C_2   0.566444 0.729205 0.064502 0.415779
C74   C     C_2   0.270794 0.433556 0.935497 0.415779
C75   C     C_2   0.433556 0.729206 0.935497 0.415779
C76   C     C_2   0.729206 0.566443 0.935497 0.415779
C77   C     C_2   0.566443 0.270794 0.935497 0.415778
C78   C     C_1   0.867473 0.068566 0.557186 0.289173
C79   C     C_R   0.342831 0.533037 0.030323 -0.046436
C80   C     C_1   0.931433 0.867473 0.557185 0.289174
C81   C     C_1   0.132527 0.931433 0.557185 0.289172
C82   C     C_1   0.068567 0.132527 0.557184 0.289173
C83   C     C_1   0.867473 0.931434 0.442814 0.289174
C84   C     C_1   0.931433 0.132527 0.442815 0.289172
C85   C     C_1   0.132527 0.068567 0.442815 0.289175
C86   C     C_1   0.068567 0.867473 0.442815 0.289171
C87   C     C_1   0.367473 0.568566 0.057185 0.289173
C88   C     C_1   0.431433 0.367473 0.057185 0.289174
C89   C     C_1   0.632527 0.431433 0.057185 0.289171
C90   C     C_R   0.466963 0.342831 0.030323 -0.046436
C91   C     C_1   0.568567 0.632527 0.057185 0.289173
C92   C     C_1   0.367473 0.431433 0.942815 0.289173
C93   C     C_1   0.431433 0.632527 0.942815 0.289172
C94   C     C_1   0.632527 0.568566 0.942815 0.289174
C95   C     C_1   0.568566 0.367473 0.942815 0.289172
C96   C     C_R   0.657169 0.466963 0.030323 -0.046435
C97   C     C_R   1.000000 0.586090 0.500000 0.861187
C98   C     C_R   0.533037 0.657169 0.030323 -0.046436
C99   C     C_R   0.342831 0.466963 0.969677 -0.046436
C100  C     C_R   0.466963 0.657169 0.969677 -0.046436
C101  C     C_R   0.657169 0.533037 0.969677 -0.046436
C102  C     C_R   0.533037 0.342831 0.969677 -0.046436
C103  C     C_R   0.865625 1.000000 0.500000 -0.177391
C104  C     C_R   1.000000 0.865625 0.500000 -0.177391
C105  C     C_R   0.134374 0.000000 0.500000 -0.177391
C106  C     C_R   1.000000 0.134375 0.500000 -0.177390
C107  C     C_R   0.365625 0.500000 0.000000 -0.177391
C108  C     C_R   0.413909 0.000000 0.500000 0.861187
C109  C     C_R   0.500000 0.365625 0.000000 -0.177391
C110  C     C_R   0.634374 0.500000 0.000000 -0.177391
C111  C     C_R   0.500000 0.634374 1.000000 -0.177390
C112  C     C_R   0.773725 1.000000 0.500000 -0.084173
C113  C     C_R   1.000000 0.773725 0.500000 -0.084173
C114  C     C_R   0.226275 0.000000 0.500000 -0.084174
C115  C     C_R   1.000000 0.226275 0.500000 -0.084173
C116  C     C_R   0.273725 0.500000 0.000000 -0.084173
C117  C     C_R   0.500000 0.273725 0.000000 -0.084174
C118  C     C_R   0.726275 0.500000 0.000000 -0.084174
C119  C     C_R   1.000000 0.413909 0.500000 0.861187
C120  C     C_R   0.500000 0.726275 1.000000 -0.084173
C121  C     C_R   1.000000 0.913702 0.500000 0.867848
C122  C     C_R   0.086298 0.000000 0.500000 0.867848
C123  C     C_R   1.000000 0.086298 0.500000 0.867847
C124  C     C_R   0.913702 0.000000 0.500000 0.867848
C125  C     C_R   0.500000 0.413702 0.000000 0.867848
C126  C     C_R   0.586298 0.500000 0.000000 0.867848
C127  C     C_R   0.500000 0.586298 1.000000 0.867847
C128  C     C_R   0.413702 0.500000 0.000000 0.867848
C129  C     C_R   0.500000 1.000000 0.609384 0.901047
C130  C     C_R   0.086090 0.500000 0.000000 0.861186
C131  C     C_R   1.000000 0.500000 0.609384 0.901047
C132  C     C_R   0.500000 0.000000 0.390616 0.901047
C133  C     C_R   1.000000 0.500000 0.390616 0.901047
C134  C     C_R   0.000000 0.500000 0.109384 0.901047
C135  C     C_R   0.500000 0.000000 0.109384 0.901047
C136  C     C_R   1.000000 0.500000 0.890616 0.901047
C137  C     C_R   0.500000 0.000000 0.890616 0.901047
C138  C     C_1   0.500000 1.000000 0.669592 -0.151429
C139  C     C_1   0.000000 0.500000 0.669592 -0.151427
C140  C     C_1   0.500000 0.000000 0.330408 -0.151429
C141  C     C_R   0.500000 0.086091 0.000000 0.861186
C142  C     C_1   1.000000 0.500000 0.330408 -0.151427
C143  C     C_1   1.000000 0.500000 0.169592 -0.151428
C144  C     C_1   0.500000 0.000000 0.169592 -0.151428
C145  C     C_1   1.000000 0.500000 0.830407 -0.151428
C146  C     C_1   0.500000 1.000000 0.830407 -0.151428
C147  C     C_1   0.500000 1.000000 0.720365 0.032844
C148  C     C_1   1.000000 0.500000 0.720365 0.032844
C149  C     C_1   0.500000 0.000000 0.279635 0.032844
C150  C     C_1   1.000000 0.500000 0.279635 0.032844
C151  C     C_1   1.000000 0.500000 0.220365 0.032844
C152  C     C_R   0.913909 0.500000 1.000000 0.861187
C153  C     C_1   0.500000 0.000000 0.220365 0.032844
C154  C     C_1   1.000000 0.500000 0.779635 0.032844
C155  C     C_1   0.500000 1.000000 0.779635 0.032844
C156  C     C_R   0.703062 0.022456 0.457196 -0.201300
C157  C     C_R   0.977547 0.703062 0.457194 -0.201295
C158  C     C_R   0.296938 0.977546 0.457195 -0.201300
C159  C     C_R   0.022454 0.296938 0.457195 -0.201299
C160  C     C_R   0.703062 0.977544 0.542804 -0.201300
C161  C     C_R   0.977545 0.296938 0.542805 -0.201299
C162  C     C_R   0.296938 0.022454 0.542805 -0.201296
C163  C     C_R   0.500000 0.913909 0.000000 0.861187
C164  C     C_R   0.022453 0.703061 0.542806 -0.201298
C165  C     C_R   0.203061 0.522454 0.957195 -0.201298
C166  C     C_R   0.477546 0.203062 0.957194 -0.201296
C167  C     C_R   0.796938 0.477546 0.957195 -0.201300
C168  C     C_R   0.522454 0.796939 0.957195 -0.201297
C169  C     C_R   0.203061 0.477546 0.042805 -0.201298
C170  C     C_R   0.477546 0.796938 0.042805 -0.201299
C171  C     C_R   0.796938 0.522454 0.042805 -0.201297
C172  C     C_R   0.522454 0.203061 0.042806 -0.201298
C173  C     C_R   0.657156 0.022747 0.456959 -0.020197
C174  C     C_R   0.842831 0.033036 0.530323 -0.046436
C175  C     C_R   0.977256 0.657156 0.456957 -0.020197
C176  C     C_R   0.342844 0.977255 0.456958 -0.020196
C177  C     C_R   0.022745 0.342844 0.456958 -0.020197
C178  C     C_R   0.657156 0.977253 0.543041 -0.020197
C179  C     C_R   0.977255 0.342844 0.543042 -0.020197
C180  C     C_R   0.342844 0.022745 0.543042 -0.020197
C181  C     C_R   0.022744 0.657156 0.543043 -0.020197
C182  C     C_R   0.157156 0.522745 0.956958 -0.020197
C183  C     C_R   0.477255 0.157156 0.956958 -0.020197
C184  C     C_R   0.842844 0.477255 0.956958 -0.020196
H1    H     H_    0.721348 0.039562 0.424210 0.162069
H2    H     H_    0.460441 0.221348 0.924207 0.162070
H3    H     H_    0.778652 0.460440 0.924207 0.162069
H4    H     H_    0.539560 0.778652 0.924207 0.162069
H5    H     H_    0.221348 0.460440 0.075792 0.162069
H6    H     H_    0.460440 0.778652 0.075792 0.162069
H7    H     H_    0.778652 0.539559 0.075793 0.162070
H8    H     H_    0.539559 0.221348 0.075793 0.162069
H9    H     H_    0.736836 0.073958 0.553350 0.090183
H10   H     H_    0.926041 0.736836 0.553348 0.090183
H11   H     H_    0.263163 0.926040 0.553348 0.090183
H12   H     H_    0.960442 0.721348 0.424206 0.162070
H13   H     H_    0.073959 0.263164 0.553348 0.090183
H14   H     H_    0.736836 0.926041 0.446650 0.090183
H15   H     H_    0.926040 0.263164 0.446652 0.090183
H16   H     H_    0.263164 0.073959 0.446651 0.090183
H17   H     H_    0.073960 0.736837 0.446653 0.090183
H18   H     H_    0.236836 0.573959 0.053349 0.090183
H19   H     H_    0.426041 0.236836 0.053349 0.090183
H20   H     H_    0.763163 0.426040 0.053348 0.090182
H21   H     H_    0.573959 0.763164 0.053348 0.090183
H22   H     H_    0.236836 0.426041 0.946652 0.090183
H23   H     H_    0.278652 0.960441 0.424207 0.162069
H24   H     H_    0.426041 0.763164 0.946652 0.090183
H25   H     H_    0.763164 0.573959 0.946651 0.090183
H26   H     H_    0.573959 0.236836 0.946652 0.090183
H27   H     H_    0.039560 0.278652 0.424208 0.162070
H28   H     H_    0.721348 0.960438 0.575790 0.162069
H29   H     H_    0.960440 0.278652 0.575792 0.162069
H30   H     H_    0.278652 0.039559 0.575793 0.162069
H31   H     H_    0.039558 0.721347 0.575794 0.162070
H32   H     H_    0.221348 0.539560 0.924208 0.162069
N1    N     N_1   0.616437 0.063488 0.374826 -0.172629
N2    N     N_1   0.436518 0.116437 0.874821 -0.172631
N3    N     N_1   0.883563 0.436517 0.874822 -0.172631
N4    N     N_1   0.563483 0.883564 0.874822 -0.172631
N5    N     N_1   0.116437 0.436516 0.125178 -0.172631
N6    N     N_1   0.436516 0.883563 0.125178 -0.172631
N7    N     N_1   0.883563 0.563483 0.125178 -0.172630
N8    N     N_1   0.563482 0.116436 0.125179 -0.172631
N9    N     N_1   0.887232 0.096850 0.578443 -0.162394
N10   N     N_1   0.903149 0.887232 0.578442 -0.162394
N11   N     N_1   0.112767 0.903149 0.578443 -0.162395
N12   N     N_1   0.936520 0.616437 0.374819 -0.172631
N13   N     N_1   0.096851 0.112767 0.578442 -0.162394
N14   N     N_1   0.887232 0.903150 0.421557 -0.162394
N15   N     N_1   0.903149 0.112767 0.421558 -0.162395
N16   N     N_1   0.112767 0.096851 0.421557 -0.162394
N17   N     N_1   0.096851 0.887233 0.421558 -0.162395
N18   N     N_1   0.387232 0.596851 0.078443 -0.162395
N19   N     N_1   0.403149 0.387232 0.078443 -0.162394
N20   N     N_1   0.612768 0.403149 0.078443 -0.162395
N21   N     N_1   0.596851 0.612767 0.078442 -0.162394
N22   N     N_1   0.387232 0.403149 0.921557 -0.162394
N23   N     N_1   0.383563 0.936517 0.374821 -0.172631
N24   N     N_1   0.403149 0.612768 0.921558 -0.162394
N25   N     N_1   0.612767 0.596851 0.921557 -0.162394
N26   N     N_1   0.596851 0.387232 0.921557 -0.162395
N27   N     N_1   0.063484 0.383564 0.374822 -0.172630
N28   N     N_1   0.616437 0.936512 0.625174 -0.172630
N29   N     N_1   0.936516 0.383563 0.625178 -0.172631
N30   N     N_1   0.383563 0.063483 0.625178 -0.172630
N31   N     N_1   0.063479 0.616436 0.625181 -0.172632
N32   N     N_1   0.116437 0.563483 0.874822 -0.172630
O1    O     O_R   0.565460 0.036980 0.500020 -0.611235
O2    O     O_R   0.463020 0.065460 0.000020 -0.611235
O3    O     O_R   0.934540 0.463020 0.000020 -0.611235
O4    O     O_R   0.536980 0.934540 0.000020 -0.611236
O5    O     O_R   0.065460 0.463020 0.999980 -0.611235
O6    O     O_R   0.463020 0.934540 0.999980 -0.611235
O7    O     O_R   0.934540 0.536980 0.999980 -0.611236
O8    O     O_R   0.536980 0.065460 0.999980 -0.611236
O9    O     O_R   0.499990 0.036980 0.582790 -0.606788
O10   O     O_R   0.963020 0.499990 0.582790 -0.606788
O11   O     O_R   0.500010 0.963020 0.582790 -0.606788
O12   O     O_R   0.963020 0.565460 0.500020 -0.611235
O13   O     O_R   0.036980 0.500010 0.582790 -0.606788
O14   O     O_R   0.499990 0.963020 0.417210 -0.606788
O15   O     O_R   0.963020 0.500010 0.417210 -0.606788
O16   O     O_R   0.500010 0.036980 0.417210 -0.606788
O17   O     O_R   0.036980 0.499990 0.417210 -0.606788
O18   O     O_R   0.999990 0.536980 0.082790 -0.606788
O19   O     O_R   0.463020 0.999990 0.082790 -0.606788
O20   O     O_R   0.000010 0.463020 0.082790 -0.606788
O21   O     O_R   0.536980 0.000010 0.082790 -0.606788
O22   O     O_R   0.999990 0.463020 0.917210 -0.606788
O23   O     O_R   0.434540 0.963020 0.500020 -0.611235
O24   O     O_R   0.463020 0.000010 0.917210 -0.606788
O25   O     O_R   0.000010 0.536980 0.917210 -0.606788
O26   O     O_R   0.536980 0.999990 0.917210 -0.606788
O27   O     O_R   0.999990 0.934570 0.546740 -0.609688
O28   O     O_R   0.065430 0.999990 0.546740 -0.609688
O29   O     O_R   0.000010 0.065430 0.546740 -0.609688
O30   O     O_R   0.934570 0.000010 0.546740 -0.609688
O31   O     O_R   0.999990 0.065430 0.453260 -0.609688
O32   O     O_R   0.065430 0.000010 0.453260 -0.609688
O33   O     O_R   0.000010 0.934570 0.453260 -0.609687
O34   O     O_R   0.036980 0.434540 0.500020 -0.611236
O35   O     O_R   0.934570 0.999990 0.453260 -0.609687
O36   O     O_R   0.499990 0.434570 0.046740 -0.609688
O37   O     O_R   0.565430 0.499990 0.046740 -0.609687
O38   O     O_R   0.500010 0.565430 0.046740 -0.609688
O39   O     O_R   0.434570 0.500010 0.046740 -0.609688
O40   O     O_R   0.499990 0.565430 0.953260 -0.609688
O41   O     O_R   0.565430 0.500010 0.953260 -0.609688
O42   O     O_R   0.500010 0.434570 0.953260 -0.609687
O43   O     O_R   0.434570 0.499990 0.953260 -0.609687
O44   O     O_2   0.786715 0.085378 0.605469 -0.539165
O45   O     O_R   0.565460 0.963020 0.499980 -0.611235
O46   O     O_2   0.914621 0.786715 0.605467 -0.539165
O47   O     O_2   0.213285 0.914622 0.605469 -0.539164
O48   O     O_2   0.085380 0.213285 0.605466 -0.539165
O49   O     O_2   0.786715 0.914622 0.394531 -0.539165
O50   O     O_2   0.914621 0.213285 0.394533 -0.539164
O51   O     O_2   0.213285 0.085379 0.394533 -0.539165
O52   O     O_2   0.085379 0.786715 0.394532 -0.539164
O53   O     O_2   0.286715 0.585379 0.105468 -0.539165
O54   O     O_2   0.414621 0.286715 0.105468 -0.539165
O55   O     O_2   0.713285 0.414622 0.105469 -0.539164
O56   O     O_R   0.963020 0.434540 0.499980 -0.611235
O57   O     O_2   0.585380 0.713285 0.105467 -0.539165
O58   O     O_2   0.286715 0.414621 0.894532 -0.539165
O59   O     O_2   0.414621 0.713285 0.894532 -0.539164
O60   O     O_2   0.713285 0.585379 0.894533 -0.539165
O61   O     O_2   0.585378 0.286715 0.894532 -0.539164
O62   O     O_R   0.434540 0.036980 0.499980 -0.611236
O63   O     O_R   0.036980 0.565460 0.499980 -0.611236
O64   O     O_R   0.065460 0.536980 0.000020 -0.611236
Zn1   Zn    Zn3+2 0.500000 0.049380 0.500000 1.021587
Zn2   Zn    Zn3+2 1.000000 0.000000 0.437580 1.034006
Zn3   Zn    Zn3+2 0.500000 0.500000 0.062420 1.034006
Zn4   Zn    Zn3+2 0.500000 0.500000 0.937580 1.034006
Zn5   Zn    Zn3+2 0.950620 0.500000 0.500000 1.021587
Zn6   Zn    Zn3+2 0.500000 0.950620 0.500000 1.021587
Zn7   Zn    Zn3+2 0.049380 0.500000 0.500000 1.021586
Zn8   Zn    Zn3+2 1.000000 0.549380 0.000000 1.021587
Zn9   Zn    Zn3+2 0.450620 0.000000 0.000000 1.021587
Zn10  Zn    Zn3+2 0.000000 0.450620 0.000000 1.021587
Zn11  Zn    Zn3+2 0.549380 0.000000 0.000000 1.021586
Zn12  Zn    Zn3+2 1.000000 0.000000 0.562420 1.034006

loop_
_geom_bond_atom_site_label_1
_geom_bond_atom_site_label_2
_ccdc_geom_bond_type
C44   C175  S    
C23   C118  S    
C79   C87   S    
C156  H1    S    
C12   C130  S    
C158  H23   S    
C89   N20   T    
C52   C182  S    
C53   C183  S    
C123  O31   A    
C93   N24   T    
C42   C102  A    
C159  H27   S    
C39   C74   S    
C17   C160  A    
C149  C153  S    
C134  C143  S    
C128  O43   A    
O37   Zn3   S    
C65   O49   D    
C41   C118  A    
C4    C12   A    
C147  C155  S    
C95   C102  S    
C33   C69   S    
C143  C151  T    
C29   C64   S    
C7    C172  A    
C4    C56   S    
C32   C57   A    
C21   C116  S    
C52   N32   T    
C164  H31   S    
C156  C173  A    
C86   N17   T    
C125  O42   A    
C137  C146  S    
C67   H16   S    
C72   O55   D    
C124  O30   A    
C101  C110  A    
C37   C96   A    
C19   C162  A    
C163  O6    A    
C51   N31   T    
C126  O41   A    
C165  H32   S    
C125  O36   A    
C2    C104  A    
C15   C184  A    
C91   N21   T    
C63   O47   D    
O22   Zn10  S    
C42   C117  A    
C36   C117  A    
C93   C100  S    
C160  C178  A    
C23   C167  A    
C82   N13   T    
O41   Zn4   S    
C70   O53   D    
C11   C179  A    
C62   H10   S    
O21   Zn11  S    
C166  H2    S    
C26   C61   S    
C108  O23   A    
C51   C181  S    
O35   Zn2   S    
C122  O32   A    
C40   C100  A    
C123  O29   A    
O3    Zn10  S    
C133  O17   A    
C83   N14   T    
C89   C96   S    
C18   C157  A    
C41   C76   S    
C43   C173  S    
O56   Zn5   S    
C62   O46   D    
C57   C85   S    
C91   C98   S    
O10   Zn5   S    
C22   C166  A    
C28   C63   S    
C23   C171  A    
C100  C111  A    
O32   Zn2   S    
C102  C109  A    
C50   N30   T    
C76   O60   D    
C49   C179  S    
C70   H18   S    
O31   Zn2   S    
C77   O61   D    
C1    C8    S    
C10   C108  S    
C136  O25   A    
C71   O54   D    
C169  H5    S    
C38   C98   A    
C73   O57   D    
C48   C178  S    
C130  O64   A    
C172  H8    S    
C92   N22   T    
C133  C142  S    
C5    C58   S    
C163  O4    A    
C129  O9    A    
O25   Zn8   S    
C56   N5    T    
C1    O1    A    
C135  O21   A    
O39   Zn3   S    
C164  C181  A    
C3    C55   S    
C31   C46   A    
C5    C170  A    
C11   C177  A    
C119  O56   A    
C161  C179  A    
C162  C180  A    
C29   C115  A    
C121  O33   A    
C18   C113  S    
C31   C115  A    
C25   C168  A    
C139  C148  T    
O26   Zn11  S    
O20   Zn10  S    
O12   Zn5   S    
C66   O50   D    
C103  C174  A    
C30   C112  A    
C45   N23   T    
C27   C62   S    
C34   C79   A    
C131  O10   A    
C39   C99   A    
C167  C184  A    
C108  O62   A    
C77   H26   S    
C110  C126  S    
C32   C67   S    
C145  C154  T    
C27   C113  A    
C24   C106  A    
O33   Zn2   S    
C61   H9    S    
C132  O14   A    
C162  H30   S    
O36   Zn3   S    
C36   C90   A    
C133  O15   A    
C88   N19   T    
C73   H21   S    
C67   O51   D    
C141  O8    A    
C6    C59   S    
O28   Zn12  S    
C129  O11   A    
C20   C115  S    
C36   C71   S    
C33   C113  A    
C1    O45   A    
O6    Zn9   S    
C21   C169  A    
C46   C106  A    
C105  C122  S    
C9    C175  A    
C30   C65   S    
C131  C139  S    
C65   H14   S    
C42   C77   S    
C150  C151  S    
C90   C109  A    
C80   N10   T    
C140  C149  T    
C49   N29   T    
C3    C16   A    
O19   Zn9   S    
C97   O12   A    
C131  O13   A    
C25   C170  A    
C168  H4    S    
C31   C66   S    
C48   N28   T    
C14   C183  A    
C54   N3    T    
C165  C182  A    
C94   N25   T    
C35   C103  A    
O11   Zn6   S    
C26   C174  A    
C13   C81   S    
C137  O26   A    
C21   C165  A    
C24   C29   A    
C18   C164  A    
C12   C182  A    
C146  C155  T    
O63   Zn7   S    
O64   Zn8   S    
C13   C28   A    
C2    C27   A    
C34   C70   S    
O7    Zn8   S    
C74   O58   D    
C72   H20   S    
C132  O16   A    
C38   C120  A    
C78   N9    T    
C64   H13   S    
O42   Zn4   S    
C141  O2    A    
C19   C158  A    
C148  C154  S    
C103  C124  S    
C15   C152  S    
C134  O20   A    
C13   C105  A    
C35   C83   S    
C19   C114  S    
C96   C110  A    
O43   Zn4   S    
O16   Zn1   S    
C75   O59   D    
C75   H24   S    
O38   Zn3   S    
C79   C107  A    
O27   Zn12  S    
C44   N12   T    
C59   N7    T    
C40   C120  A    
C88   C90   S    
O29   Zn12  S    
C63   H11   S    
O2    Zn9   S    
C25   C120  S    
C26   C112  A    
C7    C60   S    
C9    C97   S    
C127  O40   A    
C166  C183  A    
C68   C104  A    
C128  O39   A    
C152  O7    A    
C92   C99   S    
C132  C140  S    
C61   O44   D    
C99   C107  A    
C40   C75   S    
C10   C180  A    
C142  C150  T    
C47   N27   T    
C41   C101  A    
C95   N26   T    
C130  O5    A    
C39   C116  A    
C37   C72   S    
O24   Zn9   S    
C17   C156  A    
O62   Zn1   S    
C76   H25   S    
C134  O18   A    
C22   C117  S    
C57   C105  A    
C69   H17   S    
C157  H12   S    
C68   C86   S    
C11   C119  S    
O45   Zn6   S    
C58   N6    T    
C71   H19   S    
C87   N18   T    
C30   C35   A    
C107  C128  S    
C34   C116  A    
O13   Zn7   S    
C144  C153  T    
C84   N15   T    
C24   C82   S    
O15   Zn5   S    
C5    C16   A    
C6    C15   A    
C7    C14   A    
C158  C176  A    
C37   C118  A    
C94   C101  S    
C20   C159  A    
C106  C123  S    
O8    Zn11  S    
C136  C145  S    
C14   C141  S    
C135  O19   A    
C127  O38   A    
C43   N1    T    
C85   N16   T    
C159  C177  A    
C60   N8    T    
O4    Zn11  S    
C137  O24   A    
C3    C168  A    
C119  O34   A    
C6    C171  A    
C16   C163  S    
C10   C176  A    
C160  H28   S    
C4    C169  A    
C129  C138  S    
C171  H7    S    
C9    C181  A    
C64   O48   D    
C45   C176  S    
C8    C173  A    
C104  C121  S    
C69   O52   D    
C50   C180  S    
O34   Zn7   S    
C121  O27   A    
C122  O28   A    
C138  C147  T    
C167  H3    S    
O30   Zn12  S    
C28   C114  A    
C157  C175  A    
C109  C125  S    
C135  C144  S    
C97   O63   A    
C111  C127  S    
C46   C84   S    
O40   Zn4   S    
C17   C112  S    
C74   H22   S    
C124  O35   A    
C53   N2    T    
C161  H29   S    
C98   C111  A    
C81   N11   T    
O17   Zn7   S    
O18   Zn8   S    
C66   H15   S    
C55   N4    T    
C170  H6    S    
O14   Zn6   S    
C47   C177  S    
O5    Zn10  S    
C20   C161  A    
O23   Zn6   S    
C54   C184  S    
O9    Zn1   S    
C2    C80   S    
O1    Zn1   S    
C8    C178  A    
C33   C68   A    
C126  O37   A    
C78   C174  S    
C136  O22   A    
C32   C114  A    
C152  O3    A    
C22   C172  A    
C38   C73   S    
