data_mof_unit_57520.cif
_audit_creation_date              2012-12-10T19:13:29-0500
_audit_creation_method            fapswitch 2.2
_symmetry_space_group_name_H-M    P1
_symmetry_Int_Tables_number       1
_space_group_crystal_system       triclinic
_cell_length_a                    9.728495
_cell_length_b                    10.62733
_cell_length_c                    16.630406
_cell_angle_alpha                 90.598026
_cell_angle_beta                  83.882837
_cell_angle_gamma                 89.983784
_cell_volume                      1709.49834115

loop_
_atom_site_label
_atom_site_type_symbol
_atom_type_description
_atom_site_fract_x
_atom_site_fract_y
_atom_site_fract_z
_atom_type_partial_charge
C1    C     C_R   0.499411 0.742218 0.502786 0.869311
C2    C     C_R   0.351463 0.608337 0.772322 -0.240182
C3    C     C_R   0.435329 0.556982 0.136393 -0.144884
C4    C     C_R   0.432101 0.508609 0.213519 -0.229097
C5    C     C_R   0.638735 0.626999 0.234195 -0.216339
C6    C     C_R   0.642546 0.675249 0.156590 -0.203631
C7    C     C_R   0.539960 0.641837 0.107606 0.211164
C8    C     C_2   0.445257 0.678405 0.980213 -0.249129
C9    C     C_2   0.554006 0.681069 0.022996 -0.250990
C10   C     C_R   0.534244 0.542439 0.262481 -0.026984
C11   C     C_3   0.526139 0.925835 0.416829 -0.507786
C12   C     C_R   0.479513 0.503990 0.653674 0.842117
C13   C     C_3   0.531498 0.070484 0.417568 -0.414258
C14   C     C_3   0.354009 0.929667 0.539323 -0.420326
C15   C     C_3   0.619071 0.930763 0.552489 0.427304
C16   C     C_3   0.499007 0.878373 0.505003 0.072616
C17   C     C_3   0.499547 0.121623 0.505386 0.122409
C18   C     C_3   0.356317 0.072924 0.542440 -0.403435
C19   C     C_3   0.610686 0.074797 0.558746 -0.477163
C20   C     C_3   0.917053 0.630580 0.505880 -0.235752
C21   C     C_3   0.079902 0.632266 0.497888 -0.375193
C22   C     C_3   0.906288 0.431973 0.571722 -0.441746
C23   C     C_R   0.499513 0.257827 0.503112 0.855006
C24   C     C_3   0.932060 0.439216 0.426870 0.422744
C25   C     C_3   0.068025 0.441896 0.575586 0.520630
C26   C     C_3   0.095177 0.430969 0.430253 0.313444
C27   C     C_R   0.520443 0.505345 0.346623 0.851584
C28   C     C_R   0.465438 0.536932 0.739251 -0.029267
C29   C     C_R   0.575472 0.514885 0.784858 -0.204184
C30   C     C_R   0.572223 0.564484 0.862454 -0.143503
C31   C     C_R   0.459084 0.638193 0.895219 0.207528
C32   C     C_R   0.348003 0.658027 0.850071 -0.216346
H1    H     H_    0.664676 0.460542 0.760144 0.137175
H2    H     H_    0.442970 0.893293 0.380428 0.192608
H3    H     H_    0.625340 0.887562 0.386661 0.164569
H4    H     H_    0.455305 0.107833 0.378445 0.174930
H5    H     H_    0.275206 0.899911 0.499020 0.186207
H6    H     H_    0.272027 0.108651 0.508536 0.225662
H7    H     H_    0.716121 0.911379 0.512280 0.097986
H8    H     H_    0.714260 0.114175 0.537676 0.157413
H9    H     H_    0.585897 0.108157 0.622134 0.168756
H10   H     H_    0.316593 0.891812 0.599403 0.160625
H11   H     H_    0.334345 0.106405 0.606175 0.150323
H12   H     H_    0.875765 0.676266 0.564022 0.198096
H13   H     H_    0.880255 0.689099 0.457456 0.192444
H14   H     H_    0.120090 0.677644 0.440106 0.154719
H15   H     H_    0.115341 0.691947 0.546932 0.214496
H16   H     H_    0.850458 0.470556 0.628322 0.218656
H17   H     H_    0.888565 0.342303 0.423672 0.094463
H18   H     H_    0.715019 0.658481 0.272845 0.179978
H19   H     H_    0.148288 0.474567 0.374769 0.131218
H20   H     H_    0.111067 0.344767 0.578657 0.110726
H21   H     H_    0.658114 0.690517 0.992845 0.148100
H22   H     H_    0.259042 0.712630 0.874831 0.131790
H23   H     H_    0.357923 0.524563 0.098884 0.125587
H24   H     H_    0.341134 0.683587 0.011139 0.148311
H25   H     H_    0.656900 0.541793 0.896950 0.123935
N1    N     N_3   0.861190 0.500250 0.501720 -0.098368
N2    N     N_3   0.138550 0.503270 0.501080 -0.110953
O1    O     O_R   0.383960 0.685090 0.500020 -0.638324
O2    O     O_R   0.616040 0.685320 0.499960 -0.613908
O3    O     O_R   0.370240 0.499890 0.615830 -0.579563
O4    O     O_R   0.602330 0.500120 0.615770 -0.616295
O5    O     O_R   0.383960 0.314680 0.500040 -0.579977
O6    O     O_R   0.616040 0.314910 0.499980 -0.643810
O7    O     O_R   0.397670 0.499880 0.384230 -0.625370
O8    O     O_R   0.629760 0.500110 0.384170 -0.562357
Zn1   Zn    Zn3+2 0.345040 0.499850 0.500040 0.965963
Zn2   Zn    Zn3+2 0.654960 0.500150 0.499960 0.950805
H26   H     H_    0.725026 0.738772 0.134851 0.128797
H27   H     H_    0.635923 0.102105 0.391713 0.165208
O9    O     O_3   0.643356 0.871462 0.626151 -0.614306
C33   C     C_3   0.527322 0.868260 0.684411 -0.275848
H28   H     H_    0.458905 0.789629 0.670724 0.158358
H29   H     H_    0.469826 0.958487 0.690978 0.143187
H30   H     H_    0.563586 0.848242 0.743986 0.199619
H31   H     H_    0.349616 0.445180 0.234940 0.126135
O10   O     O_3   0.093534 0.511376 0.645863 -0.595149
C34   C     C_3   0.081374 0.432893 0.714560 -0.393105
H32   H     H_    0.173903 0.371414 0.714069 0.180780
H33   H     H_    0.986338 0.374085 0.718997 0.140582
H34   H     H_    0.075062 0.492796 0.769813 0.197604
O11   O     O_3   0.903550 0.509916 0.358312 -0.612397
C35   C     C_3   0.916560 0.435572 0.286967 -0.380489
H35   H     H_    0.850608 0.349987 0.293043 0.162810
H36   H     H_    0.026076 0.411343 0.268015 0.143517
H37   H     H_    0.881756 0.491595 0.237169 0.202959
O12   O     O_3   0.136601 0.303186 0.436324 -0.634808
C36   C     C_3   0.157403 0.242021 0.360396 -0.393876
H38   H     H_    0.230898 0.293722 0.317069 0.163749
H39   H     H_    0.057639 0.224873 0.335640 0.151700
H40   H     H_    0.203631 0.148361 0.368823 0.191465
H41   H     H_    0.875639 0.331296 0.568728 0.123484
H42   H     H_    0.268689 0.631848 0.736588 0.197747

loop_
_geom_bond_atom_site_label_1
_geom_bond_atom_site_label_2
_ccdc_geom_bond_type
C10   C27   S    
O7    Zn1   S    
C33   H28   S    
C14   C18   S    
C22   H16   S    
C35   H37   S    
C8    H24   S    
C15   C19   S    
C15   O9    S    
C17   C23   S    
C12   C28   S    
O5    Zn1   S    
C28   C29   A    
C24   O11   S    
C24   C26   S    
C21   N2    S    
C3    C7    A    
C30   C31   A    
C15   C16   S    
C30   H25   S    
C29   H1    S    
C2    C32   A    
C17   C19   S    
C3    H23   S    
C31   C32   A    
C8    C9    D    
C22   C25   S    
C36   H39   S    
C26   N2    S    
C20   H13   S    
C14   H10   S    
C33   H29   S    
C32   H22   S    
C20   H12   S    
C25   O10   S    
O4    Zn2   S    
C2    H42   S    
C35   H35   S    
C13   H4    S    
C1    O1    A    
C34   H33   S    
C12   O4    A    
O10   C34   S    
C13   H27   S    
O8    Zn2   S    
C29   C30   A    
N2    Zn1   S    
C12   O3    A    
C11   C16   S    
O11   C35   S    
C17   C18   S    
C1    C16   S    
O12   C36   S    
C36   H40   S    
C15   H7    S    
C24   N1    S    
C23   O5    A    
C33   H30   S    
C14   C16   S    
C5    H18   S    
C9    H21   S    
C4    C10   A    
C3    C4    A    
C21   H14   S    
O2    Zn2   S    
C24   H17   S    
C6    H26   S    
C8    C31   S    
C11   H2    S    
C35   H36   S    
O9    C33   S    
C1    O2    A    
C22   N1    S    
C34   H34   S    
N1    Zn2   S    
C6    C7    A    
C13   C17   S    
O3    Zn1   S    
C23   O6    A    
C11   H3    S    
C18   H6    S    
C25   H20   S    
C4    H31   S    
C27   O7    A    
C18   H11   S    
C14   H5    S    
C11   C13   S    
C5    C6    A    
O6    Zn2   S    
C22   H41   S    
C27   O8    A    
C19   H8    S    
C34   H32   S    
C7    C9    S    
C5    C10   A    
C20   C21   S    
O1    Zn1   S    
C26   O12   S    
C2    C28   A    
C25   N2    S    
C36   H38   S    
C26   H19   S    
C20   N1    S    
C19   H9    S    
C21   H15   S    
