data_mof_unit_7565.cif
_audit_creation_date              2012-12-10T18:10:24-0500
_audit_creation_method            fapswitch 2.2
_symmetry_space_group_name_H-M    P1
_symmetry_Int_Tables_number       1
_space_group_crystal_system       triclinic
_cell_length_a                    10.734396
_cell_length_b                    9.560302
_cell_length_c                    15.815346
_cell_angle_alpha                 89.990615
_cell_angle_beta                  92.66557
_cell_angle_gamma                 89.921717
_cell_volume                      1621.27745963

loop_
_atom_site_label
_atom_site_type_symbol
_atom_type_description
_atom_site_fract_x
_atom_site_fract_y
_atom_site_fract_z
_atom_type_partial_charge
C1    C     C_R   0.260303 0.500486 0.501867 0.845271
C2    C     C_3   0.625162 0.554459 0.955329 -0.343053
C3    C     C_3   0.625286 0.554157 0.053147 -0.397014
C4    C     C_1   0.498840 0.499825 0.824846 -0.017638
C5    C     C_1   0.498954 0.500608 0.175190 -0.102932
C6    C     C_1   0.499262 0.500417 0.250867 -0.222849
C7    C     C_3   0.071702 0.651548 0.523300 0.415598
C8    C     C_3   0.076194 0.394369 0.568925 0.414901
C9    C     C_3   0.928171 0.648783 0.518145 -0.516090
C10   C     C_3   0.932319 0.401403 0.570771 -0.525448
C11   C     C_3   0.068249 0.459701 0.413536 -0.731587
C12   C     C_3   0.121880 0.501873 0.502959 -0.058074
C13   C     C_3   0.878076 0.498806 0.499393 -0.053199
C14   C     C_R   0.499644 0.500050 0.340617 0.840275
C15   C     C_3   0.921022 0.446228 0.411208 0.968623
C16   C     C_3   0.626530 0.082965 0.522277 -0.243092
C17   C     C_3   0.624050 0.917416 0.530182 -0.241708
C18   C     C_3   0.420532 0.082800 0.567616 -0.325600
C19   C     C_3   0.411421 0.917790 0.561690 -0.327623
C20   C     C_3   0.456903 0.084714 0.414861 0.723120
C21   C     C_3   0.468501 0.913501 0.413197 0.729721
C22   C     C_R   0.739618 0.499803 0.500626 0.871004
C23   C     C_R   0.499870 0.499976 0.659483 0.841491
C24   C     C_3   0.393675 0.596806 0.045868 -0.446642
C25   C     C_3   0.477201 0.350175 0.048766 -0.443240
C26   C     C_3   0.476277 0.348683 0.950348 0.321265
C27   C     C_3   0.391673 0.595868 0.947406 0.329089
C28   C     C_1   0.499277 0.499890 0.749180 -0.152146
C29   C     C_3   0.498670 0.500433 0.082998 0.232051
C30   C     C_3   0.498364 0.499843 0.917248 0.172027
Cu1   Cu    Cu3+1 0.499860 0.642410 0.500040 0.948171
Cu2   Cu    Cu3+1 0.499860 0.357590 0.500040 0.952742
H1    H     H_    0.301538 0.548827 0.923032 0.048923
H2    H     H_    0.381567 0.315588 0.925346 0.034546
H3    H     H_    0.893978 0.723002 0.468007 0.183649
H4    H     H_    0.894025 0.293706 0.563792 0.165724
H5    H     H_    0.094575 0.542587 0.368264 0.175889
H6    H     H_    0.117825 0.366143 0.391928 0.170141
H7    H     H_    0.665773 0.128438 0.582542 0.144133
H8    H     H_    0.647530 0.886788 0.596972 0.139686
H9    H     H_    0.692567 0.113023 0.473369 0.224385
H10   H     H_    0.700609 0.873735 0.493525 0.198420
H11   H     H_    0.459892 0.110708 0.631782 0.178314
H12   H     H_    0.430159 0.873568 0.626031 0.196670
H13   H     H_    0.326758 0.130656 0.565874 0.163533
H14   H     H_    0.314980 0.886564 0.544555 0.180765
H15   H     H_    0.301702 0.560858 0.067262 0.122800
H16   H     H_    0.386770 0.309099 0.069898 0.116648
H17   H     H_    0.551651 0.279688 0.075598 0.192866
H18   H     H_    0.407978 0.705144 0.070280 0.191947
H19   H     H_    0.643165 0.661950 0.077395 0.162086
H20   H     H_    0.702358 0.486293 0.078991 0.165439
H21   H     H_    0.642829 0.662425 0.932508 0.187792
H22   H     H_    0.702949 0.487925 0.934183 0.190694
H23   H     H_    0.103639 0.723918 0.473343 0.067998
H24   H     H_    0.103130 0.287886 0.546782 0.063967
H25   H     H_    0.890632 0.685562 0.578618 0.192453
H26   H     H_    0.903823 0.440998 0.633224 0.200856
N1    N     N_3   0.500250 0.143650 0.501830 -0.155023
N2    N     N_3   0.500250 0.856350 0.501830 -0.157834
O1    O     O_R   0.317570 0.620260 0.500050 -0.585897
O2    O     O_R   0.317570 0.379740 0.500050 -0.612886
O3    O     O_R   0.499890 0.620310 0.379470 -0.558882
O4    O     O_R   0.499890 0.379690 0.379470 -0.526481
O5    O     O_R   0.682190 0.620260 0.500020 -0.587821
O6    O     O_R   0.682190 0.379740 0.500020 -0.555259
O7    O     O_R   0.499870 0.620210 0.620600 -0.578466
O8    O     O_R   0.499870 0.379790 0.620600 -0.588438
O9    O     O_3   0.867473 0.540178 0.349442 -0.610349
C31   C     C_3   0.871978 0.488250 0.266082 -0.315618
H27   H     H_    0.806574 0.399242 0.255704 0.209881
H28   H     H_    0.968155 0.458838 0.249966 0.141558
H29   H     H_    0.840646 0.572406 0.221692 0.162745
O10   O     O_3   0.867593 0.308954 0.399455 -0.576022
C32   C     C_3   0.945368 0.203143 0.369018 -0.406662
H30   H     H_    0.014729 0.169284 0.419149 0.155950
H31   H     H_    0.989950 0.234316 0.309993 0.160132
H32   H     H_    0.886597 0.110632 0.353103 0.211097
C33   C     C_3   0.318981 0.139954 0.392786 -0.903487
H33   H     H_    0.251266 0.114957 0.440988 0.187007
H34   H     H_    0.316001 0.252362 0.380095 0.265109
H35   H     H_    0.276376 0.099829 0.332794 0.177658
C34   C     C_3   0.339915 0.850720 0.375931 -0.869689
H36   H     H_    0.260363 0.881801 0.413553 0.176222
H37   H     H_    0.316222 0.887855 0.311081 0.168953
H38   H     H_    0.328266 0.738105 0.370505 0.258880
O11   O     O_3   0.540640 0.136143 0.353534 -0.521011
C35   C     C_3   0.490861 0.145656 0.268482 -0.261928
H39   H     H_    0.429511 0.237542 0.258624 0.167461
H40   H     H_    0.435511 0.053610 0.247809 0.117539
H41   H     H_    0.569111 0.158395 0.225758 0.165473
O12   O     O_3   0.575986 0.877477 0.365191 -0.554445
C36   C     C_3   0.565836 0.835694 0.278992 -0.204045
H42   H     H_    0.606809 0.915962 0.238425 0.141310
H43   H     H_    0.472739 0.804747 0.253457 0.133546
H44   H     H_    0.628409 0.744712 0.271534 0.191919
O13   O     O_3   0.571366 0.258340 0.922643 -0.569508
C37   C     C_3   0.524994 0.121382 0.910644 -0.312425
H45   H     H_    0.456802 0.117680 0.855550 0.152431
H46   H     H_    0.482010 0.081065 0.968522 0.161583
H47   H     H_    0.603759 0.051176 0.896642 0.196019
O14   O     O_3   0.407933 0.733861 0.916404 -0.564957
C38   C     C_3   0.291380 0.799861 0.901232 -0.364957
H48   H     H_    0.235621 0.799670 0.958816 0.153896
H49   H     H_    0.238447 0.749255 0.847407 0.188448
H50   H     H_    0.307454 0.910370 0.883545 0.172541
O15   O     O_3   0.118837 0.695685 0.604531 -0.500578
C39   C     C_3   0.095229 0.839459 0.618642 -0.355868
H51   H     H_    0.097005 0.904999 0.560505 0.116354
H52   H     H_    0.168137 0.880051 0.664206 0.176101
H53   H     H_    0.004337 0.853083 0.648281 0.162921
O16   O     O_3   0.131440 0.424451 0.650255 -0.515461
C40   C     C_3   0.139899 0.302429 0.700422 -0.353260
H54   H     H_    0.208775 0.228125 0.675476 0.144286
H55   H     H_    0.047640 0.250768 0.704943 0.147918
H56   H     H_    0.173315 0.332125 0.765383 0.184584

loop_
_geom_bond_atom_site_label_1
_geom_bond_atom_site_label_2
_ccdc_geom_bond_type
C23   O8    A    
O11   C35   S    
C36   H42   S    
Cu1   O1    S    
C24   C27   S    
C7    H23   S    
C1    O2    A    
C8    H24   S    
O13   C37   S    
C19   H14   S    
C27   H1    S    
Cu1   O7    S    
C21   C34   S    
C10   H26   S    
C8    O16   S    
C5    C6    T    
C20   O11   S    
C39   H51   S    
C3    C29   S    
C18   C19   S    
C23   O7    A    
C11   H5    S    
C9    C13   S    
C17   H10   S    
C22   O6    A    
C24   C29   S    
C11   C15   S    
C26   H2    S    
Cu1   Cu2   S    
C16   C17   S    
O15   C39   S    
C31   H27   S    
C16   H7    S    
Cu2   O8    S    
C40   H56   S    
C36   H43   S    
C27   C30   S    
C25   C29   S    
O9    C31   S    
C1    C12   S    
O16   C40   S    
C4    C28   T    
C5    C29   S    
C24   H18   S    
C7    C12   S    
C15   O9    S    
O10   C32   S    
Cu1   O3    S    
Cu2   O4    S    
C21   N2    S    
C2    H22   S    
C33   H34   S    
C3    H19   S    
C26   O13   S    
C25   C26   S    
C2    H21   S    
C17   H8    S    
Cu1   N2    S    
C11   H6    S    
C32   H30   S    
C22   O5    A    
C6    C14   S    
C34   H36   S    
C35   H41   S    
C8    C12   S    
C14   O4    A    
C15   O10   S    
C31   H29   S    
C38   H49   S    
C23   C28   S    
C20   C21   S    
C20   N1    S    
C32   H31   S    
C25   H16   S    
C34   H37   S    
C35   H40   S    
C26   C30   S    
C36   H44   S    
C37   H46   S    
C13   C15   S    
C7    O15   S    
C18   H13   S    
C19   H12   S    
Cu2   O6    S    
C40   H54   S    
Cu1   O5    S    
C20   C33   S    
C24   H15   S    
C10   C13   S    
C1    O1    A    
C33   H35   S    
C31   H28   S    
C3    H20   S    
C19   N2    S    
C37   H47   S    
C27   O14   S    
C39   H53   S    
C2    C30   S    
C2    C3    S    
Cu2   O2    S    
C18   H11   S    
C14   O3    A    
O12   C36   S    
C39   H52   S    
C13   C22   S    
C38   H50   S    
C9    H25   S    
O14   C38   S    
C32   H32   S    
C25   H17   S    
C17   N2    S    
C33   H33   S    
C7    C9    S    
C18   N1    S    
C34   H38   S    
C35   H39   S    
C8    C10   S    
C37   H45   S    
C38   H48   S    
C9    H3    S    
C10   H4    S    
Cu2   N1    S    
C16   H9    S    
C16   N1    S    
C4    C30   S    
C11   C12   S    
C40   H55   S    
C21   O12   S    
