data_mof_unit_24688.cif
_audit_creation_date              2012-12-11T15:55:20-0500
_audit_creation_method            fapswitch 2.2
_symmetry_space_group_name_H-M    P1
_symmetry_Int_Tables_number       1
_space_group_crystal_system       triclinic
_cell_length_a                    8.2059
_cell_length_b                    18.781719
_cell_length_c                    18.98418
_cell_angle_alpha                 98.604304
_cell_angle_beta                  94.359894
_cell_angle_gamma                 91.336111
_cell_volume                      2882.77107309

loop_
_atom_site_label
_atom_site_type_symbol
_atom_type_description
_atom_site_fract_x
_atom_site_fract_y
_atom_site_fract_z
_atom_type_partial_charge
Ba1   Ba    Ba6+2 0.152460 0.535140 0.468980 1.693491
Ba2   Ba    Ba6+2 0.657710 0.464850 0.530960 1.700306
C1    C     C_3   0.411543 0.725600 0.218971 0.249001
C2    C     C_3   0.390898 0.694403 0.287465 0.444040
C3    C     C_3   0.511175 0.683625 0.643168 0.305352
C4    C     C_3   0.523454 0.764956 0.665142 -0.378857
C5    C     C_3   0.911262 0.264429 0.672219 0.324750
C6    C     C_3   0.887801 0.188280 0.688809 -0.297879
C7    C     C_3   0.429349 0.310959 0.715395 0.373799
C8    C     C_3   0.449196 0.289744 0.789807 0.250631
C9    C     C_R   0.000210 0.951827 0.536581 0.015453
C10   C     C_R   0.085606 0.903212 0.574740 -0.087041
C11   C     C_R   0.219925 0.047588 0.565487 -0.081899
C12   C     C_3   0.897564 0.733742 0.328337 0.354381
C13   C     C_R   0.062275 0.023258 0.534886 0.013735
C14   C     C_R   0.276600 0.118019 0.566349 -0.052751
C15   C     C_R   0.179649 0.167894 0.536439 -0.031371
C16   C     C_R   0.024821 0.144474 0.501308 0.006033
C17   C     C_R   0.966066 0.071778 0.500131 0.024580
C18   C     C_R   0.233172 0.240562 0.540529 0.052283
C19   C     C_R   0.129905 0.289609 0.512648 -0.245456
C20   C     C_R   0.981258 0.267365 0.474010 0.005960
C21   C     C_R   0.929573 0.193474 0.466749 -0.050660
C22   C     C_R   0.845285 0.928545 0.501133 0.029066
C23   C     C_3   0.909757 0.809495 0.309573 -0.295246
C24   C     C_R   0.786208 0.855912 0.500102 -0.001101
C25   C     C_R   0.882872 0.806503 0.533380 -0.038838
C26   C     C_R   0.027735 0.832808 0.573523 -0.022473
C27   C     C_R   0.786330 0.166748 0.425656 -0.010129
C28   C     C_R   0.727814 0.096445 0.424927 -0.075423
C29   C     C_R   0.811689 0.048336 0.464273 0.004050
C30   C     C_R   0.748791 0.977187 0.466706 0.019117
C31   C     C_R   0.589908 0.953365 0.437356 -0.098094
C32   C     C_R   0.629738 0.832924 0.466401 -0.039885
C33   C     C_R   0.532194 0.883144 0.437275 -0.091677
C34   C     C_3   0.777293 0.379742 0.311574 0.383324
C35   C     C_R   0.575405 0.760345 0.462994 -0.000545
C36   C     C_R   0.679040 0.711087 0.489937 -0.296095
C37   C     C_R   0.830507 0.732707 0.526078 0.041154
C38   C     C_R   0.607607 0.532932 0.302094 -0.291218
C39   C     C_R   0.459555 0.496520 0.277583 0.050278
C40   C     C_R   0.404318 0.490285 0.205131 -0.125110
C41   C     C_R   0.499575 0.518510 0.156337 -0.019882
C42   C     C_R   0.652548 0.552544 0.181673 -0.104414
C43   C     C_R   0.706634 0.558912 0.254249 0.020582
C44   C     C_R   0.468437 0.565065 0.038657 -0.034091
C45   C     C_3   0.751049 0.363000 0.229441 0.648733
C46   C     C_R   0.416922 0.556356 0.965839 -0.013202
C47   C     C_R   0.340286 0.491352 0.930849 0.056722
C48   C     C_R   0.313542 0.435843 0.971246 -0.071867
C49   C     C_R   0.363833 0.444881 0.044337 -0.048226
C50   C     C_R   0.443068 0.509398 0.078872 0.062468
C51   C     C_R   0.143355 0.444087 0.823620 -0.033029
C52   C     C_R   0.094304 0.439575 0.750471 0.052331
C53   C     C_R   0.338049 0.508045 0.733699 0.035241
C54   C     C_R   0.387502 0.513293 0.806388 -0.118844
C55   C     C_R   0.290565 0.481764 0.852570 0.003536
C56   C     C_3   0.978215 0.627295 0.697732 0.238506
C57   C     C_R   0.194079 0.470059 0.705896 -0.279905
C58   C     C_3   0.908222 0.652492 0.769242 0.172011
C59   C     C_3   0.256986 0.310504 0.343550 0.660558
C60   C     C_3   0.146267 0.259629 0.289338 -0.280320
H1    H     H_    0.309743 0.645255 0.275351 0.080729
H2    H     H_    0.646259 0.394171 0.212210 -0.117941
H3    H     H_    0.106920 0.612693 0.707631 0.018356
H4    H     H_    0.906882 0.579557 0.669196 0.080846
H5    H     H_    0.975146 0.702458 0.796250 0.096487
H6    H     H_    0.777347 0.664644 0.760100 0.083321
H7    H     H_    0.183523 0.343350 0.382022 -0.038205
H8    H     H_    0.070646 0.290427 0.254930 0.168565
H9    H     H_    0.065834 0.226510 0.317141 0.093005
H10   H     H_    0.219949 0.222690 0.254342 0.117965
H11   H     H_    0.513667 0.678845 0.307215 -0.211867
H12   H     H_    0.479230 0.687670 0.182281 -0.005772
H13   H     H_    0.633442 0.664548 0.629710 -0.012082
H14   H     H_    0.422975 0.671354 0.595279 0.065687
H15   H     H_    0.613852 0.779181 0.712038 0.127023
H16   H     H_    0.563308 0.791274 0.620477 0.054612
H17   H     H_    0.402313 0.785386 0.679177 0.127884
H18   H     H_    0.482788 0.777574 0.231431 0.052494
H19   H     H_    0.868502 0.848869 0.353579 0.050130
H20   H     H_    0.843361 0.267832 0.620046 0.070742
H21   H     H_    0.043515 0.274913 0.668386 -0.033669
H22   H     H_    0.755692 0.175038 0.690399 0.148018
H23   H     H_    0.938055 0.149108 0.647056 0.068863
H24   H     H_    0.952437 0.183486 0.741341 0.176766
H25   H     H_    0.298064 0.319532 0.702062 -0.092019
H26   H     H_    0.499399 0.362349 0.716378 0.025417
H27   H     H_    0.412526 0.334655 0.829690 -0.018388
H28   H     H_    0.977640 0.731831 0.377771 0.082484
H29   H     H_    0.578962 0.278214 0.803435 0.100417
H30   H     H_    0.170083 0.345527 0.517671 0.076064
H31   H     H_    0.397849 0.132662 0.591333 0.114259
H32   H     H_    0.099853 0.799445 0.604538 0.106060
H33   H     H_    0.716837 0.199748 0.393325 0.157156
H34   H     H_    0.409620 0.868956 0.413652 0.113344
H35   H     H_    0.637898 0.655342 0.485569 0.072614
H36   H     H_    0.304915 0.013176 0.588742 0.077850
H37   H     H_    0.197834 0.917996 0.607360 0.067779
H38   H     H_    0.616957 0.081024 0.391459 0.092320
H39   H     H_    0.768991 0.722318 0.338371 -0.076508
H40   H     H_    0.504671 0.988286 0.414950 0.080918
H41   H     H_    0.500494 0.542726 0.826703 0.112559
H42   H     H_    0.435864 0.601104 0.937122 0.092844
H43   H     H_    0.526447 0.615871 0.063681 0.086831
H44   H     H_    0.289251 0.461723 0.186742 0.138644
H45   H     H_    0.256570 0.384833 0.946138 0.086415
H46   H     H_    0.343389 0.400761 0.073580 0.072328
H47   H     H_    0.063359 0.421538 0.858016 0.092324
H48   H     H_    0.731357 0.572196 0.145041 0.104163
H49   H     H_    0.155111 0.467690 0.649816 0.059247
H50   H     H_    0.038360 0.823594 0.301334 0.180970
H51   H     H_    0.650935 0.536737 0.357835 0.066451
H52   H     H_    0.831186 0.812887 0.259989 0.128680
H53   H     H_    0.658337 0.390314 0.333343 -0.030149
H54   H     H_    0.858612 0.428547 0.327547 -0.003441
O1    O     O_2   0.118870 0.674530 0.547560 -0.459693
O2    O     O_3   0.355154 0.351724 0.306529 -0.636001
O3    O     O_3   0.948042 0.684594 0.271557 -0.548725
O4    O     O_2   0.691430 0.325420 0.452420 -0.401679
O5    O     O_3   0.939830 0.414660 0.457830 -0.500932
O6    O     O_3   0.456020 0.368240 0.581510 -0.473456
O7    O     O_3   0.843146 0.320481 0.338816 -0.631977
O8    O     O_3   0.374170 0.535780 0.585810 -0.480717
O9    O     O_3   0.871300 0.403980 0.619270 -0.501592
O10   O     O_2   0.755023 0.445082 0.745516 -0.438816
O11   O     O_3   0.851176 0.313211 0.726828 -0.600983
O12   O     O_3   0.870460 0.585330 0.542110 -0.495328
O13   O     O_3   0.436130 0.464210 0.414140 -0.473880
O14   O     O_2   0.629420 0.533310 0.672080 -0.457290
O15   O     O_3   0.458316 0.651726 0.700134 -0.632287
O16   O     O_2   0.574968 0.241847 0.535019 -0.452939
O17   O     O_3   0.490077 0.256738 0.665997 -0.601516
O18   O     O_3   0.354280 0.631750 0.418430 -0.483745
O19   O     O_2   0.234325 0.757886 0.467952 -0.501340
O20   O     O_3   0.975802 0.686408 0.660736 -0.669912
O21   O     O_3   0.322267 0.745789 0.337396 -0.602901
O22   O     O_2   0.180880 0.466650 0.327890 -0.451931
O23   O     O_3   0.939000 0.596010 0.380670 -0.502243
O24   O     O_2   0.046428 0.552593 0.253034 -0.424843
P1    P     P_3+3 0.947550 0.663200 0.567530 0.967941
P2    P     P_3+3 0.354660 0.445020 0.336980 1.020992
P3    P     P_3+3 0.910381 0.596967 0.288731 1.019149
P4    P     P_3+3 0.862750 0.336790 0.432410 1.002741
P5    P     P_3+3 0.893369 0.401063 0.711327 0.986750
P6    P     P_3+3 0.371180 0.725004 0.423216 0.946917
P7    P     P_3+3 0.448201 0.558054 0.675222 0.966696
P8    P     P_3+3 0.438590 0.275557 0.579723 1.006761
O25   O     O_3   0.720896 0.288051 0.207646 -0.615523
C61   C     C_3   0.641910 0.273223 0.137794 0.287181
H55   H     H_    0.689561 0.222026 0.111224 0.091758
H56   H     H_    0.667852 0.314950 0.103634 0.075510
C62   C     C_3   0.457404 0.263352 0.141606 -0.238714
H57   H     H_    0.434194 0.222851 0.177023 0.160966
H58   H     H_    0.406347 0.315219 0.164522 0.137084
C63   C     C_3   0.370829 0.237636 0.067841 -0.457602
H59   H     H_    0.397502 0.275517 0.030217 0.144807
H60   H     H_    0.236685 0.234534 0.072030 0.170501
H61   H     H_    0.411627 0.183274 0.046275 0.158805
Cl1   Cl    Cl    0.926102 0.392742 0.189418 -0.753271
Cl2   Cl    Cl    0.924742 0.587380 0.827897 -0.715120
Cl3   Cl    Cl    0.385809 0.254825 0.388840 -0.733776
Cl4   Cl    Cl    0.218121 0.739630 0.174870 -0.618794
Cl5   Cl    Cl    0.323794 0.211994 0.794104 -0.692564

loop_
_geom_bond_atom_site_label_1
_geom_bond_atom_site_label_2
_ccdc_geom_bond_type
O3    P3    S    
C5    H21   S    
C53   C54   A    
C49   C50   A    
C53   C57   A    
C32   C35   A    
Ba2   P4    S    
C39   C40   A    
O4    P4    D    
O24   P3    D    
C17   C29   A    
C15   C18   A    
C5    C6    S    
C33   H34   S    
C13   C17   A    
C2    H1    S    
C14   H31   S    
C27   C28   A    
C10   C26   A    
C6    H23   S    
C63   H59   S    
C35   C36   A    
C22   C24   A    
C16   C17   A    
Ba1   O13   S    
C7    H26   S    
C36   C37   A    
C32   C33   A    
C28   H38   S    
C41   C50   S    
C4    H16   S    
C56   C58   S    
C46   H42   S    
C44   H43   S    
C44   C50   A    
C9    C22   A    
Ba2   O13   S    
C47   C55   S    
C54   C55   A    
C60   H8    S    
C34   C45   S    
C26   H32   S    
Ba1   Ba2   S    
C11   H36   S    
C1    H12   S    
C12   H28   S    
C10   H37   S    
Ba1   P2    S    
C23   H50   S    
Ba2   O14   S    
C2    O21   S    
C9    C13   A    
C24   C32   A    
C45   O25   S    
C8    H27   S    
C25   C37   A    
C14   C15   A    
C61   C62   S    
O7    P4    S    
C57   H49   S    
C18   P8    S    
O15   P7    S    
O6    P8    S    
C35   P6    S    
C62   H58   S    
C7    C8    S    
Ba1   O23   S    
C1    Cl4   S    
C52   C57   A    
C59   O2    S    
C31   H40   S    
C19   C20   A    
C23   H19   S    
O5    P4    S    
O23   P3    S    
C36   H35   S    
C1    H18   S    
C20   C21   A    
O10   P5    D    
C56   H4    S    
C15   C16   A    
C45   Cl1   S    
Ba2   O6    S    
C38   C43   A    
O18   P6    S    
O8    P7    S    
C44   C46   A    
C16   C21   A    
O16   P8    D    
C37   P1    S    
O21   P6    S    
C34   O7    S    
C58   H5    S    
O22   P2    D    
C45   H2    S    
C27   H33   S    
Ba2   O4    S    
C49   H46   S    
C12   H39   S    
O13   P2    S    
C56   O20   S    
C51   C52   A    
C38   H51   S    
C59   Cl3   S    
C3    H13   S    
O1    P1    D    
C41   C42   A    
C22   C30   A    
O20   P1    S    
C56   H3    S    
C53   P7    S    
C29   C30   A    
C28   C29   A    
O19   P6    D    
C58   Cl2   S    
C24   C25   A    
C60   H10   S    
C48   C49   A    
O17   P8    S    
Ba1   O1    S    
C62   C63   S    
C40   H44   S    
C2    H11   S    
O11   P5    S    
C52   P5    S    
Ba1   O12   S    
C38   C39   A    
C8    H29   S    
C47   C48   A    
C11   C13   A    
C48   H45   S    
C61   H56   S    
C40   C41   A    
Ba1   O18   S    
C34   H54   S    
C21   C27   A    
C42   C43   A    
O12   P1    S    
Ba2   O5    S    
C59   H7    S    
C46   C47   A    
C8    Cl5   S    
O14   P7    D    
C6    H22   S    
C63   H61   S    
C54   H41   S    
O2    P2    S    
C51   C55   A    
C9    C10   A    
Ba2   O8    S    
Ba2   O12   S    
C30   C31   A    
C3    H14   S    
C63   H60   S    
Ba1   O8    S    
C39   P2    S    
O9    P5    S    
C23   H52   S    
C7    H25   S    
C4    H17   S    
C3    C4    S    
C4    H15   S    
C31   C33   A    
C60   H9    S    
C6    H24   S    
C12   C23   S    
C59   C60   S    
Ba1   O5    S    
Ba1   P1    S    
Ba2   O9    S    
C3    O15   S    
C5    H20   S    
C18   C19   A    
C58   H6    S    
C12   O3    S    
C11   C14   A    
C20   P4    S    
C25   C26   A    
C43   P3    S    
C61   H55   S    
C51   H47   S    
C5    O11   S    
C62   H57   S    
O25   C61   S    
C34   H53   S    
Ba1   O22   S    
C1    C2    S    
C42   H48   S    
C19   H30   S    
C7    O17   S    
