data_mof_unit_43939.cif
_audit_creation_date              2012-12-10T18:04:35-0500
_audit_creation_method            fapswitch 2.2
_symmetry_space_group_name_H-M    P1
_symmetry_Int_Tables_number       1
_space_group_crystal_system       triclinic
_cell_length_a                    19.423299
_cell_length_b                    17.64388
_cell_length_c                    12.576195
_cell_angle_alpha                 89.768984
_cell_angle_beta                  98.116714
_cell_angle_gamma                 91.501261
_cell_volume                      4265.25258245

loop_
_atom_site_label
_atom_site_type_symbol
_atom_type_description
_atom_site_fract_x
_atom_site_fract_y
_atom_site_fract_z
_atom_type_partial_charge
C1    C     C_R   0.409365 0.099889 0.443069 0.868996
C2    C     C_R   0.412984 0.894333 0.446423 0.843359
C3    C     C_R   0.909364 0.599887 0.443068 0.869011
C4    C     C_R   0.912987 0.394331 0.446425 0.843410
C5    C     C_R   0.766792 0.189409 0.560965 0.029937
C6    C     C_R   0.722449 0.747462 0.539252 0.002382
C7    C     C_R   0.266802 0.689389 0.560955 0.029934
C8    C     C_R   0.222449 0.247455 0.539269 0.002385
C9    C     C_R   0.782882 0.218535 0.666400 0.089676
C10   C     C_R   0.765030 0.766993 0.637680 0.110903
C11   C     C_R   0.282911 0.718488 0.666403 0.089630
C12   C     C_R   0.265023 0.266976 0.637706 0.111002
C13   C     C_R   0.346829 0.758006 0.694849 0.072438
C14   C     C_R   0.337099 0.253207 0.649934 0.086305
C15   C     C_R   0.846800 0.258052 0.694853 0.072440
C16   C     C_R   0.837106 0.753230 0.649897 0.086385
C17   C     C_R   0.382606 0.782976 0.610863 -0.232822
C18   C     C_R   0.364240 0.221309 0.564006 -0.247119
C19   C     C_R   0.882593 0.282995 0.610873 -0.232851
C20   C     C_R   0.864243 0.721324 0.563972 -0.247149
C21   C     C_R   0.716538 0.131473 0.543015 0.055801
C22   C     C_R   0.661145 0.788701 0.507024 0.029314
C23   C     C_R   0.216541 0.631463 0.542989 0.055871
C24   C     C_R   0.161156 0.288708 0.507026 0.029265
C25   C     C_R   0.669796 0.171218 0.701483 -0.233263
C26   C     C_R   0.671464 0.837958 0.691149 -0.244721
C27   C     C_R   0.169836 0.671153 0.701515 -0.233335
C28   C     C_R   0.171456 0.337949 0.691157 -0.244727
C29   C     C_R   0.370496 0.825261 0.420279 -0.101856
C30   C     C_R   0.346309 0.139052 0.405392 -0.096077
C31   C     C_R   0.870504 0.325256 0.420283 -0.101843
C32   C     C_R   0.846306 0.639046 0.405384 -0.096070
C33   C     C_R   0.642973 0.996887 0.129912 -0.312056
C34   C     C_R   0.142974 0.496921 0.129910 -0.312045
C35   C     C_R   0.378448 0.998669 0.763903 0.002747
C36   C     C_R   0.878448 0.498680 0.763902 0.002773
C37   C     C_R   0.352446 0.999559 0.861033 -0.273335
C38   C     C_R   0.852446 0.499578 0.861031 -0.273396
C39   C     C_R   0.587908 0.896208 0.554462 0.830420
C40   C     C_R   0.594668 0.096108 0.559177 0.855710
C41   C     C_R   0.087911 0.396211 0.554463 0.830468
C42   C     C_R   0.094674 0.596098 0.559180 0.855760
C43   C     C_R   0.398545 0.001472 0.956250 -0.210499
C44   C     C_R   0.898544 0.501487 0.956249 -0.210518
C45   C     C_R   0.471237 0.002054 0.954252 0.028924
C46   C     C_R   0.971236 0.502057 0.954252 0.028878
C47   C     C_R   0.494961 0.001491 0.853127 0.230055
C48   C     C_R   0.994961 0.501489 0.853127 0.230083
C49   C     C_R   0.521090 0.001632 0.047890 -0.017042
C50   C     C_R   0.021089 0.501634 0.047890 -0.017001
C51   C     C_R   0.593183 0.999618 0.038493 0.201434
C52   C     C_R   0.093183 0.499633 0.038492 0.201483
C53   C     C_R   0.614913 0.999821 0.938040 -0.304127
C54   C     C_R   0.114913 0.499834 0.938039 -0.304123
C55   C     C_R   0.566359 0.001068 0.846720 -0.226390
C56   C     C_R   0.066358 0.501068 0.846719 -0.226417
C57   C     C_R   0.502550 0.002342 0.151345 -0.071119
C58   C     C_R   0.002549 0.502329 0.151345 -0.071249
C59   C     C_R   0.621023 0.996579 0.229705 -0.010226
C60   C     C_R   0.121025 0.496612 0.229703 -0.010182
C61   C     C_R   0.733577 0.207678 0.737776 -0.220097
C62   C     C_R   0.735418 0.805009 0.716844 -0.217206
C63   C     C_R   0.233625 0.707600 0.737803 -0.220087
C64   C     C_R   0.235407 0.304995 0.716864 -0.217178
C65   C     C_R   0.660246 0.134532 0.601310 -0.093730
C66   C     C_R   0.638269 0.837261 0.584920 -0.069173
C67   C     C_R   0.160262 0.634506 0.601314 -0.093667
C68   C     C_R   0.138271 0.337263 0.584921 -0.069123
C69   C     C_R   0.343232 0.811290 0.312588 -0.201653
C70   C     C_R   0.301331 0.103460 0.322349 -0.186363
C71   C     C_R   0.843247 0.311279 0.312592 -0.201691
C72   C     C_R   0.801327 0.603441 0.322355 -0.186345
C73   C     C_R   0.292722 0.754727 0.286533 -0.160327
C74   C     C_R   0.229996 0.104737 0.323236 -0.164122
C75   C     C_R   0.792727 0.254726 0.286539 -0.160336
C76   C     C_R   0.729993 0.604716 0.323250 -0.164124
C77   C     C_R   0.267472 0.713192 0.367582 -0.178422
C78   C     C_R   0.203876 0.145953 0.401933 -0.197177
C79   C     C_R   0.767465 0.213206 0.367591 -0.178286
C80   C     C_R   0.703875 0.645940 0.401940 -0.197210
C81   C     C_R   0.296669 0.723407 0.476303 0.083312
C82   C     C_R   0.247940 0.195011 0.471032 0.080523
C83   C     C_R   0.796665 0.223416 0.476311 0.083255
C84   C     C_R   0.747938 0.695012 0.471019 0.080552
C85   C     C_R   0.351272 0.777006 0.502353 0.041404
C86   C     C_R   0.320056 0.187426 0.477832 0.060292
C87   C     C_R   0.851272 0.277010 0.502359 0.041353
C88   C     C_R   0.820055 0.687430 0.477812 0.060294
H1    H     H_    0.629216 0.169803 0.752396 0.168554
H2    H     H_    0.652660 0.872367 0.751626 0.164639
H3    H     H_    0.129271 0.669717 0.752454 0.168577
H4    H     H_    0.152648 0.372355 0.751633 0.164623
H5    H     H_    0.669720 0.998638 0.929892 0.152298
H6    H     H_    0.169720 0.498659 0.929890 0.152276
H7    H     H_    0.698042 0.994585 0.124201 0.139958
H8    H     H_    0.198044 0.494639 0.124197 0.139947
H9    H     H_    0.449577 0.004502 0.166956 0.124630
H10   H     H_    0.949575 0.504469 0.166957 0.124660
H11   H     H_    0.343074 0.997328 0.689323 0.153339
H12   H     H_    0.843075 0.497341 0.689322 0.153335
H13   H     H_    0.375722 0.001672 0.029473 0.132132
H14   H     H_    0.875721 0.501699 0.029472 0.132151
H15   H     H_    0.296852 0.998726 0.862566 0.149876
H16   H     H_    0.796852 0.498755 0.862564 0.149880
H17   H     H_    0.586373 0.000767 0.772112 0.217021
H18   H     H_    0.086372 0.500766 0.772111 0.217007
H19   H     H_    0.741393 0.232117 0.817470 0.138015
H20   H     H_    0.762988 0.814495 0.796678 0.148492
H21   H     H_    0.241462 0.732005 0.817518 0.138021
H22   H     H_    0.262972 0.314479 0.796701 0.148460
H23   H     H_    0.358380 0.846686 0.248758 0.151060
H24   H     H_    0.321139 0.065179 0.267342 0.140030
H25   H     H_    0.858400 0.346669 0.248759 0.151060
H26   H     H_    0.821134 0.565153 0.267357 0.140028
H27   H     H_    0.722256 0.176841 0.344415 0.139352
H28   H     H_    0.648946 0.641085 0.406557 0.145948
H29   H     H_    0.222282 0.676797 0.344405 0.139378
H30   H     H_    0.148946 0.141103 0.406542 0.145902
H31   H     H_    0.269907 0.746311 0.203657 0.138627
H32   H     H_    0.195235 0.070644 0.266578 0.141919
H33   H     H_    0.769909 0.246312 0.203664 0.138623
H34   H     H_    0.695231 0.570612 0.266606 0.141917
H35   H     H_    0.433204 0.809955 0.629765 0.172217
H36   H     H_    0.420187 0.217319 0.568954 0.147739
H37   H     H_    0.933193 0.309971 0.629787 0.172247
H38   H     H_    0.920190 0.717334 0.568914 0.147727
H39   H     H_    0.658452 0.993253 0.301400 0.121266
H40   H     H_    0.158460 0.493315 0.301395 0.121197
N1    N     N_R   0.552340 1.000000 0.237260 -0.098051
N2    N     N_R   0.052340 0.500000 0.237260 -0.098093
N3    N     N_R   0.448170 0.000000 0.762060 -0.140258
N4    N     N_R   0.948170 0.500000 0.762060 -0.140241
O1    O     O_R   0.448200 0.076800 0.373930 -0.610744
O2    O     O_R   0.448200 0.923200 0.373930 -0.613933
O3    O     O_R   0.948200 0.576800 0.373930 -0.610726
O4    O     O_R   0.948200 0.423200 0.373930 -0.613959
O5    O     O_R   0.414750 0.076790 0.542400 -0.602560
O6    O     O_R   0.414750 0.923210 0.542400 -0.614991
O7    O     O_R   0.914750 0.576790 0.542400 -0.602562
O8    O     O_R   0.914750 0.423210 0.542400 -0.614991
O9    O     O_R   0.585240 0.923200 0.457600 -0.628691
O10   O     O_R   0.585240 0.076800 0.457600 -0.610338
O11   O     O_R   0.085240 0.423200 0.457600 -0.628667
O12   O     O_R   0.085240 0.576800 0.457600 -0.610367
O13   O     O_R   0.551780 0.923190 0.626070 -0.651508
O14   O     O_R   0.551780 0.076810 0.626070 -0.631098
O15   O     O_R   0.051780 0.423190 0.626070 -0.651528
O16   O     O_R   0.051780 0.576810 0.626070 -0.631106
Zn1   Zn    Zn3+2 0.522330 0.000000 0.387520 0.919262
Zn2   Zn    Zn3+2 0.022330 0.500000 0.387520 0.919231
Zn3   Zn    Zn3+2 0.477660 0.000000 0.612480 0.910371
Zn4   Zn    Zn3+2 0.977660 0.500000 0.612480 0.910370
C89   C     C_3   0.374429 0.773892 0.812481 -0.425980
C90   C     C_3   0.452804 0.792836 0.836894 -0.328988
C91   C     C_3   0.476711 0.797850 0.957736 -0.883955
H41   H     H_    0.445922 0.839888 0.995017 0.268971
H42   H     H_    0.470485 0.741701 0.995967 0.256600
H43   H     H_    0.532456 0.815836 0.972843 0.256878
H44   H     H_    0.482712 0.748301 0.802766 0.218572
H45   H     H_    0.464525 0.848179 0.800577 0.238238
H46   H     H_    0.344899 0.821176 0.840673 0.206548
H47   H     H_    0.364253 0.722453 0.859862 0.200843
C92   C     C_3   0.387181 0.274813 0.749553 -0.439573
C93   C     C_3   0.386582 0.213052 0.835609 -0.314035
C94   C     C_3   0.438002 0.232095 0.935711 -0.879875
H48   H     H_    0.491724 0.237293 0.915238 0.259775
H49   H     H_    0.424233 0.286110 0.971541 0.256852
H50   H     H_    0.436345 0.186080 0.995908 0.257279
H51   H     H_    0.333633 0.205854 0.858628 0.217467
H52   H     H_    0.401171 0.158381 0.802604 0.244449
H53   H     H_    0.441001 0.281371 0.729456 0.200239
H54   H     H_    0.374830 0.330914 0.780663 0.193304
C95   C     C_3   0.874378 0.273989 0.812479 -0.425957
C96   C     C_3   0.952776 0.292797 0.836928 -0.328999
C97   C     C_3   0.976661 0.297808 0.957778 -0.884015
H55   H     H_    0.945959 0.339958 0.995010 0.269013
H56   H     H_    0.970295 0.241695 0.996035 0.256595
H57   H     H_    0.032443 0.315642 0.972911 0.256853
H58   H     H_    0.982625 0.248193 0.802835 0.218587
H59   H     H_    0.964591 0.348111 0.800604 0.238197
H60   H     H_    0.844907 0.321357 0.840575 0.206588
H61   H     H_    0.864111 0.222610 0.859922 0.200844
C98   C     C_3   0.887192 0.774840 0.749510 -0.439511
C99   C     C_3   0.886608 0.713073 0.835559 -0.314045
C100  C     C_3   0.937966 0.732165 0.935711 -0.879896
H62   H     H_    0.991698 0.737465 0.915298 0.259783
H63   H     H_    0.924104 0.786139 0.971550 0.256842
H64   H     H_    0.936347 0.686125 0.995879 0.257293
H65   H     H_    0.833648 0.705812 0.858515 0.217502
H66   H     H_    0.901266 0.658423 0.802574 0.244429
H67   H     H_    0.941009 0.781412 0.729406 0.200198
H68   H     H_    0.874835 0.830937 0.780627 0.193350
C101  C     C_3   0.735814 0.057151 0.494085 -0.428663
C102  C     C_3   0.798595 0.021885 0.562854 -0.350871
C103  C     C_3   0.817191 0.946958 0.515164 -0.881393
H69   H     H_    0.860978 0.921385 0.568468 0.252616
H70   H     H_    0.771927 0.906713 0.507356 0.270483
H71   H     H_    0.833142 0.956553 0.434682 0.257689
H72   H     H_    0.844607 0.061214 0.568070 0.228432
H73   H     H_    0.786218 0.011399 0.645435 0.226209
H74   H     H_    0.692832 0.014532 0.489928 0.227927
H75   H     H_    0.748034 0.065477 0.411497 0.192475
C104  C     C_3   0.628703 0.791443 0.387437 -0.393568
C105  C     C_3   0.552544 0.762276 0.368710 -0.304458
C106  C     C_3   0.521024 0.770729 0.251140 -0.864879
H76   H     H_    0.466761 0.747710 0.239385 0.249926
H77   H     H_    0.520458 0.831452 0.227466 0.278582
H78   H     H_    0.551463 0.738869 0.198554 0.250754
H79   H     H_    0.549130 0.701737 0.391769 0.197255
H80   H     H_    0.520583 0.793518 0.419126 0.219546
H81   H     H_    0.634696 0.848469 0.353107 0.224758
H82   H     H_    0.658055 0.761791 0.332400 0.193900
C107  C     C_3   0.235848 0.557132 0.494127 -0.428973
C108  C     C_3   0.298449 0.521759 0.563200 -0.350719
C109  C     C_3   0.317169 0.446894 0.515475 -0.881346
H83   H     H_    0.360805 0.421233 0.568998 0.252624
H84   H     H_    0.271879 0.406677 0.507219 0.270454
H85   H     H_    0.333391 0.456600 0.435195 0.257683
H86   H     H_    0.344492 0.561069 0.568847 0.228427
H87   H     H_    0.285813 0.511163 0.645613 0.226173
H88   H     H_    0.192811 0.514568 0.489669 0.227968
H89   H     H_    0.248288 0.565479 0.411660 0.192554
C110  C     C_3   0.128759 0.291491 0.387421 -0.393580
C111  C     C_3   0.052591 0.262356 0.368594 -0.304359
C112  C     C_3   0.021090 0.270988 0.251044 -0.864721
H90   H     H_    0.966826 0.247974 0.239199 0.249858
H91   H     H_    0.020533 0.331748 0.227564 0.278660
H92   H     H_    0.051537 0.239222 0.198364 0.250742
H93   H     H_    0.049155 0.201782 0.391459 0.197210
H94   H     H_    0.020630 0.293517 0.419100 0.219516
H95   H     H_    0.134792 0.348527 0.353143 0.224733
H96   H     H_    0.158122 0.261841 0.332397 0.193875

loop_
_geom_bond_atom_site_label_1
_geom_bond_atom_site_label_2
_ccdc_geom_bond_type
C83   C87   A    
C104  C105  S    
C63   H21   S    
C94   H48   S    
C73   H31   S    
C79   H27   S    
C91   H42   S    
C11   C13   A    
C14   C18   A    
C53   C55   A    
N3    Zn3   S    
C92   C93   S    
C58   H10   S    
C72   C76   A    
C42   O16   A    
C98   H68   S    
C16   C98   S    
C101  H74   S    
C97   H56   S    
C95   C96   S    
C5    C9    A    
C2    O2    A    
C22   C104  S    
C55   H17   S    
C2    C29   S    
C9    C61   A    
C106  H78   S    
O10   Zn1   S    
C57   N1    A    
C93   C94   S    
C28   C68   A    
C34   H8    S    
C41   O11   A    
C77   H29   S    
C108  H86   S    
C109  H84   S    
C12   C64   A    
C35   H11   S    
C100  H63   S    
C62   H20   S    
C93   H52   S    
C59   H39   S    
C6    C22   A    
C72   H26   S    
O7    Zn4   S    
C112  H92   S    
C49   C57   A    
C99   C100  S    
C71   H25   S    
C23   C67   A    
C14   C92   S    
C96   C97   S    
C22   C66   A    
O12   Zn2   S    
C112  H91   S    
C15   C19   A    
C107  H88   S    
C17   H35   S    
O11   Zn2   S    
C102  H73   S    
N2    Zn2   S    
C110  C111  S    
C52   C54   A    
C49   C51   A    
O9    Zn1   S    
C105  H79   S    
C70   C74   A    
C50   C52   A    
C27   H3    S    
C45   C49   A    
C8    C12   A    
C30   C86   A    
C92   H53   S    
O8    Zn4   S    
C29   C85   A    
C80   C84   A    
C4    O4    A    
C103  H71   S    
C21   C65   A    
C31   C71   A    
C102  C103  S    
C95   H60   S    
C94   H49   S    
C111  C112  S    
C91   H43   S    
C34   C60   A    
C104  H81   S    
C93   H51   S    
C10   C62   A    
C1    O1    A    
C33   H7    S    
C30   C70   A    
C110  H95   S    
C97   H57   S    
C29   C69   A    
C45   C47   A    
C46   C48   A    
C3    O3    A    
C6    C84   A    
C90   H45   S    
C15   C95   S    
C53   H5    S    
C2    O6    A    
C107  C108  S    
C76   C80   A    
C60   H40   S    
C31   C87   A    
O4    Zn2   S    
C32   C72   A    
C109  H85   S    
C60   N2    A    
C37   H15   S    
C44   H14   S    
C108  C109  S    
C40   O10   A    
C25   C61   A    
C25   H1    S    
C44   C46   A    
C82   C86   A    
O2    Zn1   S    
C19   H37   S    
C101  H75   S    
O14   Zn3   S    
C47   N3    A    
C51   C53   A    
C26   C66   A    
C37   C43   A    
C7    C11   A    
C98   C99   S    
C43   H13   S    
C38   C44   A    
C111  H94   S    
C4    O8    A    
C107  H89   S    
C78   C82   A    
C64   H22   S    
C102  H72   S    
C41   O15   A    
C77   C81   A    
C16   C20   A    
C57   H9    S    
C39   O13   A    
C112  H90   S    
C50   C58   A    
O1    Zn1   S    
C36   H12   S    
C18   C86   A    
C69   C73   A    
C92   H54   S    
C43   C45   A    
C56   H18   S    
C90   C91   S    
O13   Zn3   S    
C27   C63   A    
C103  H70   S    
C39   O9    A    
C28   C64   A    
C7    C81   A    
C12   C14   A    
C95   H61   S    
C94   H50   S    
C40   C65   S    
C42   O12   A    
C42   C67   S    
N4    Zn4   S    
C39   C66   S    
C17   C85   A    
C104  H82   S    
C3    O7    A    
C13   C89   S    
C105  H80   S    
C35   N3    A    
C1    O5    A    
C110  H96   S    
C35   C37   A    
C47   C55   A    
C23   C107  S    
C24   C110  S    
C48   C56   A    
C106  H76   S    
C41   C68   S    
C59   N1    A    
C78   H30   S    
C75   H33   S    
C34   C52   A    
C48   N4    A    
O16   Zn4   S    
C54   C56   A    
C100  H64   S    
C98   H67   S    
C6    C10   A    
C38   H16   S    
C5    C83   A    
C79   C83   A    
C40   O14   A    
O6    Zn3   S    
C26   H2    S    
O3    Zn2   S    
C74   H32   S    
C46   C50   A    
C96   H59   S    
C11   C63   A    
C13   C17   A    
C89   H47   S    
C76   H34   S    
C36   N4    A    
O15   Zn4   S    
C9    C15   A    
C19   C87   A    
C90   H44   S    
C97   H55   S    
C108  H87   S    
C111  H93   S    
C71   C75   A    
C69   H23   S    
C100  H62   S    
C33   C51   A    
C84   C88   A    
C58   N2    A    
C7    C23   A    
C20   C88   A    
C36   C38   A    
C1    C30   S    
C8    C24   A    
C20   H38   S    
C99   H66   S    
C109  H83   S    
C26   C62   A    
C3    C32   S    
C70   H24   S    
C54   H6    S    
C4    C31   S    
C27   C67   A    
C24   C68   A    
C103  H69   S    
C28   H4    S    
C8    C82   A    
C5    C21   A    
C105  C106  S    
C33   C59   A    
C101  C102  S    
C74   C78   A    
C61   H19   S    
C89   H46   S    
C91   H41   S    
C25   C65   A    
C73   C77   A    
C99   H65   S    
O5    Zn3   S    
C10   C16   A    
C80   H28   S    
C21   C101  S    
N1    Zn1   S    
C106  H77   S    
C75   C79   A    
C96   H58   S    
C81   C85   A    
C18   H36   S    
C89   C90   S    
C32   C88   A    
