data_mof_unit_50463.cif
_audit_creation_date              2012-12-10T16:57:10-0500
_audit_creation_method            fapswitch 2.2
_symmetry_space_group_name_H-M    P1
_symmetry_Int_Tables_number       1
_space_group_crystal_system       triclinic
_cell_length_a                    7.765041
_cell_length_b                    8.580501
_cell_length_c                    16.54089
_cell_angle_alpha                 91.87071
_cell_angle_beta                  80.106485
_cell_angle_gamma                 93.79135
_cell_volume                      1083.06605833

loop_
_atom_site_label
_atom_site_type_symbol
_atom_type_description
_atom_site_fract_x
_atom_site_fract_y
_atom_site_fract_z
_atom_type_partial_charge
C1    C     C_R   0.546284 0.794880 0.497948 0.963270
C2    C     C_R   0.395952 0.561178 0.223931 -0.260910
C3    C     C_R   0.616312 0.724622 0.834653 -0.165671
C4    C     C_R   0.410410 0.618077 0.145496 -0.152862
C5    C     C_R   0.463168 0.711955 0.893244 0.185586
C6    C     C_R   0.576258 0.654824 0.098951 0.189602
C7    C     C_R   0.312033 0.632772 0.873599 -0.223418
C8    C     C_R   0.726701 0.627531 0.130637 -0.237550
C9    C     C_R   0.315532 0.558637 0.796930 0.094973
C10   C     C_R   0.713916 0.569522 0.209356 0.110229
C11   C     C_2   0.467559 0.750747 0.979460 -0.232309
C12   C     C_R   0.453711 0.205124 0.502110 0.972145
C13   C     C_2   0.597781 0.699071 0.012895 -0.217423
C14   C     C_2   0.570687 0.958318 0.496793 -0.377649
C15   C     C_2   0.429305 0.041671 0.503340 -0.380875
C16   C     C_R   0.477705 0.509453 0.654844 0.877606
C17   C     C_R   0.524813 0.502868 0.344824 0.868982
C18   C     C_R   0.472594 0.565586 0.739411 -0.031540
C19   C     C_R   0.546283 0.538613 0.257414 -0.042805
C20   C     C_R   0.621517 0.650443 0.758765 -0.256807
H1    H     H_    0.741669 0.662469 0.714527 0.157649
H2    H     H_    0.295866 0.990458 0.509586 0.179601
H3    H     H_    0.023120 0.380002 0.439101 0.190588
H4    H     H_    0.976891 0.620050 0.560874 0.184756
H5    H     H_    0.945951 0.651277 0.238822 0.177840
H6    H     H_    0.943425 0.466483 0.200137 0.171659
H7    H     H_    0.060830 0.550582 0.784514 0.183231
H8    H     H_    0.124316 0.387337 0.822554 0.178616
H9    H     H_    0.266104 0.536790 0.258830 0.167591
H10   H     H_    0.716588 0.663948 0.973585 0.146213
H11   H     H_    0.347527 0.785455 0.017536 0.143998
H12   H     H_    0.194066 0.621039 0.919328 0.119030
H13   H     H_    0.855168 0.650594 0.093930 0.118459
H14   H     H_    0.290943 0.628850 0.121429 0.121265
H15   H     H_    0.733692 0.787312 0.848685 0.134399
H16   H     H_    0.704126 0.009523 0.490555 0.179455
N1    N     N_2   0.953500 0.457650 0.478520 -0.168153
N2    N     N_2   0.046500 0.542350 0.521480 -0.169735
N3    N     N_3   0.871602 0.544948 0.240007 -0.436202
N4    N     N_3   0.161340 0.473508 0.778590 -0.443828
O1    O     O_R   0.388470 0.738640 0.505270 -0.612672
O2    O     O_R   0.611530 0.261360 0.494730 -0.609586
O3    O     O_R   0.679650 0.711510 0.491500 -0.630904
O4    O     O_R   0.320350 0.288490 0.508500 -0.625295
O5    O     O_R   0.337210 0.515200 0.623500 -0.588987
O6    O     O_R   0.662790 0.484800 0.376500 -0.584449
O7    O     O_R   0.628380 0.488060 0.609730 -0.630933
O8    O     O_R   0.371620 0.511940 0.390270 -0.631120
Zn1   Zn    Zn3+2 0.305580 0.518120 0.509190 0.947343
Zn2   Zn    Zn3+2 0.694420 0.481880 0.490810 0.947596

loop_
_geom_bond_atom_site_label_1
_geom_bond_atom_site_label_2
_ccdc_geom_bond_type
C16   O5    A    
O4    Zn1   S    
C2    C4    A    
C17   O6    A    
C17   O8    A    
O3    Zn2   S    
N1    N2    D    
C7    H12   S    
O5    Zn1   S    
C13   H10   S    
H4    N2    S    
C12   C15   S    
C3    H15   S    
C10   C19   A    
C11   H11   S    
C3    C20   A    
C12   O4    A    
N2    Zn1   S    
H5    N3    S    
C6    C13   S    
N1    Zn2   S    
C11   C13   D    
O2    Zn2   S    
C2    H9    S    
C6    C8    A    
C16   O7    A    
O1    Zn1   S    
O8    Zn1   S    
C17   C19   S    
C5    C11   S    
O7    Zn2   S    
C18   C20   A    
C8    H13   S    
C9    N4    S    
C14   H16   S    
C8    C10   A    
C4    H14   S    
H6    N3    S    
C4    C6    A    
H8    N4    S    
C7    C9    A    
C9    C18   A    
C20   H1    S    
C16   C18   S    
C1    O1    A    
C5    C7    A    
O6    Zn2   S    
C14   C15   D    
C12   O2    A    
C1    C14   S    
H7    N4    S    
C2    C19   A    
H3    N1    S    
C1    O3    A    
C15   H2    S    
C10   N3    S    
C3    C5    A    
