data_mof_unit_43927.cif
_audit_creation_date              2012-12-10T20:28:46-0500
_audit_creation_method            fapswitch 2.2
_symmetry_space_group_name_H-M    P1
_symmetry_Int_Tables_number       1
_space_group_crystal_system       triclinic
_cell_length_a                    10.716527
_cell_length_b                    10.660442
_cell_length_c                    9.883559
_cell_angle_alpha                 89.291585
_cell_angle_beta                  90.388711
_cell_angle_gamma                 91.012333
_cell_volume                      1128.83971084

loop_
_atom_site_label
_atom_site_type_symbol
_atom_type_description
_atom_site_fract_x
_atom_site_fract_y
_atom_site_fract_z
_atom_type_partial_charge
C1    C     C_R   0.498998 0.260230 0.500650 0.890898
C2    C     C_R   0.428471 0.934994 0.397573 -0.225425
C3    C     C_R   0.492136 0.871331 0.500744 -0.112112
C4    C     C_R   0.260755 0.511936 0.499739 0.885448
C5    C     C_R   0.539970 0.935117 0.611973 0.162919
C6    C     C_3   0.667548 0.929404 0.673620 -0.484056
C7    C     C_3   0.667880 0.071659 0.673331 -0.530109
C8    C     C_R   0.397915 0.458525 0.071272 0.170404
C9    C     C_R   0.591656 0.562447 0.070371 0.006347
C10   C     C_R   0.592340 0.558847 0.926254 -0.125645
C11   C     C_R   0.398027 0.457623 0.929786 0.101148
C12   C     C_R   0.063756 0.541930 0.622862 0.070653
C13   C     C_3   0.330114 0.333185 0.928495 -0.228792
C14   C     C_3   0.331088 0.335798 0.083031 -0.566062
C15   C     C_R   0.499897 0.739693 0.499477 0.872268
C16   C     C_R   0.740004 0.490665 0.501630 0.869878
C17   C     C_R   0.118486 0.598411 0.738443 -0.202194
C18   C     C_R   0.060552 0.588282 0.864871 0.152489
C19   C     C_R   0.951118 0.516007 0.876373 -0.150384
C20   C     C_R   0.891302 0.471338 0.760480 -0.209191
C21   C     C_R   0.940873 0.497521 0.630379 0.108892
C22   C     C_2   0.686954 0.642279 0.138150 0.371768
C23   C     C_R   0.127762 0.525192 0.500133 -0.114894
C24   C     C_2   0.403807 0.226526 0.875472 0.525395
C25   C     C_3   0.117488 0.650916 0.987026 -0.432615
C26   C     C_3   0.103848 0.793666 0.978145 -0.287169
C27   C     C_3   0.165611 0.857386 0.099374 -0.852723
C28   C     C_R   0.063175 0.497628 0.380678 -0.213191
C29   C     C_R   0.936298 0.481516 0.383209 -0.207744
C30   C     C_R   0.873901 0.482531 0.506785 -0.122215
C31   C     C_R   0.540044 0.062936 0.612394 0.220967
C32   C     C_R   0.490351 0.128185 0.502841 -0.090786
C33   C     C_R   0.427080 0.064671 0.398954 -0.209577
H1    H     H_    0.110580 0.486820 0.285235 0.159748
H2    H     H_    0.909881 0.497040 0.974334 0.168576
H3    H     H_    0.808443 0.413762 0.775171 0.168642
H4    H     H_    0.887421 0.467076 0.288157 0.176312
H5    H     H_    0.380859 0.114765 0.317551 0.159963
H6    H     H_    0.383687 0.885175 0.315158 0.166877
H7    H     H_    0.665912 0.887141 0.777034 0.222687
H8    H     H_    0.673742 0.675145 0.239268 0.149512
H9    H     H_    0.503354 0.221565 0.895124 0.040031
H10   H     H_    0.122513 0.823069 0.195147 0.265068
H11   H     H_    0.267049 0.837726 0.101668 0.254127
H12   H     H_    0.737505 0.889548 0.604282 0.200953
H13   H     H_    0.153512 0.960449 0.091223 0.256791
H14   H     H_    0.148204 0.830858 0.884168 0.224613
H15   H     H_    0.003208 0.817266 0.975252 0.257502
H16   H     H_    0.071741 0.615615 0.080994 0.212673
H17   H     H_    0.217667 0.627662 0.994068 0.194774
H18   H     H_    0.667521 0.111523 0.776628 0.206769
H19   H     H_    0.737585 0.115010 0.603298 0.197800
H20   H     H_    0.665829 0.605672 0.869344 0.193769
H21   H     H_    0.234575 0.340006 0.884423 0.187427
H22   H     H_    0.236475 0.345586 0.126563 0.195968
H23   H     H_    0.389329 0.263268 0.133076 0.205522
H24   H     H_    0.205053 0.651866 0.731007 0.162461
N1    N     N_R   0.499160 0.499140 0.142800 -0.145860
N2    N     N_R   0.499160 0.499180 0.857150 -0.139781
O1    O     O_R   0.500020 0.316790 0.614690 -0.611090
O2    O     O_2   0.350986 0.142957 0.812849 -0.592541
O3    O     O_R   0.500000 0.316760 0.385350 -0.622858
O4    O     O_R   0.316770 0.500020 0.614690 -0.620149
O5    O     O_R   0.316760 0.499980 0.385350 -0.617341
O6    O     O_R   0.500000 0.683240 0.614650 -0.613847
O7    O     O_R   0.499980 0.683210 0.385310 -0.653607
O8    O     O_R   0.683240 0.500020 0.614650 -0.635087
O9    O     O_R   0.683230 0.499980 0.385310 -0.647094
O10   O     O_2   0.780915 0.677714 0.078751 -0.640094
Zn1   Zn    Zn3+2 0.500010 0.500020 0.653130 0.941052
Zn2   Zn    Zn3+2 0.499990 0.499980 0.346870 0.925141

loop_
_geom_bond_atom_site_label_1
_geom_bond_atom_site_label_2
_ccdc_geom_bond_type
C12   C17   A    
C7    H19   S    
C14   H23   S    
C24   O2    D    
C16   O9    A    
C6    H12   S    
C26   H15   S    
C24   H9    S    
C9    C10   A    
C4    O5    A    
C22   O10   D    
O7    Zn2   S    
C12   C23   A    
O4    Zn1   S    
O1    Zn1   S    
C10   N2    A    
O8    Zn1   S    
C1    O3    A    
C3    C5    A    
C19   C20   A    
C2    C3    A    
C7    H18   S    
C16   O8    A    
C19   H2    S    
C13   C14   S    
C32   C33   A    
C18   C19   A    
C11   C13   S    
C4    O4    A    
C26   C27   S    
C29   C30   A    
C18   C25   S    
C26   H14   S    
O9    Zn2   S    
C11   N2    A    
C27   H11   S    
C2    C33   A    
C28   C29   A    
O3    Zn2   S    
C14   H22   S    
C6    C7    S    
C6    H7    S    
C8    C11   A    
C5    C6    S    
C9    C22   S    
C25   H16   S    
N1    Zn2   S    
O5    Zn2   S    
C22   H8    S    
C7    C31   S    
C2    H6    S    
N2    Zn1   S    
C28   H1    S    
O6    Zn1   S    
C20   H3    S    
C27   H10   S    
C3    C15   S    
C20   C21   A    
C27   H13   S    
C17   C18   A    
C13   H21   S    
C21   C30   A    
C1    O1    A    
C29   H4    S    
C4    C23   S    
C10   H20   S    
C25   H17   S    
C9    N1    A    
C33   H5    S    
C8    C14   S    
C8    N1    A    
C25   C26   S    
C23   C28   A    
C15   O7    A    
C16   C30   S    
C12   C21   A    
C1    C32   S    
C31   C32   A    
C13   C24   S    
C17   H24   S    
C5    C31   A    
C15   O6    A    
