data_mof_unit_13965.cif
_audit_creation_date              2012-12-10T17:45:11-0500
_audit_creation_method            fapswitch 2.2
_symmetry_space_group_name_H-M    P1
_symmetry_Int_Tables_number       1
_space_group_crystal_system       triclinic
_cell_length_a                    17.893987
_cell_length_b                    17.8548
_cell_length_c                    17.85337
_cell_angle_alpha                 115.026165
_cell_angle_beta                  92.559105
_cell_angle_gamma                 69.335264
_cell_volume                      4799.00331619

loop_
_atom_site_label
_atom_site_type_symbol
_atom_type_description
_atom_site_fract_x
_atom_site_fract_y
_atom_site_fract_z
_atom_type_partial_charge
C1    C     C_R   0.463969 0.463347 0.287760 0.507231
C2    C     C_R   0.909701 0.617670 0.558646 0.243230
C3    C     C_R   0.951455 0.669510 0.608594 -0.106340
C4    C     C_R   0.535086 0.536207 0.712316 0.495018
C5    C     C_R   0.035038 0.638247 0.597287 -0.037677
C6    C     C_R   0.079585 0.551831 0.535140 0.009139
C7    C     C_R   0.074404 0.694593 0.645460 -0.148133
C8    C     C_R   0.157478 0.666795 0.631261 -0.175688
C9    C     C_R   0.164958 0.519271 0.532714 0.255677
C10   C     C_R   0.540645 0.559974 0.801439 0.021297
C11   C     C_R   0.449400 0.448472 0.202866 0.021731
C12   C     C_R   0.837426 0.357170 0.343889 -0.127712
C13   C     C_R   0.561547 0.657892 0.936942 -0.134290
C14   C     C_R   0.566985 0.628623 0.850911 -0.123162
C15   C     C_R   0.511775 0.518806 0.838605 -0.116165
C16   C     C_R   0.463241 0.730239 0.554239 0.495565
C17   C     C_R   0.502955 0.549193 0.925698 0.014787
C18   C     C_R   0.528837 0.619655 0.974717 -0.007268
C19   C     C_R   0.470195 0.510989 0.965176 -0.007311
C20   C     C_R   0.470078 0.539236 0.052786 0.016689
C21   C     C_R   0.486346 0.617807 0.100641 0.268178
C22   C     C_R   0.519102 0.653745 0.061140 -0.091873
C23   C     C_R   0.835846 0.481775 0.472381 -0.109979
C24   C     C_R   0.435994 0.446814 0.920331 -0.132603
C25   C     C_R   0.409472 0.405677 0.958309 -0.130989
C26   C     C_R   0.419615 0.423511 0.040982 0.042575
C27   C     C_R   0.451874 0.488977 0.088848 0.027472
C28   C     C_R   0.537802 0.268730 0.446337 0.489060
C29   C     C_R   0.399521 0.374734 0.075702 -0.128327
C30   C     C_R   0.413903 0.387672 0.156653 -0.123151
C31   C     C_R   0.469387 0.497470 0.169148 -0.112998
C32   C     C_R   0.554330 0.173239 0.422243 -0.018263
C33   C     C_R   0.445809 0.823129 0.574503 0.036371
C34   C     C_R   0.913599 0.471363 0.447033 0.027921
C35   C     C_R   0.617803 0.015315 0.331256 -0.104356
C36   C     C_R   0.612890 0.102605 0.355420 0.009546
C37   C     C_R   0.507533 0.152958 0.466579 -0.138166
C38   C     C_R   0.514753 0.064700 0.444837 0.022073
C39   C     C_R   0.569763 0.996116 0.374913 -0.009709
C40   C     C_R   0.288206 0.554682 0.553822 0.541734
C41   C     C_R   0.470483 0.042329 0.491348 0.029648
C42   C     C_R   0.485746 0.950889 0.469150 -0.012830
C43   C     C_R   0.531439 0.885459 0.390714 -0.019851
C44   C     C_R   0.575710 0.908492 0.347379 -0.113625
C45   C     C_R   0.955427 0.396920 0.371731 0.042008
C46   C     C_R   0.411489 0.108171 0.559389 -0.137311
C47   C     C_R   0.372251 0.085783 0.607186 -0.135929
C48   C     C_R   0.394436 0.997660 0.593167 0.055377
C49   C     C_R   0.454377 0.929487 0.526614 0.012172
C50   C     C_R   0.358218 0.977134 0.646264 -0.129682
C51   C     C_R   0.382145 0.889643 0.635145 -0.124911
C52   C     C_R   0.712496 0.446169 0.445944 0.504336
C53   C     C_R   0.483831 0.843565 0.523367 -0.151107
C54   C     C_R   0.796738 0.427150 0.420481 0.003407
C55   C     C_R   0.202597 0.579620 0.574960 0.052428
C56   C     C_R   0.952415 0.530144 0.496089 0.017024
C57   C     C_R   0.916707 0.341304 0.320286 -0.132402
C58   C     C_3   0.384322 0.711321 0.208433 0.002327
C59   C     C_3   0.360863 0.803144 0.209534 -0.271980
C60   C     C_3   0.273057 0.860457 0.245445 -0.478984
C61   C     C_3   0.199444 0.379920 0.527379 0.002879
C62   C     C_3   0.253737 0.378056 0.595913 -0.250975
C63   C     C_3   0.237010 0.326922 0.639142 -0.502447
C64   C     C_2   0.672666 0.116187 0.312413 0.243114
C65   C     C_2   0.526192 0.796214 0.346686 0.208962
C66   C     C_3   0.806720 0.701393 0.514519 0.005193
C67   C     C_R   0.037297 0.502090 0.478526 -0.014754
C68   C     C_3   0.720465 0.768904 0.542731 -0.253057
C69   C     C_3   0.697378 0.822754 0.492252 -0.479415
C70   C     C_R   0.076240 0.429266 0.401691 -0.124217
C71   C     C_R   0.035523 0.378555 0.348681 -0.147872
H1    H     H_    0.067541 0.323335 0.290159 0.109128
H2    H     H_    0.426877 0.428115 0.855874 0.106245
H3    H     H_    0.373707 0.325711 0.039782 0.108728
H4    H     H_    0.613256 0.857951 0.289552 0.155353
H5    H     H_    0.536269 0.791165 0.481620 0.110028
H6    H     H_    0.351268 0.873770 0.673864 0.104115
H7    H     H_    0.326583 0.138409 0.657956 0.102414
H8    H     H_    0.661352 0.961168 0.279256 0.153622
H9    H     H_    0.465970 0.207933 0.518530 0.126901
H10   H     H_    0.392827 0.178125 0.576944 0.101318
H11   H     H_    0.186803 0.713067 0.664592 0.111591
H12   H     H_    0.040572 0.761711 0.691308 0.120374
H13   H     H_    0.310768 0.028622 0.695708 0.104435
H14   H     H_    0.917458 0.736389 0.654918 0.129208
H15   H     H_    0.947863 0.285380 0.261817 0.112167
H16   H     H_    0.808369 0.314067 0.302700 0.145465
H17   H     H_    0.805824 0.529833 0.533895 0.197857
H18   H     H_    0.137476 0.413018 0.379147 0.178387
H19   H     H_    0.369276 0.720524 0.272226 0.156843
H20   H     H_    0.347609 0.674796 0.167653 0.125806
H21   H     H_    0.399784 0.837600 0.247759 0.178998
H22   H     H_    0.369788 0.795356 0.145088 0.156011
H23   H     H_    0.534374 0.711135 0.098989 0.143178
H24   H     H_    0.232849 0.827750 0.207634 0.152926
H25   H     H_    0.257746 0.926011 0.244636 0.151357
H26   H     H_    0.262932 0.871493 0.310850 0.151676
H27   H     H_    0.214658 0.310662 0.478596 0.151606
H28   H     H_    0.135357 0.403354 0.552741 0.130636
H29   H     H_    0.317834 0.345970 0.568194 0.189719
H30   H     H_    0.242870 0.447020 0.643285 0.177521
H31   H     H_    0.174571 0.361327 0.671613 0.153686
H32   H     H_    0.279478 0.323179 0.685886 0.142579
H33   H     H_    0.244772 0.258350 0.593041 0.147506
H34   H     H_    0.502302 0.538085 0.205412 0.180073
H35   H     H_    0.692498 0.171289 0.344466 0.135174
H36   H     H_    0.473892 0.785112 0.361090 0.127072
H37   H     H_    0.811081 0.651665 0.449138 0.151070
H38   H     H_    0.846863 0.737929 0.516863 0.128021
H39   H     H_    0.678341 0.733770 0.535727 0.187302
H40   H     H_    0.714884 0.815187 0.609608 0.180733
H41   H     H_    0.740748 0.855448 0.495480 0.148721
H42   H     H_    0.636934 0.875406 0.518461 0.163078
H43   H     H_    0.696128 0.778988 0.426150 0.181458
H44   H     H_    0.398078 0.349830 0.183000 0.116604
H45   H     H_    0.383695 0.356845 0.921604 0.105645
H46   H     H_    0.581070 0.712094 0.974262 0.114376
H47   H     H_    0.589477 0.661482 0.823501 0.140695
H48   H     H_    0.496536 0.463047 0.797737 0.125238
O1    O     O_3   0.500000 0.500000 0.500000 -0.437086
O2    O     O_R   0.309700 0.585900 0.509470 -0.543162
O3    O     O_R   0.674980 0.398780 0.398780 -0.548211
O4    O     O_R   0.340340 0.501790 0.578230 -0.538464
O5    O     O_R   0.674980 0.513530 0.513520 -0.539705
O6    O     O_3   0.468334 0.663491 0.186342 -0.560524
O7    O     O_3   0.213137 0.430079 0.489206 -0.591052
O8    O     O_2   0.702550 0.063935 0.240765 -0.510987
O9    O     O_2   0.579831 0.734308 0.293347 -0.488765
O10   O     O_3   0.826950 0.658127 0.567192 -0.589015
O11   O     O_R   0.524320 0.685780 0.578230 -0.540061
O12   O     O_R   0.567430 0.291230 0.398780 -0.555762
O13   O     O_R   0.417260 0.532000 0.348010 -0.535997
O14   O     O_R   0.490990 0.490990 0.674980 -0.554657
O15   O     O_R   0.524330 0.409580 0.302030 -0.528936
O16   O     O_R   0.567420 0.567430 0.674980 -0.544310
O17   O     O_R   0.417260 0.693460 0.509470 -0.542901
O18   O     O_R   0.490990 0.329540 0.513520 -0.544951
Zn1   Zn    Zn3+2 0.565540 0.565550 0.565540 0.939184
Zn2   Zn    Zn3+2 0.412570 0.576510 0.467300 0.947466
Zn3   Zn    Zn3+2 0.456340 0.456340 0.565550 0.925200
Zn4   Zn    Zn3+2 0.565550 0.401610 0.401610 0.951395

loop_
_geom_bond_atom_site_label_1
_geom_bond_atom_site_label_2
_ccdc_geom_bond_type
O16   Zn1   S    
C66   C68   S    
C34   C56   A    
C3    H14   S    
C22   H23   S    
C41   C42   A    
C7    H12   S    
C61   H27   S    
C1    C11   S    
C1    O13   A    
C6    C9    A    
C50   H13   S    
C7    C8    A    
O13   Zn2   S    
C40   O2    A    
C69   H42   S    
C26   C27   A    
C29   C30   A    
C13   C18   A    
C8    H11   S    
C32   C36   A    
O5    Zn1   S    
C37   C38   A    
C10   C15   A    
C63   H31   S    
C38   C39   A    
C69   H41   S    
C24   H2    S    
C45   C71   A    
C2    O10   S    
C57   H15   S    
C52   O3    A    
C35   C36   A    
C11   C30   A    
C68   C69   S    
C14   H47   S    
C41   C46   A    
C70   C71   A    
O1    Zn3   S    
C13   C14   A    
C16   O11   A    
C58   H20   S    
O12   Zn4   S    
C62   H30   S    
C66   O10   S    
C23   C34   A    
C48   C50   A    
C11   C31   A    
C59   C60   S    
C21   C22   A    
C31   H34   S    
C61   H28   S    
O17   Zn2   S    
C8    C55   A    
C37   H9    S    
C52   C54   S    
C50   C51   A    
C30   H44   S    
C33   C53   A    
O18   Zn3   S    
C69   H43   S    
C28   O18   A    
C27   C31   A    
C65   O9    D    
C28   C32   S    
C24   C25   A    
C38   C41   A    
C63   H32   S    
C60   H26   S    
C10   C14   A    
C25   H45   S    
C5    C7    A    
C29   H3    S    
C25   C26   A    
O4    Zn3   S    
C68   H40   S    
C44   H4    S    
C35   C39   A    
C43   C44   A    
C51   H6    S    
C62   C63   S    
C16   C33   S    
C46   H10   S    
C47   C48   A    
C43   C65   S    
C64   O8    D    
C45   C57   A    
C17   C18   A    
O1    Zn2   S    
C68   H39   S    
C32   C37   A    
C58   H19   S    
C61   O7    S    
C34   C45   A    
C58   O6    S    
C4    O16   A    
C9    C55   A    
C12   C57   A    
C60   H25   S    
C48   C49   A    
C23   H17   S    
C62   H29   S    
C53   H5    S    
O1    Zn1   S    
C42   C43   A    
C4    C10   S    
C1    O15   A    
O11   Zn1   S    
C23   C54   A    
C15   C17   A    
C40   O4    A    
C46   C47   A    
C6    C67   A    
C12   H16   S    
C18   C22   A    
O1    Zn4   S    
C66   H37   S    
C63   H33   S    
C3    C5    A    
C40   C55   S    
C13   H46   S    
C64   H35   S    
C39   C44   A    
C20   C27   A    
C33   C51   A    
C56   C67   A    
C9    O7    S    
O3    Zn4   S    
C28   O12   A    
C67   C70   A    
C19   C20   A    
C2    C3    A    
C58   C59   S    
C71   H1    S    
C2    C56   A    
O15   Zn4   S    
C52   O5    A    
O2    Zn2   S    
C5    C6    A    
C49   C53   A    
O14   Zn3   S    
C35   H8    S    
C17   C19   A    
C15   H48   S    
C19   C24   A    
C59   H21   S    
C66   H38   S    
C61   C62   S    
C42   C49   A    
C70   H18   S    
C60   H24   S    
C20   C21   A    
C26   C29   A    
C59   H22   S    
C47   H7    S    
C36   C64   S    
C21   O6    S    
C65   H36   S    
C12   C54   A    
C4    O14   A    
C16   O17   A    
