data_mof_unit_34034.cif
_audit_creation_date              2012-12-11T17:34:27-0500
_audit_creation_method            fapswitch 2.2
_symmetry_space_group_name_H-M    P1
_symmetry_Int_Tables_number       1
_space_group_crystal_system       triclinic
_cell_length_a                    23.828902
_cell_length_b                    7.220133
_cell_length_c                    20.638162
_cell_angle_alpha                 90.001445
_cell_angle_beta                  105.345983
_cell_angle_gamma                 90.000069
_cell_volume                      3424.15038266

loop_
_atom_site_label
_atom_site_type_symbol
_atom_type_description
_atom_site_fract_x
_atom_site_fract_y
_atom_site_fract_z
_atom_type_partial_charge
O1    O     O_R   0.449110 0.494310 0.552140 -0.537691
O2    O     O_R   0.550890 0.994310 0.447860 -0.537683
O3    O     O_R   0.440010 0.824420 0.415850 -0.533060
O4    O     O_R   0.559990 0.324420 0.584150 -0.533107
C1    C     C_R   0.425365 0.655506 0.391058 0.689694
C2    C     C_R   0.574636 0.155509 0.608942 0.689727
O5    O     O_R   0.442260 0.824040 0.549660 -0.542956
O6    O     O_R   0.557740 0.324040 0.450340 -0.542970
O7    O     O_R   0.553160 0.993960 0.582620 -0.526872
O8    O     O_R   0.446840 0.493960 0.417380 -0.526905
C3    C     C_R   0.428671 0.655533 0.567636 0.682772
C4    C     C_R   0.571329 0.155531 0.432364 0.682798
O9    O     O_3   0.536380 0.660670 0.510660 -0.373710
O10   O     O_3   0.463620 0.160670 0.489340 -0.373705
V1    V     V_3+5 0.493250 0.935680 0.498020 1.431420
V2    V     V_3+5 0.506750 0.435680 0.501980 1.431327
C5    C     C_R   0.812294 0.921496 0.158752 -0.221355
C6    C     C_R   0.187706 0.421493 0.841245 -0.221355
H1    H     H_    0.786540 0.803448 0.166081 0.110675
H2    H     H_    0.213459 0.303446 0.833915 0.110674
C7    C     C_R   0.851403 0.904169 0.118034 0.352836
C8    C     C_R   0.148596 0.404166 0.881963 0.352838
C9    C     C_R   0.885254 0.059111 0.108852 -0.083313
C10   C     C_R   0.114745 0.559106 0.891147 -0.083312
C11   C     C_R   0.878028 0.227607 0.140457 -0.240525
C12   C     C_R   0.121972 0.727602 0.859544 -0.240524
H3    H     H_    0.903068 0.348944 0.134946 0.163477
H4    H     H_    0.096932 0.848937 0.865057 0.163481
C13   C     C_R   0.839005 0.242515 0.180379 -0.147514
C14   C     C_R   0.160995 0.742509 0.819623 -0.147515
H5    H     H_    0.834709 0.373766 0.204079 0.120438
H6    H     H_    0.165291 0.873760 0.795924 0.120438
C15   C     C_R   0.806119 0.089634 0.189946 0.098155
C16   C     C_R   0.193880 0.589630 0.810054 0.098155
C17   C     C_1   0.766138 0.104600 0.231939 -0.026036
C18   C     C_1   0.233862 0.604599 0.768061 -0.026036
C19   C     C_1   0.732724 0.115541 0.267070 -0.050693
C20   C     C_1   0.267276 0.615542 0.732931 -0.050692
C21   C     C_R   0.669867 0.964227 0.329410 -0.121164
C22   C     C_R   0.330133 0.464231 0.670588 -0.121161
H7    H     H_    0.682151 0.830006 0.314058 0.110052
H8    H     H_    0.317850 0.330010 0.685938 0.110053
C23   C     C_R   0.630841 0.973647 0.369599 -0.144294
C24   C     C_R   0.369159 0.473652 0.630399 -0.144318
H9    H     H_    0.613993 0.845361 0.384113 0.124963
H10   H     H_    0.386008 0.345365 0.615884 0.124965
C25   C     C_R   0.613727 0.145957 0.390408 -0.049825
C26   C     C_R   0.386273 0.645961 0.609592 -0.049833
C27   C     C_R   0.637071 0.308369 0.369812 -0.145321
C28   C     C_R   0.362929 0.808373 0.630189 -0.145292
H11   H     H_    0.625051 0.443561 0.384491 0.123559
H12   H     H_    0.374948 0.943564 0.615512 0.123562
C29   C     C_R   0.676122 0.298448 0.329550 -0.120808
C30   C     C_R   0.323877 0.798451 0.670451 -0.120809
H13   H     H_    0.693299 0.425281 0.314268 0.108871
H14   H     H_    0.306700 0.925284 0.685735 0.108871
C31   C     C_R   0.692658 0.126376 0.309062 0.124858
C32   C     C_R   0.307342 0.626380 0.690938 0.124857
C33   C     C_R   0.639892 0.126521 0.797168 0.372733
C34   C     C_R   0.360104 0.626597 0.202829 0.372738
H15   H     H_    0.727648 0.157484 0.910876 0.143407
H16   H     H_    0.272345 0.657627 0.089128 0.143404
C35   C     C_R   0.618385 0.146338 0.675165 -0.295913
C36   C     C_R   0.381615 0.646324 0.324836 -0.295889
C37   C     C_R   0.901970 0.007570 0.768596 -0.156877
C38   C     C_R   0.098031 0.507535 0.231401 -0.156877
C39   C     C_R   0.862999 0.987663 0.705746 -0.151239
C40   C     C_R   0.137004 0.487605 0.294249 -0.151231
C41   C     C_R   0.803686 0.016999 0.697101 -0.099947
C42   C     C_R   0.196316 0.516959 0.302894 -0.099939
C43   C     C_R   0.781562 0.075536 0.751019 0.134566
C44   C     C_R   0.218437 0.575542 0.248981 0.134569
C45   C     C_R   0.821714 0.085529 0.816290 0.052195
C46   C     C_R   0.178283 0.585564 0.183711 0.052195
C47   C     C_R   0.720464 0.110150 0.743232 0.003651
C48   C     C_R   0.279534 0.610171 0.256769 0.003645
C49   C     C_R   0.700387 0.121172 0.802220 -0.115601
C50   C     C_R   0.299610 0.621240 0.197780 -0.115597
C51   C     C_R   0.741075 0.133180 0.865470 -0.136866
C52   C     C_R   0.258920 0.633284 0.134533 -0.136866
C53   C     C_R   0.800423 0.119920 0.872160 -0.167331
C54   C     C_R   0.199573 0.620005 0.127844 -0.167339
C55   C     C_R   0.679176 0.139731 0.679582 0.258335
C56   C     C_R   0.320824 0.639709 0.320421 0.258356
C57   C     C_R   0.599325 0.138428 0.734511 0.331926
C58   C     C_R   0.400673 0.638454 0.265488 0.331921
C59   C     C_R   0.882209 0.053515 0.824519 -0.083559
C60   C     C_R   0.117789 0.553525 0.175481 -0.083562
H17   H     H_    0.947720 0.980022 0.774164 0.110272
H18   H     H_    0.052281 0.479967 0.225832 0.110272
H19   H     H_    0.775951 0.981343 0.648474 0.174002
H20   H     H_    0.224052 0.481278 0.351517 0.173981
H21   H     H_    0.878710 0.943670 0.663543 0.129219
H22   H     H_    0.121294 0.443577 0.336449 0.129219
H23   H     H_    0.829493 0.130634 0.922179 0.109590
H24   H     H_    0.170500 0.630744 0.077826 0.109599
O11   O     O_R   0.053190 0.709680 0.082610 -0.535575
O12   O     O_R   0.946810 0.209680 0.917390 -0.535570
O13   O     O_R   0.057740 0.380240 0.950340 -0.502030
O14   O     O_R   0.942260 0.880240 0.049660 -0.502029
C61   C     C_R   0.071724 0.548755 0.932706 0.701151
C62   C     C_R   0.928276 0.048757 0.067294 0.701150
O15   O     O_R   0.060000 0.379940 0.084150 -0.534481
O16   O     O_R   0.940000 0.879940 0.915850 -0.534484
O17   O     O_R   0.949110 0.210100 0.052140 -0.546642
O18   O     O_R   0.050890 0.710100 0.947860 -0.546642
C63   C     C_R   0.074613 0.548262 0.109032 0.672723
C64   C     C_R   0.925386 0.048258 0.890968 0.672721
O19   O     O_3   0.963630 0.543720 0.989330 -0.367474
O20   O     O_3   0.036370 0.043720 0.010670 -0.367476
V3    V     V_3+5 0.006750 0.268680 0.001980 1.480433
V4    V     V_3+5 0.993250 0.768680 0.998020 1.480430
O21   O     O_3   0.618219 0.118576 0.852901 -0.596228
H25   H     H_    0.642445 0.031271 0.885627 0.292236
O22   O     O_3   0.381775 0.618701 0.147094 -0.596226
H26   H     H_    0.357548 0.531418 0.114358 0.292235
O23   O     O_3   0.699574 0.177926 0.624113 -0.654628
H27   H     H_    0.667469 0.209795 0.584497 0.283312
O24   O     O_3   0.300427 0.677881 0.375894 -0.654607
H28   H     H_    0.332538 0.709491 0.415537 0.283278
O25   O     O_3   0.856396 0.738394 0.086595 -0.641002
H29   H     H_    0.829735 0.646040 0.098040 0.280764
O26   O     O_3   0.143603 0.238392 0.913399 -0.641003
H30   H     H_    0.170264 0.146038 0.901953 0.280762
O27   O     O_3   0.541138 0.142594 0.734366 -0.600447
H31   H     H_    0.515842 0.158172 0.688322 0.278735
O28   O     O_3   0.458859 0.642628 0.265630 -0.600446
H32   H     H_    0.484160 0.658042 0.311680 0.278734

loop_
_geom_bond_atom_site_label_1
_geom_bond_atom_site_label_2
_ccdc_geom_bond_type
C38   C40   A    
C29   H13   S    
C57   O27   S    
O1    C3    A    
C44   C48   A    
O2    C4    A    
C33   C49   A    
C2    O7    A    
O26   H30   S    
C38   H18   S    
O18   V4    S    
C37   H17   S    
C34   C50   A    
C28   C30   A    
H16   C52   S    
C17   C19   T    
C10   C12   A    
C38   C60   A    
C53   H23   S    
C50   C52   A    
C9    C62   S    
O22   H26   S    
C21   C31   A    
C13   C15   A    
O12   C64   A    
C62   O17   A    
O15   V3    S    
C10   C61   S    
C45   C53   A    
C41   C43   A    
O20   V3    S    
C45   C59   A    
C5    H1    S    
C20   C32   S    
C36   C56   A    
C59   C64   S    
C37   C39   A    
C28   H12   S    
C16   C18   S    
C33   O21   S    
C26   C28   A    
O17   V3    S    
O6    V2    S    
C35   C57   A    
C48   C56   A    
C3    C26   S    
C5    C15   A    
C46   C54   A    
C4    C25   S    
C36   C58   A    
C24   H10   S    
C37   C59   A    
C49   C51   A    
C11   C13   A    
C30   H14   S    
C43   C47   A    
C54   H24   S    
C14   C16   A    
C8    O26   S    
C22   C32   A    
C44   C46   A    
O19   V4    S    
C51   C53   A    
C60   C63   S    
C29   C31   A    
C21   C23   A    
O5    V1    S    
C27   H11   S    
C40   H22   S    
C1    C36   S    
C35   C55   A    
C39   C41   A    
C2    C35   S    
O4    V2    S    
O5    C3    A    
C33   C57   A    
C47   C49   A    
O6    C4    A    
O13   V3    S    
O14   C62   A    
O1    V2    S    
O2    V1    S    
C6    C16   A    
O25   H29   S    
C52   C54   A    
O13   C61   A    
C12   C14   A    
C7    C9    A    
O27   H31   S    
C8    C10   A    
O4    C2    A    
C11   H3    S    
O28   H32   S    
O16   C64   A    
O3    V1    S    
O16   V4    S    
O21   H25   S    
C30   C32   A    
C61   O18   A    
O11   V4    S    
C34   C58   A    
O12   V3    S    
C58   O28   S    
C6    C8    A    
C42   H20   S    
C48   C50   A    
O3    C1    A    
C42   C44   A    
O24   H28   S    
O14   V4    S    
C25   C27   A    
C12   H4    S    
C55   O23   S    
C18   C20   T    
O7    V1    S    
C1    O8    A    
C13   H5    S    
O8    V2    S    
O23   H27   S    
C14   H6    S    
C47   C55   A    
H15   C51   S    
C56   O24   S    
C27   C29   A    
C22   H8    S    
C15   C17   S    
C6    H2    S    
C9    C11   A    
C7    O25   S    
C5    C7    A    
O11   C63   A    
C22   C24   A    
C21   H7    S    
C40   C42   A    
O9    V2    S    
C43   C45   A    
C39   H21   S    
O10   V1    S    
C34   O22   S    
O15   C63   A    
C46   C60   A    
C41   H19   S    
C23   C25   A    
C23   H9    S    
C19   C31   S    
C24   C26   A    
