data_mof_unit_51265.cif
_audit_creation_date              2012-12-11T16:24:17-0500
_audit_creation_method            fapswitch 2.2
_symmetry_space_group_name_H-M    P1
_symmetry_Int_Tables_number       1
_space_group_crystal_system       triclinic
_cell_length_a                    14.715491
_cell_length_b                    14.693059
_cell_length_c                    33.174318
_cell_angle_alpha                 95.654348
_cell_angle_beta                  96.087344
_cell_angle_gamma                 61.125628
_cell_volume                      6236.43993609

loop_
_atom_site_label
_atom_site_type_symbol
_atom_type_description
_atom_site_fract_x
_atom_site_fract_y
_atom_site_fract_z
_atom_type_partial_charge
C1    C     C_R   0.390776 0.699507 0.445510 0.567449
C2    C     C_1   0.269527 0.361977 0.229625 0.092233
C3    C     C_2   0.796216 0.488977 0.167184 0.292984
C4    C     C_2   0.226211 0.708454 0.380195 0.287818
C5    C     C_2   0.490984 0.827019 0.431600 0.251140
C6    C     C_2   0.393778 0.149212 0.199880 0.276747
C7    C     C_2   0.524283 0.839248 0.347894 0.236496
C8    C     C_2   0.540223 0.815338 0.154317 0.303773
C9    C     C_2   0.134472 0.481157 0.824987 0.269255
C10   C     C_2   0.508218 0.204053 0.837714 0.303691
C11   C     C_2   0.765162 0.196246 0.588402 0.322678
C12   C     C_2   0.830862 0.495139 0.815223 0.286275
C13   C     C_1   0.279085 0.370883 0.265935 0.114752
C14   C     C_2   0.527150 0.794367 0.695219 0.322914
C15   C     C_2   0.546269 0.759476 0.607746 0.270579
C16   C     C_2   0.175801 0.851844 0.584980 0.290021
C17   C     C_2   0.211133 0.764775 0.806190 0.276512
C18   C     C_2   0.159198 0.855502 0.674539 0.338754
C19   C     C_2   0.149135 0.530733 0.171655 0.295783
C20   C     C_2   0.118098 0.459458 0.325358 0.323655
C21   C     C_R   0.406465 0.386382 0.433629 0.577322
C22   C     C_R   0.285821 0.290777 0.102680 -0.006700
C23   C     C_R   0.750034 0.379743 0.408796 -0.017465
C24   C     C_R   0.711770 0.457863 0.381075 -0.144565
C25   C     C_R   0.743449 0.437090 0.341839 -0.002040
C26   C     C_R   0.811363 0.333443 0.328896 0.003233
C27   C     C_R   0.853859 0.253045 0.356708 0.012085
C28   C     C_R   0.826429 0.277638 0.397806 0.021326
C29   C     C_R   0.306766 0.369455 0.308742 0.007664
C30   C     C_R   0.844682 0.297037 0.204767 0.402357
C31   C     C_R   0.826814 0.309333 0.285440 0.354870
C32   C     C_R   0.834979 0.387382 0.143323 -0.019979
C33   C     C_R   0.701831 0.409841 0.447853 0.523190
C34   C     C_R   0.854314 0.381489 0.102167 0.029178
C35   C     C_R   0.894118 0.198859 0.096266 0.072516
C36   C     C_R   0.875517 0.204584 0.137358 0.074946
C37   C     C_R   0.853167 0.296210 0.161270 -0.006456
C38   C     C_R   0.897484 0.283429 0.080216 -0.004954
C39   C     C_R   0.373273 0.749625 0.406316 -0.001439
C40   C     C_R   0.413400 0.321138 0.320603 0.073211
C41   C     C_R   0.310646 0.732715 0.373958 -0.021538
C42   C     C_R   0.327443 0.739487 0.334112 -0.098677
C43   C     C_R   0.399489 0.769112 0.325082 -0.006163
C44   C     C_R   0.452672 0.800006 0.356882 -0.048194
C45   C     C_R   0.391572 0.705685 0.560443 0.527509
C46   C     C_R   0.437776 0.792157 0.397818 -0.036819
C47   C     C_R   0.390886 0.797128 0.200790 0.322493
C48   C     C_R   0.407827 0.775200 0.281696 0.380338
C49   C     C_R   0.274017 0.827660 0.138119 0.092223
C50   C     C_R   0.241450 0.868109 0.099763 -0.102685
C51   C     C_R   0.446519 0.314861 0.361904 0.079670
C52   C     C_R   0.401484 0.875847 0.097693 -0.090835
C53   C     C_R   0.435825 0.835180 0.136209 -0.011321
C54   C     C_R   0.369343 0.815220 0.157309 -0.000637
C55   C     C_R   0.302652 0.896735 0.080075 -0.033736
C56   C     C_R   0.367183 0.362674 0.583414 0.000364
C57   C     C_R   0.405670 0.387078 0.548375 0.568126
C58   C     C_R   0.287330 0.443160 0.605967 0.058330
C59   C     C_R   0.277168 0.428028 0.645521 -0.111031
C60   C     C_R   0.342584 0.333888 0.663365 -0.007787
C61   C     C_R   0.411872 0.247859 0.639540 0.101739
C62   C     C_R   0.336837 0.236030 0.171958 -0.007378
C63   C     C_R   0.420895 0.261373 0.598815 0.077371
C64   C     C_R   0.326862 0.332605 0.788076 0.355955
C65   C     C_R   0.338526 0.331450 0.707278 0.361359
C66   C     C_R   0.223999 0.402259 0.849398 0.003349
C67   C     C_R   0.213096 0.393090 0.890283 0.014136
C68   C     C_R   0.394455 0.257747 0.896908 0.098748
C69   C     C_R   0.705961 0.410302 0.561884 0.567722
C70   C     C_R   0.405951 0.265577 0.855948 -0.023962
C71   C     C_R   0.318628 0.333523 0.831777 -0.032735
C72   C     C_R   0.294310 0.310326 0.912110 -0.001870
C73   C     C_R   0.344160 0.213485 0.130128 -0.076666
C74   C     C_R   0.769453 0.367716 0.600596 -0.018222
C75   C     C_R   0.812412 0.423050 0.625620 0.105088
C76   C     C_R   0.833079 0.406668 0.667630 0.111454
C77   C     C_R   0.814886 0.332317 0.684004 0.002682
C78   C     C_R   0.793944 0.262693 0.657747 0.040937
C79   C     C_R   0.774929 0.277702 0.615820 -0.028937
C80   C     C_R   0.833621 0.238414 0.827304 0.092756
C81   C     C_R   0.372013 0.366668 0.391573 0.003177
C82   C     C_R   0.866619 0.224196 0.868986 0.089180
C83   C     C_R   0.885596 0.380086 0.872120 -0.166609
C84   C     C_R   0.223939 0.393548 0.117191 -0.145351
C85   C     C_R   0.848989 0.397025 0.831593 -0.012754
C86   C     C_R   0.831434 0.321108 0.808027 0.025548
C87   C     C_1   0.822689 0.322811 0.764062 0.104680
C88   C     C_1   0.819423 0.326071 0.727591 0.101115
C89   C     C_R   0.900705 0.291489 0.890724 -0.011698
C90   C     C_R   0.369087 0.770301 0.599780 -0.072150
C91   C     C_R   0.268850 0.813305 0.614785 -0.033284
C92   C     C_R   0.259164 0.828595 0.657369 0.009493
C93   C     C_R   0.264509 0.410886 0.379515 0.033038
C94   C     C_R   0.346742 0.814227 0.683653 0.000677
C95   C     C_R   0.217100 0.419737 0.158935 0.015435
C96   C     C_R   0.440446 0.793844 0.667771 0.001045
C97   C     C_R   0.451025 0.774094 0.625458 -0.035102
C98   C     C_R   0.374636 0.905193 0.828511 0.084818
C99   C     C_R   0.358220 0.934094 0.869431 -0.103162
C100  C     C_R   0.245439 0.856384 0.867641 -0.149798
C101  C     C_R   0.262883 0.824100 0.826624 0.001410
C102  C     C_R   0.325588 0.852089 0.806579 0.050763
C103  C     C_1   0.333444 0.835612 0.763344 0.147268
C104  C     C_1   0.339252 0.825161 0.727128 0.135251
C105  C     C_R   0.231300 0.411737 0.337884 0.025992
C106  C     C_R   0.272494 0.339752 0.186510 0.014759
C107  C     C_R   0.290795 0.913362 0.888937 -0.011655
C108  C     C_R   0.959923 0.265259 0.044820 0.570418
C109  C     C_R   0.272449 0.259367 0.060048 0.547383
C110  C     C_R   0.259718 0.959118 0.043882 0.543181
C111  C     C_R   0.960243 0.268854 0.930978 0.561767
C112  C     C_R   0.272183 0.266610 0.946203 0.568327
C113  C     C_R   0.256388 0.964683 0.929058 0.547186
C114  C     C_2   0.879615 0.200689 0.429772 0.312827
C115  C     C_2   0.700182 0.526648 0.315272 0.297297
C116  C     C_2   0.919050 0.143574 0.341406 0.317372
Cr1   Cr    Cr6+3 0.576280 0.580550 0.506370 1.096249
Cr2   Cr    Cr6+3 0.346780 0.572400 0.496520 1.100661
Cr3   Cr    Cr6+3 0.576960 0.347070 0.497150 1.112492
Cr4   Cr    Cr6+3 0.087320 0.083240 0.984860 1.102751
Cr5   Cr    Cr6+3 0.087720 0.316210 0.996740 1.098963
Cr6   Cr    Cr6+3 0.317350 0.090340 0.995890 1.078200
H1    H     H_    0.389762 0.133603 0.118791 0.189490
H2    H     H_    0.654518 0.536564 0.389998 0.122148
H3    H     H_    0.840567 0.206093 0.456507 0.145930
H4    H     H_    0.630123 0.597235 0.323069 0.126890
H5    H     H_    0.970298 0.126397 0.317314 0.127226
H6    H     H_    0.741075 0.560649 0.153196 0.141137
H7    H     H_    0.181336 0.740237 0.406745 0.167973
H8    H     H_    0.566631 0.820030 0.428227 0.109642
H9    H     H_    0.381848 0.161650 0.232064 0.133582
H10   H     H_    0.530567 0.899794 0.367516 0.129430
H11   H     H_    0.569496 0.780141 0.183366 0.152863
H12   H     H_    0.165472 0.882711 0.086485 0.179476
H13   H     H_    0.086542 0.558584 0.838119 0.140924
H14   H     H_    0.527006 0.234762 0.813271 0.133596
H15   H     H_    0.719516 0.161438 0.596252 0.153081
H16   H     H_    0.872617 0.535418 0.829185 0.138969
H17   H     H_    0.567739 0.834231 0.687026 0.176415
H18   H     H_    0.539810 0.791375 0.578786 0.153278
H19   H     H_    0.185157 0.856649 0.553392 0.152201
H20   H     H_    0.156810 0.754097 0.822337 0.122609
H21   H     H_    0.114900 0.816493 0.662331 0.183559
H22   H     H_    0.108925 0.587564 0.148716 0.135113
H23   H     H_    0.281431 0.723784 0.309435 0.200722
H24   H     H_    0.061472 0.520231 0.344415 0.165585
H25   H     H_    0.450349 0.895288 0.082074 0.188377
H26   H     H_    0.219235 0.492044 0.663125 0.181472
H27   H     H_    0.904607 0.436255 0.889031 0.166528
H28   H     H_    0.393050 0.979016 0.885192 0.171676
H29   H     H_    0.193776 0.839663 0.882763 0.139165
H30   H     H_    0.178026 0.452963 0.095733 0.130490
I1    I     I_    0.813295 0.522851 0.073432 -0.261990
I2    I     I_    0.529705 0.183539 0.938014 -0.156972
I3    I     I_    0.859022 0.104812 0.898621 -0.158018
I4    I     I_    0.785017 0.136570 0.793410 -0.169515
I5    I     I_    0.798004 0.130006 0.680969 -0.182224
I6    I     I_    0.861421 0.518136 0.599100 -0.110972
I7    I     I_    0.610784 0.223277 0.376908 -0.194741
I8    I     I_    0.894698 0.491586 0.706480 -0.080085
I9    I     I_    0.467248 0.953180 0.800872 -0.162902
I10   I     I_    0.152741 0.464700 0.424794 -0.254139
I11   I     I_    0.906943 0.065156 0.059057 -0.185160
I12   I     I_    0.884242 0.074044 0.164893 -0.144383
I13   I     I_    0.169179 0.798415 0.166987 -0.213076
I14   I     I_    0.175200 0.591515 0.584930 -0.205225
I15   I     I_    0.508271 0.126381 0.560112 -0.196909
I16   I     I_    0.074537 0.508370 0.918199 -0.338332
I17   I     I_    0.511513 0.101157 0.665832 -0.208766
I18   I     I_    0.525303 0.262950 0.274810 -0.218464
N1    N     N_R   0.752700 0.320534 0.219170 -0.161468
N2    N     N_R   0.395450 0.864044 0.267327 -0.149638
N3    N     N_R   0.387609 0.874578 0.227539 -0.182493
N4    N     N_R   0.327622 0.413354 0.771952 -0.178895
N5    N     N_R   0.333298 0.412714 0.732192 -0.186984
N6    N     N_R   0.336381 0.251379 0.723491 -0.159015
N7    N     N_R   0.331174 0.251693 0.763297 -0.165226
N8    N     N_R   0.743909 0.326823 0.258936 -0.151352
N9    N     N_R   0.919157 0.284716 0.270972 -0.178049
N10   N     N_R   0.928089 0.278042 0.231162 -0.143082
N11   N     N_R   0.404533 0.707784 0.215046 -0.174285
N12   N     N_R   0.412603 0.697193 0.254834 -0.197144
O1    O     O_R   0.679450 0.499830 0.463150 -0.501738
O2    O     O_R   0.340240 0.172500 0.045430 -0.500014
O3    O     O_R   0.309670 0.000990 0.032050 -0.504009
O4    O     O_R   0.480650 0.664000 0.464630 -0.472099
O5    O     O_R   0.168330 0.982130 0.939200 -0.493046
O6    O     O_R   0.000140 0.178170 0.944610 -0.470958
O7    O     O_R   0.983010 0.336750 0.948660 -0.490623
O8    O     O_R   0.181800 0.312190 0.959860 -0.467580
O9    O     O_R   0.338500 0.175680 0.956950 -0.483758
O10   O     O_R   0.308050 0.003930 0.950020 -0.498233
O11   O     O_3   0.164130 0.163270 0.992500 -0.271927
O12   O     O_R   0.356040 0.477400 0.534170 -0.462791
O13   O     O_R   0.323930 0.675950 0.455370 -0.530242
O14   O     O_R   0.354700 0.475360 0.451930 -0.473648
O15   O     O_R   0.494470 0.320860 0.448390 -0.472017
O16   O     O_R   0.662580 0.357570 0.460050 -0.495418
O17   O     O_R   0.680900 0.502040 0.551870 -0.466190
O18   O     O_R   0.481990 0.666040 0.546870 -0.490792
O19   O     O_R   0.325370 0.678160 0.544080 -0.497383
O20   O     O_2   0.970052 0.133217 0.427683 -0.433673
O21   O     O_2   0.743528 0.524687 0.285559 -0.381059
O22   O     O_2   0.912549 0.071948 0.354204 -0.404713
O23   O     O_R   0.495910 0.323070 0.537100 -0.488546
O24   O     O_2   0.826706 0.494335 0.202566 -0.386613
O25   O     O_2   0.203537 0.655060 0.354954 -0.491284
O26   O     O_2   0.449471 0.866047 0.463368 -0.463286
O27   O     O_2   0.454812 0.061864 0.187190 -0.443913
O28   O     O_2   0.578908 0.802731 0.319119 -0.440776
O29   O     O_2   0.595485 0.837269 0.136829 -0.433313
O30   O     O_2   0.111696 0.459886 0.790187 -0.446809
O31   O     O_2   0.570550 0.117018 0.848358 -0.399944
O32   O     O_2   0.810970 0.165139 0.557203 -0.449434
O33   O     O_2   0.765193 0.535004 0.787573 -0.424301
O34   O     O_R   0.663920 0.359620 0.542290 -0.478354
O35   O     O_2   0.556043 0.747581 0.726438 -0.427912
O36   O     O_2   0.632398 0.710186 0.624644 -0.458986
O37   O     O_2   0.087742 0.882419 0.594884 -0.459570
O38   O     O_2   0.229096 0.725663 0.771800 -0.461960
O39   O     O_2   0.125110 0.921864 0.702163 -0.451679
O40   O     O_2   0.136627 0.560679 0.207278 -0.419300
O41   O     O_2   0.086197 0.430790 0.293843 -0.429768
O42   O     O_3   0.500010 0.500010 0.500010 -0.276543
O43   O     O_R   0.170070 0.978950 0.027680 -0.490146
O44   O     O_R   0.001760 0.175230 0.026640 -0.474682
O45   O     O_R   0.984760 0.333570 0.037150 -0.472498
O46   O     O_R   0.183410 0.309240 0.041890 -0.490645

loop_
_geom_bond_atom_site_label_1
_geom_bond_atom_site_label_2
_ccdc_geom_bond_type
C67   I16   S    
C87   C88   T    
C72   C112  S    
C110  O3    A    
C19   H22   S    
Cr4   O44   S    
Cr3   O16   S    
C41   C42   A    
C86   C87   S    
C35   C36   A    
C47   N11   A    
C98   I9    S    
C40   I18   S    
Cr6   O9    S    
C39   C41   A    
C6    O27   D    
C1    O4    A    
C77   C78   A    
C52   C53   A    
C45   O18   A    
C19   O40   D    
C111  O6    A    
C101  C102  A    
C115  H4    S    
C108  O44   A    
C12   C85   S    
C33   O16   A    
C13   C29   S    
C36   C37   A    
C1    O13   A    
C10   H14   S    
C15   H18   S    
C68   I2    S    
Cr1   O4    S    
C25   C115  S    
Cr5   O7    S    
N4    N5    A    
C98   C99   A    
C4    C41   S    
C9    O30   D    
C49   C54   A    
C113  O5    A    
C57   O23   A    
C24   H2    S    
C56   C57   S    
C16   O37   D    
C67   C72   A    
C64   C71   S    
C14   C96   S    
C61   C63   A    
C2    C13   T    
C17   C101  S    
C9    C66   S    
C107  C113  S    
C80   C86   A    
C93   C105  A    
C48   N2    A    
C76   I8    S    
C77   C88   S    
C23   C33   S    
C116  H5    S    
C115  O21   D    
C33   O1    A    
C23   C24   A    
C114  O20   D    
N1    N8    A    
C70   C71   A    
Cr3   O23   S    
C18   O39   D    
C8    O29   D    
Cr2   O14   S    
C43   C48   S    
C51   C81   A    
C90   C97   A    
Cr1   O17   S    
C52   C55   A    
C27   C28   A    
C27   C116  S    
C63   I15   S    
C66   C67   A    
C94   C104  S    
C59   C60   A    
C34   C38   A    
C65   N5    A    
C38   C108  S    
C51   I7    S    
C29   C105  A    
C3    C32   S    
C69   O34   A    
C15   C97   S    
Cr2   O12   S    
Cr4   O6    S    
Cr5   O11   S    
C116  O22   D    
C109  O46   A    
C44   C46   A    
C80   I4    S    
C100  H29   S    
C83   C89   A    
C99   H28   S    
Cr1   O18   S    
C32   C37   A    
C74   C75   A    
C31   N8    A    
Cr2   O42   S    
C35   C38   A    
C24   C25   A    
C80   C82   A    
C50   H12   S    
Cr5   O8    S    
C114  H3    S    
C78   C79   A    
Cr6   O3    S    
C73   H1    S    
C25   C26   A    
C53   C54   A    
C2    C106  S    
C35   I11   S    
C30   C37   S    
C31   N9    A    
C17   H20   S    
C84   C95   A    
C22   C84   A    
N11   N12   A    
C75   C76   A    
C49   I13   S    
C45   C90   S    
C95   C106  A    
C3    H6    S    
C62   C73   A    
C81   C93   A    
C78   I5    S    
Cr3   O34   S    
C66   C71   A    
C68   C72   A    
C22   C109  S    
C96   C97   A    
C92   C94   A    
C26   C27   A    
C56   C63   A    
C69   C74   S    
C14   O35   D    
C23   C28   A    
C76   C77   A    
C15   O36   D    
C94   C96   A    
Cr2   O13   S    
Cr5   O46   S    
C7    H10   S    
C47   N3    A    
C17   O38   D    
C11   C79   S    
C47   C54   S    
C82   I3    S    
C9    H13   S    
C75   I6    S    
C68   C70   A    
N6    N7    A    
C83   C85   A    
C21   C81   S    
C60   C65   S    
C111  O7    A    
C52   H25   S    
C74   C79   A    
C39   C46   A    
C65   N6    A    
C12   H16   S    
Cr2   O19   S    
C61   I17   S    
C42   C43   A    
Cr6   O11   S    
C64   N4    A    
Cr4   O5    S    
C10   C70   S    
C91   C92   A    
C7    O28   D    
C19   C95   S    
N2    N3    A    
C109  O2    A    
C4    O25   D    
C36   I12   S    
C20   C105  S    
C34   I1    S    
C113  O10   A    
C18   H21   S    
C100  C107  A    
C12   O33   D    
C8    H11   S    
Cr3   O15   S    
C3    O24   D    
C84   H30   S    
C50   C55   A    
C21   O15   A    
C6    H9    S    
C110  O43   A    
C85   C86   A    
C8    C53   S    
Cr1   O1    S    
C10   O31   D    
Cr6   O10   S    
C4    H7    S    
C62   C106  A    
C108  O45   A    
C40   C51   A    
C99   C107  A    
C5    C46   S    
C89   C111  S    
Cr4   O11   S    
Cr5   O45   S    
C57   O12   A    
C18   C92   S    
C6    C62   S    
C16   H19   S    
C58   C59   A    
C55   C110  S    
C98   C102  A    
C59   H26   S    
C5    O26   D    
C48   N12   A    
C64   N7    A    
C90   C91   A    
C82   C89   A    
C93   I10   S    
C43   C44   A    
C28   C114  S    
C29   C40   A    
Cr6   O2    S    
Cr3   O42   S    
C20   O41   D    
C56   C58   A    
C20   H24   S    
C21   O14   A    
C11   H15   S    
C102  C103  S    
C58   I14   S    
C30   N1    A    
C1    C39   S    
C11   O32   D    
C112  O8    A    
N9    N10   A    
C5    H8    S    
C26   C31   S    
C83   H27   S    
C14   H17   S    
C16   C91   S    
C45   O19   A    
C49   C50   A    
C103  C104  T    
C69   O17   A    
C30   N10   A    
C60   C61   A    
Cr1   O42   S    
C100  C101  A    
C22   C73   A    
C7    C44   S    
C42   H23   S    
Cr4   O43   S    
C32   C34   A    
C112  O9    A    
