data_mof_unit_65494.cif
_audit_creation_date              2013-03-05T16:45:24-0500
_audit_creation_method            fapswitch 2.2
_symmetry_space_group_name_H-M    P1
_symmetry_Int_Tables_number       1
_space_group_crystal_system       triclinic
_cell_length_a                    10.923673
_cell_length_b                    15.950497
_cell_length_c                    17.077406
_cell_angle_alpha                 95.605062
_cell_angle_beta                  93.285109
_cell_angle_gamma                 90.584984
_cell_volume                      2956.06626939

loop_
_atom_site_label
_atom_site_type_symbol
_atom_site_description
_atom_site_fract_x
_atom_site_fract_y
_atom_site_fract_z
_atom_type_partial_charge
O1    O     O_R   0.494300 0.420530 0.382500 -0.544931
O2    O     O_R   0.504600 0.563720 0.388950 -0.555800
C1    C     C_R   0.502255 0.489394 0.348523 0.921395
O3    O     O_R   0.312540 0.428400 0.496760 -0.569783
O4    O     O_R   0.322840 0.571590 0.503210 -0.538009
C2    C     C_R   0.259828 0.501392 0.495886 0.947529
Cu1   Cu    Cu3+1 0.493900 0.415220 0.496180 1.111833
Cu2   Cu    Cu3+1 0.506100 0.584780 0.503820 1.136930
O5    O     O_R   0.495400 0.436280 0.611050 -0.553614
O6    O     O_R   0.505700 0.579470 0.617500 -0.566901
O7    O     O_R   0.677160 0.428410 0.496790 -0.567837
O8    O     O_R   0.687460 0.571600 0.503240 -0.539853
C3    C     C_R   0.499916 0.509974 0.651258 0.887423
C4    C     C_R   0.740043 0.498855 0.502698 0.918719
C5    C     C_3   0.061943 0.420381 0.448541 0.128287
C6    C     C_3   0.919963 0.420882 0.450342 -0.395750
C7    C     C_3   0.083629 0.510467 0.583525 -0.040512
C8    C     C_3   0.064399 0.584404 0.454467 0.370421
C9    C     C_3   0.121467 0.504593 0.494773 -0.355823
C10   C     C_3   0.878088 0.498106 0.503042 -0.335925
C11   C     C_3   0.940993 0.497313 0.590253 0.373225
C12   C     C_3   0.921844 0.579682 0.465512 0.021299
C13   C     C_R   0.505189 0.483255 0.261612 -0.232673
C14   C     C_R   0.542265 0.554508 0.227113 -0.178857
C15   C     C_R   0.524555 0.559726 0.146369 0.298547
C16   C     C_R   0.482162 0.487413 0.096792 0.140212
C17   C     C_R   0.453806 0.412756 0.130079 0.198944
C18   C     C_R   0.465533 0.410086 0.212391 0.236365
C19   C     C_R   0.538348 0.447586 0.858092 -0.098403
C20   C     C_R   0.525737 0.441976 0.776206 -0.100733
C21   C     C_R   0.531005 0.526155 0.902222 0.358594
N1    N     N_2   0.472358 0.484701 0.013313 -0.138878
N2    N     N_2   0.544150 0.533151 0.985073 -0.161684
C22   C     C_R   0.505004 0.514771 0.737619 -0.023461
C23   C     C_R   0.493766 0.592698 0.782373 -0.099821
C24   C     C_R   0.509513 0.598551 0.864172 -0.078021
N3    N     N_R   0.515260 0.712130 0.509560 -0.312101
C25   C     C_R   0.452893 0.753839 0.452597 0.357348
C26   C     C_R   0.452934 0.842923 0.455105 0.134637
C27   C     C_R   0.513945 0.892375 0.518377 0.122538
C28   C     C_R   0.579686 0.850082 0.575338 0.120638
C29   C     C_R   0.581914 0.760296 0.568873 0.329005
C30   C     C_R   0.561377 0.152472 0.522239 -0.290387
C31   C     C_R   0.575101 0.240262 0.522702 0.463423
C32   C     C_R   0.453906 0.110339 0.490464 0.243978
N4    N     N_2   0.524768 0.982961 0.522206 -0.122248
N5    N     N_2   0.438783 0.020190 0.488897 -0.073050
N6    N     N_R   0.484730 0.287850 0.490450 -0.256742
C33   C     C_R   0.380169 0.247690 0.457737 0.007909
C34   C     C_R   0.361074 0.159547 0.457226 0.204518
H1    H     H_    0.092907 0.366168 0.480185 0.209211
H2    H     H_    0.903270 0.631580 0.511206 0.200834
H3    H     H_    0.106290 0.575202 0.606394 0.208987
N7    N     N_R   0.890251 0.566108 0.643648 0.136037
O9    O     O_R   0.776469 0.560913 0.661733 -0.298131
O10   O     O_R   0.960400 0.621847 0.685951 -0.226896
H4    H     H_    0.533742 0.380946 0.743313 0.213279
H5    H     H_    0.555354 0.391135 0.887233 0.198308
N8    N     N_R   0.416824 0.338276 0.079512 0.181447
O11   O     O_R   0.331955 0.341913 0.023329 -0.235965
O12   O     O_R   0.470689 0.267032 0.087818 -0.209684
N9    N     N_R   0.436710 0.333022 0.244731 0.183167
O13   O     O_R   0.329741 0.297014 0.228005 -0.186953
O14   O     O_R   0.524801 0.289960 0.275144 -0.273794
H6    H     H_    0.472409 0.649067 0.754317 0.213259
N10   N     N_R   0.542532 0.640042 0.116930 0.179451
O15   O     O_R   0.456301 0.670559 0.072718 -0.250879
O16   O     O_R   0.633623 0.689034 0.145567 -0.221674
H7    H     H_    0.502263 0.659137 0.898078 0.209985
N11   N     N_R   0.100452 0.402565 0.366910 0.181084
O17   O     O_R   0.212052 0.380148 0.354386 -0.304931
O18   O     O_R   0.024201 0.404907 0.305700 -0.217484
H8    H     H_    0.581764 0.608120 0.263727 0.265101
N12   N     N_R   0.684895 0.277916 0.559434 0.145057
O19   O     O_R   0.678256 0.328741 0.623154 -0.297114
O20   O     O_R   0.787862 0.240469 0.546023 -0.278529
H9    H     H_    0.635070 0.117758 0.548540 0.240972
N13   N     N_R   0.646625 0.898679 0.639563 0.191251
O21   O     O_R   0.762864 0.886290 0.654148 -0.187289
O22   O     O_R   0.593815 0.960321 0.679641 -0.249387
N14   N     N_R   0.663717 0.721156 0.621326 0.199544
O23   O     O_R   0.639818 0.724174 0.695212 -0.288157
O24   O     O_R   0.777435 0.715940 0.603373 -0.249525
H10   H     H_    0.308165 0.284233 0.433870 0.225885
N15   N     N_R   0.398733 0.881585 0.389334 0.200018
O25   O     O_R   0.468100 0.918143 0.342910 -0.220035
O26   O     O_R   0.280505 0.878807 0.374741 -0.160257
N16   N     N_R   0.246742 0.122128 0.423725 0.176113
O27   O     O_R   0.177387 0.161887 0.375474 -0.238658
O28   O     O_R   0.206308 0.051488 0.445508 -0.207873
N17   N     N_R   0.392182 0.708677 0.385422 0.178730
O29   O     O_R   0.273672 0.705370 0.383259 -0.204702
O30   O     O_R   0.443339 0.709185 0.318671 -0.287109
H11   H     H_    0.872386 0.419583 0.391630 0.259157
H12   H     H_    0.886151 0.361023 0.469434 0.251325
N18   N     N_R   0.158624 0.460604 0.636403 0.160197
O31   O     O_R   0.192767 0.384314 0.614873 -0.286637
O32   O     O_R   0.192075 0.493858 0.707131 -0.285396
N19   N     N_R   0.918098 0.417003 0.624913 0.195367
O33   O     O_R   0.963300 0.346544 0.595673 -0.254470
O34   O     O_R   0.878290 0.418621 0.695514 -0.190933
N20   N     N_R   0.105862 0.669692 0.491179 0.132272
O35   O     O_R   0.184576 0.683096 0.551261 -0.327859
O36   O     O_R   0.056257 0.735738 0.463972 -0.184441
N21   N     N_R   0.092492 0.580757 0.369854 0.207614
O37   O     O_R   0.040826 0.633482 0.325064 -0.140598
O38   O     O_R   0.195546 0.549404 0.347017 -0.293179
N22   N     N_R   0.846113 0.597521 0.394650 0.176422
O39   O     O_R   0.831147 0.542749 0.333108 -0.314713
O40   O     O_R   0.792951 0.670084 0.393132 -0.248737

loop_
_geom_bond_atom_site_label_1
_geom_bond_atom_site_label_2
_geom_bond_distance
_ccdc_geom_bond_type
N10   O16   1.301395 A    
C16   N1    1.419864 S    
C28   C29   1.426167 A    
C1    C13   1.480081 S    
C23   C24   1.391522 A    
N14   O23   1.299502 A    
Cu1   Cu2   2.696514 S    
N15   O25   1.301110 A    
C5    C9    1.602052 S    
C2    C9    1.511897 S    
N21   O38   1.301215 A    
C16   C17   1.407834 A    
C19   C20   1.391309 A    
N12   O20   1.300325 A    
O4    C2    1.300070 A    
C33   H10   1.069383 S    
C6    C10   1.542269 S    
C8    C9    1.619015 S    
C25   C26   1.417392 A    
C11   N19   1.487388 S    
O7    C4    1.303362 A    
N13   O22   1.301278 A    
C14   H8    1.079591 S    
C23   H6    1.080741 S    
C5    C6    1.553095 S    
C20   H4    1.082301 S    
N22   O39   1.300992 A    
C22   C23   1.404445 A    
C8    N20   1.495693 S    
N3    C29   1.377823 A    
O5    C3    1.301111 A    
N9    O14   1.301303 A    
N7    O9    1.301533 A    
N18   O32   1.301562 A    
C13   C14   1.396971 A    
C21   N2    1.407308 S    
N11   O17   1.297540 A    
C5    H1    1.109262 S    
C34   N16   1.442059 S    
C32   N5    1.443180 S    
N10   O15   1.301508 A    
N8    O11   1.301315 A    
C8    C12   1.581222 S    
C29   N14   1.421097 S    
O3    Cu1   1.994860 S    
N14   O24   1.298003 A    
N15   O26   1.300689 A    
N7    O10   1.302584 A    
N8    O12   1.301258 A    
N12   O19   1.297882 A    
C20   C22   1.404084 A    
C4    C10   1.507803 S    
C31   N12   1.420603 S    
C14   C15   1.392091 A    
O3    C2    1.305130 A    
N17   O29   1.293359 A    
N13   O21   1.300713 A    
C15   C16   1.419525 A    
C25   N17   1.419983 S    
C7    C11   1.582244 S    
O1    C1    1.295789 A    
Cu1   O7    2.010086 S    
C30   C31   1.405975 A    
N3    C25   1.383026 A    
N17   O30   1.298662 A    
N19   O33   1.298531 A    
Cu2   O8    1.994861 S    
N18   O31   1.301018 A    
C10   C11   1.605322 S    
N9    O13   1.301093 A    
C7    N18   1.479167 S    
C13   C18   1.418666 A    
C19   H5    1.083166 S    
N20   O36   1.302961 A    
C30   C32   1.401416 A    
N6    C33   1.367127 A    
N19   O34   1.302948 A    
N16   O28   1.301373 A    
Cu2   N3    2.025244 S    
C26   N15   1.434898 S    
C7    H3    1.088526 S    
C28   N13   1.438378 S    
C24   H7    1.083020 S    
C12   H2    1.109380 S    
Cu1   O5    1.956728 S    
C5    N11   1.480994 S    
N4    N5    1.254817 D    
C27   C28   1.405346 A    
C6    H12   1.105328 S    
O1    Cu1   1.951704 S    
O2    Cu2   1.956728 S    
C15   N10   1.436830 S    
C10   C12   1.586692 S    
O6    C3    1.301024 A    
O4    Cu2   2.010086 S    
C30   H9    1.082862 S    
N21   O37   1.302587 A    
C6    H11   1.100838 S    
Cu1   N6    2.025574 S    
O2    C1    1.311582 A    
O8    C4    1.299410 A    
C8    N21   1.490053 S    
C3    C22   1.467151 S    
C19   C21   1.403361 A    
C17   N8    1.438773 S    
N1    N2    1.244428 D    
C11   N7    1.489187 S    
C32   C34   1.415587 A    
C12   N22   1.478889 S    
C27   N4    1.443308 S    
C7    C9    1.587976 S    
N22   O40   1.302066 A    
N20   O35   1.300038 A    
C26   C27   1.405037 A    
N16   O27   1.302102 A    
Cu2   O6    1.951704 S    
C33   C34   1.418315 A    
C17   C18   1.409022 A    
C21   C24   1.394796 A    
N11   O18   1.302432 A    
C31   N6    1.374305 A    
C18   N9    1.435179 S    
