data_mof_unit_62364.cif
_audit_creation_date              2012-12-10T18:30:43-0500
_audit_creation_method            fapswitch 2.2
_symmetry_space_group_name_H-M    P1
_symmetry_Int_Tables_number       1
_space_group_crystal_system       triclinic
_cell_length_a                    18.325658
_cell_length_b                    18.277361
_cell_length_c                    42.86551
_cell_angle_alpha                 90.000058
_cell_angle_beta                  90.000102
_cell_angle_gamma                 89.992901
_cell_volume                      14357.5738552

loop_
_atom_site_label
_atom_site_type_symbol
_atom_type_description
_atom_site_fract_x
_atom_site_fract_y
_atom_site_fract_z
_atom_type_partial_charge
C1    C     C_R   1.000000 0.500000 0.665812 0.874254
C2    C     C_R   0.500000 1.000000 0.334130 0.866409
C3    C     C_R   1.000000 0.500000 0.334167 0.902627
C4    C     C_R   0.500000 1.000000 0.665818 0.905775
C5    C     C_R   0.500000 1.000000 0.165813 0.874259
C6    C     C_R   0.000000 0.500000 0.834130 0.866407
C7    C     C_R   0.500000 0.000000 0.834167 0.902649
C8    C     C_R   1.000000 0.500000 0.165818 0.905780
C9    C     C_R   1.000000 0.500000 0.868489 -0.156892
C10   C     C_R   0.500000 1.000000 0.131399 -0.160195
C11   C     C_R   1.000000 0.500000 0.131369 -0.173065
C12   C     C_R   0.500000 0.000000 0.868544 -0.157673
C13   C     C_R   0.500000 1.000000 0.368488 -0.156885
C14   C     C_R   1.000000 0.500000 0.631399 -0.160199
C15   C     C_R   0.500000 0.999999 0.631369 -0.173063
C16   C     C_R   1.000000 0.500000 0.368543 -0.157659
C17   C     C_R   0.500000 0.999998 0.531456 0.331662
C18   C     C_R   0.999999 0.500000 0.468388 0.331693
C19   C     C_R   0.500000 0.999998 0.468321 0.331086
C20   C     C_R   0.999999 0.500000 0.531522 0.330210
C21   C     C_R   1.000000 0.500001 0.031456 0.331659
C22   C     C_R   0.500000 1.000000 0.968389 0.331691
C23   C     C_R   1.000000 0.500001 0.968321 0.331083
C24   C     C_R   0.500000 1.000000 0.031522 0.330207
C25   C     C_R   0.141544 0.640953 0.749834 0.834914
C26   C     C_R   0.640234 0.857992 0.250634 0.881555
C27   C     C_R   0.858456 0.359048 0.749833 0.834916
C28   C     C_R   0.359766 0.142007 0.250634 0.881544
C29   C     C_R   0.857889 0.640299 0.250733 0.894693
C30   C     C_R   0.357730 0.860005 0.750633 0.883837
C31   C     C_R   0.142111 0.359701 0.250733 0.894701
C32   C     C_R   0.642270 0.139995 0.750633 0.883684
C33   C     C_R   0.641544 0.140952 0.249833 0.834893
C34   C     C_R   0.140234 0.357993 0.750634 0.881555
C35   C     C_R   0.358456 0.859048 0.249833 0.834900
C36   C     C_R   0.859766 0.642007 0.750634 0.881564
C37   C     C_R   0.357888 0.140298 0.750734 0.894723
C38   C     C_R   0.857729 0.360006 0.250634 0.883610
C39   C     C_R   0.642111 0.859701 0.750734 0.894709
C40   C     C_R   0.142271 0.639994 0.250634 0.883704
C41   C     C_3   0.172235 0.230832 0.733221 -0.380736
C42   C     C_3   0.264919 0.794183 0.282285 -0.360291
C43   C     C_3   0.827763 0.769165 0.733218 -0.380748
C44   C     C_3   0.735072 0.205824 0.282286 -0.360286
C45   C     C_3   0.785387 0.273048 0.283475 -0.385986
C46   C     C_3   0.763815 0.822616 0.729229 -0.392092
C47   C     C_3   0.214606 0.726959 0.283474 -0.386004
C48   C     C_3   0.236182 0.177381 0.729232 -0.392111
C49   C     C_3   0.672245 0.730842 0.233210 -0.380744
C50   C     C_3   0.764902 0.294200 0.782282 -0.360293
C51   C     C_3   0.327756 0.269159 0.233211 -0.380737
C52   C     C_3   0.235102 0.705798 0.782282 -0.360304
C53   C     C_3   0.285414 0.773023 0.783473 -0.386014
C54   C     C_3   0.263807 0.322608 0.229224 -0.392088
C55   C     C_3   0.714587 0.226977 0.783473 -0.385990
C56   C     C_3   0.736194 0.677394 0.229222 -0.392078
C57   C     C_3   0.268374 0.330253 0.736651 -0.278395
C58   C     C_3   0.335011 0.725515 0.240276 -0.247244
C59   C     C_3   0.731625 0.669745 0.736652 -0.278387
C60   C     C_3   0.664993 0.274482 0.240271 -0.247268
C61   C     C_3   0.725979 0.333362 0.236844 -0.254787
C62   C     C_3   0.668098 0.726179 0.740762 -0.280094
C63   C     C_3   0.274027 0.666630 0.236851 -0.254781
C64   C     C_3   0.331901 0.273819 0.740761 -0.280083
C65   C     C_3   0.768381 0.830261 0.236659 -0.278395
C66   C     C_3   0.835014 0.225511 0.740286 -0.247251
C67   C     C_3   0.231620 0.169740 0.236658 -0.278403
C68   C     C_3   0.164982 0.774492 0.740289 -0.247203
C69   C     C_3   0.225961 0.833384 0.736866 -0.254782
C70   C     C_3   0.168094 0.226176 0.240768 -0.280079
C71   C     C_3   0.774032 0.166625 0.736860 -0.254787
C72   C     C_3   0.831906 0.773825 0.240769 -0.280090
C73   C     C_3   0.214042 0.275358 0.787287 0.061489
C74   C     C_3   0.237727 0.822062 0.224574 0.030030
C75   C     C_3   0.785961 0.724647 0.787287 0.061484
C76   C     C_3   0.762282 0.177929 0.224578 0.030019
C77   C     C_3   0.826969 0.237016 0.227945 0.053223
C78   C     C_3   0.732750 0.794788 0.786385 0.057379
C79   C     C_3   0.173040 0.762975 0.227940 0.053225
C80   C     C_3   0.267255 0.205217 0.786387 0.057363
C81   C     C_3   0.714023 0.775336 0.287285 0.061488
C82   C     C_3   0.737739 0.322051 0.724566 0.030038
C83   C     C_3   0.285975 0.224661 0.287285 0.061489
C84   C     C_3   0.262254 0.677955 0.724564 0.030062
C85   C     C_3   0.326940 0.737042 0.727928 0.053227
C86   C     C_3   0.232759 0.294798 0.286383 0.057361
C87   C     C_3   0.673050 0.262965 0.727931 0.053232
C88   C     C_3   0.767238 0.705198 0.286382 0.057367
C89   C     C_3   0.197009 0.299473 0.752095 -0.097579
C90   C     C_3   0.299971 0.801978 0.249269 -0.097941
C91   C     C_3   0.802991 0.700527 0.752095 -0.097587
C92   C     C_3   0.700030 0.198021 0.249269 -0.097915
C93   C     C_3   0.800287 0.302052 0.249803 -0.110412
C94   C     C_3   0.700094 0.802059 0.751844 -0.114404
C95   C     C_3   0.199715 0.697946 0.249803 -0.110419
C96   C     C_3   0.299906 0.197941 0.751845 -0.114410
C97   C     C_3   0.697009 0.799472 0.252094 -0.097578
C98   C     C_3   0.799970 0.301978 0.749269 -0.097942
C99   C     C_3   0.302991 0.200528 0.252094 -0.097572
C100  C     C_3   0.200028 0.698024 0.749269 -0.097988
C101  C     C_3   0.300282 0.802056 0.749804 -0.110427
C102  C     C_3   0.200094 0.302058 0.251843 -0.114414
C103  C     C_3   0.699714 0.197947 0.749803 -0.110425
C104  C     C_3   0.799906 0.697942 0.251843 -0.114405
C105  C     C_R   0.052458 0.541157 0.885209 0.256813
C106  C     C_R   0.538685 0.945621 0.114630 0.252355
C107  C     C_R   0.947542 0.458843 0.885209 0.256814
C108  C     C_R   0.461316 0.054378 0.114630 0.252354
C109  C     C_R   0.944715 0.537289 0.114565 0.260242
C110  C     C_R   0.460073 0.946533 0.885281 0.262443
C111  C     C_R   0.055285 0.462712 0.114565 0.260242
C112  C     C_R   0.539926 0.053467 0.885281 0.262441
C113  C     C_R   0.552458 0.041157 0.385209 0.256817
C114  C     C_R   0.038676 0.445616 0.614629 0.252357
C115  C     C_R   0.447542 0.958841 0.385209 0.256818
C116  C     C_R   0.961323 0.554384 0.614629 0.252359
C117  C     C_R   0.444711 0.037281 0.614565 0.260246
C118  C     C_R   0.960071 0.446534 0.385281 0.262440
C119  C     C_R   0.555289 0.962717 0.614565 0.260248
C120  C     C_R   0.039928 0.553466 0.385281 0.262442
C121  C     C_R   0.052641 0.539889 0.917744 -0.150072
C122  C     C_R   0.537380 0.945509 0.082094 -0.153061
C123  C     C_R   0.947359 0.460112 0.917744 -0.150072
C124  C     C_R   0.462621 0.054490 0.082094 -0.153062
C125  C     C_R   0.944659 0.535952 0.082030 -0.159225
C126  C     C_R   0.461365 0.946380 0.917816 -0.151873
C127  C     C_R   0.055340 0.464050 0.082030 -0.159225
C128  C     C_R   0.538635 0.053620 0.917816 -0.151870
C129  C     C_R   0.552641 0.039888 0.417744 -0.150072
C130  C     C_R   0.037371 0.445504 0.582094 -0.153062
C131  C     C_R   0.447360 0.960110 0.417744 -0.150072
C132  C     C_R   0.962627 0.554496 0.582094 -0.153062
C133  C     C_R   0.444656 0.035943 0.582029 -0.159227
C134  C     C_R   0.961363 0.446382 0.417816 -0.151867
C135  C     C_R   0.555344 0.964054 0.582030 -0.159227
C136  C     C_R   0.038636 0.553618 0.417816 -0.151869
C137  C     C_R   1.000000 0.500001 0.934124 -0.033505
C138  C     C_R   0.500000 1.000000 0.065719 -0.032474
C139  C     C_R   1.000000 0.500001 0.065655 -0.030051
C140  C     C_R   0.500000 1.000000 0.934193 -0.032841
C141  C     C_R   0.500000 0.999999 0.434124 -0.033506
C142  C     C_R   0.999999 0.500000 0.565718 -0.032474
C143  C     C_R   0.500000 0.999998 0.565655 -0.030051
C144  C     C_R   1.000000 0.500000 0.434193 -0.032843
H1    H     H_    0.150866 0.245429 0.709788 0.257103
H2    H     H_    0.307129 0.789995 0.300775 0.240824
H3    H     H_    0.849130 0.754566 0.709786 0.257106
H4    H     H_    0.692857 0.210018 0.300774 0.240813
H5    H     H_    0.759354 0.316033 0.297972 0.265335
H6    H     H_    0.744657 0.821171 0.704641 0.276235
H7    H     H_    0.240637 0.683977 0.297974 0.265304
H8    H     H_    0.255337 0.178822 0.704643 0.276227
H9    H     H_    0.650889 0.745453 0.209777 0.257098
H10   H     H_    0.807102 0.290021 0.800776 0.240836
H11   H     H_    0.349113 0.254550 0.209779 0.257099
H12   H     H_    0.192904 0.709973 0.800778 0.240840
H13   H     H_    0.259389 0.815997 0.797979 0.265258
H14   H     H_    0.244641 0.321156 0.204636 0.276227
H15   H     H_    0.740610 0.184003 0.797979 0.265315
H16   H     H_    0.755362 0.678849 0.204635 0.276230
H17   H     H_    0.126219 0.203342 0.745152 0.255327
H18   H     H_    0.233172 0.843532 0.288563 0.279752
H19   H     H_    0.873780 0.796657 0.745149 0.255325
H20   H     H_    0.766816 0.156477 0.288569 0.279753
H21   H     H_    0.836453 0.258862 0.296019 0.247355
H22   H     H_    0.783481 0.879388 0.733207 0.210746
H23   H     H_    0.163537 0.741148 0.296015 0.247366
H24   H     H_    0.216516 0.120609 0.733212 0.210784
H25   H     H_    0.626222 0.703345 0.245134 0.255327
H26   H     H_    0.733152 0.343552 0.788553 0.279748
H27   H     H_    0.373778 0.296655 0.245136 0.255321
H28   H     H_    0.266855 0.656446 0.788550 0.279753
H29   H     H_    0.336491 0.758827 0.796007 0.247387
H30   H     H_    0.283475 0.379382 0.233197 0.210766
H31   H     H_    0.663512 0.241174 0.796007 0.247365
H32   H     H_    0.716527 0.620620 0.233193 0.210743
H33   H     H_    0.285309 0.380341 0.749278 0.188439
H34   H     H_    0.360690 0.730130 0.216908 0.219582
H35   H     H_    0.714692 0.619658 0.749281 0.188438
H36   H     H_    0.639316 0.269860 0.216902 0.219577
H37   H     H_    0.733735 0.342521 0.211431 0.209354
H38   H     H_    0.632800 0.706100 0.760067 0.199562
H39   H     H_    0.266280 0.657455 0.211439 0.209316
H40   H     H_    0.367201 0.293900 0.760064 0.199571
H41   H     H_    0.785309 0.880342 0.249294 0.188445
H42   H     H_    0.860706 0.230115 0.716920 0.219583
H43   H     H_    0.214690 0.119658 0.249292 0.188447
H44   H     H_    0.139291 0.769892 0.716923 0.219592
H45   H     H_    0.233689 0.842588 0.711455 0.209258
H46   H     H_    0.132800 0.206103 0.260075 0.199587
H47   H     H_    0.766297 0.157439 0.711448 0.209325
H48   H     H_    0.867198 0.793897 0.260077 0.199577
H49   H     H_    0.092901 0.571797 0.930294 0.196371
H50   H     H_    0.567362 0.903758 0.069533 0.196541
H51   H     H_    0.907099 0.428204 0.930294 0.196372
H52   H     H_    0.432639 0.096241 0.069533 0.196541
H53   H     H_    0.902212 0.564840 0.069461 0.195326
H54   H     H_    0.430422 0.905341 0.930372 0.195765
H55   H     H_    0.097787 0.435162 0.069461 0.195326
H56   H     H_    0.569578 0.094659 0.930372 0.195766
H57   H     H_    0.592901 0.071796 0.430294 0.196373
H58   H     H_    0.067347 0.403749 0.569533 0.196541
H59   H     H_    0.407100 0.928201 0.430293 0.196372
H60   H     H_    0.932651 0.596251 0.569533 0.196541
H61   H     H_    0.402205 0.064826 0.569460 0.195327
H62   H     H_    0.930418 0.405343 0.430372 0.195767
H63   H     H_    0.597795 0.935171 0.569461 0.195326
H64   H     H_    0.069581 0.594657 0.430372 0.195767
N1    N     N_R   0.936238 0.497423 0.984372 -0.137439
N2    N     N_R   0.500513 0.063981 0.015472 -0.137811
N3    N     N_R   0.063761 0.502579 0.984372 -0.137439
N4    N     N_R   0.499488 0.936019 0.015472 -0.137810
N5    N     N_R   0.063778 0.502124 0.015406 -0.138120
N6    N     N_R   0.500969 0.063975 0.984439 -0.137274
N7    N     N_R   0.936221 0.497878 0.015406 -0.138120
N8    N     N_R   0.499031 0.936024 0.984438 -0.137274
N9    N     N_R   0.436239 0.997416 0.484372 -0.137440
N10   N     N_R   0.000517 0.563981 0.515472 -0.137811
N11   N     N_R   0.563762 0.002580 0.484372 -0.137439
N12   N     N_R   0.999481 0.436019 0.515472 -0.137811
N13   N     N_R   0.563778 0.002125 0.515405 -0.138120
N14   N     N_R   0.000974 0.563976 0.484438 -0.137274
N15   N     N_R   0.436222 0.997871 0.515405 -0.138121
N16   N     N_R   0.999025 0.436025 0.484438 -0.137274
O1    O     O_3   1.000000 0.500000 0.750000 -0.544748
O2    O     O_3   0.500000 0.000000 0.250000 -0.544748
O3    O     O_3   0.000000 0.500000 0.250000 -0.545628
O4    O     O_3   0.500000 0.000000 0.750000 -0.545631
O5    O     O_R   0.000020 0.438710 0.680680 -0.596304
O6    O     O_R   0.438710 0.999980 0.319320 -0.594655
O7    O     O_R   0.999980 0.561290 0.680680 -0.596301
O8    O     O_R   0.561290 0.000020 0.319320 -0.594653
O9    O     O_R   0.999980 0.438710 0.319320 -0.591699
O10   O     O_R   0.561290 0.999980 0.680680 -0.591908
O11   O     O_R   0.000020 0.561290 0.319320 -0.591698
O12   O     O_R   0.438710 0.000020 0.680680 -0.591921
O13   O     O_R   0.500020 0.938710 0.180680 -0.596308
O14   O     O_R   0.938710 0.499980 0.819320 -0.594656
O15   O     O_R   0.499980 0.061290 0.180680 -0.596310
O16   O     O_R   0.061290 0.500020 0.819320 -0.594657
O17   O     O_R   0.499980 0.938710 0.819320 -0.591689
O18   O     O_R   0.061290 0.499980 0.180680 -0.591916
O19   O     O_R   0.500020 0.061290 0.819320 -0.591690
O20   O     O_R   0.938710 0.500020 0.180680 -0.591913
O21   O     O_R   0.086240 0.647480 0.731820 -0.613385
O22   O     O_R   0.647480 0.913760 0.268180 -0.601379
O23   O     O_R   0.913760 0.352520 0.731820 -0.613383
O24   O     O_R   0.352520 0.086240 0.268180 -0.601380
O25   O     O_R   0.913760 0.647480 0.268180 -0.600359
O26   O     O_R   0.352520 0.913760 0.731820 -0.624221
O27   O     O_R   0.086240 0.352520 0.268180 -0.600350
O28   O     O_R   0.647480 0.086240 0.731820 -0.624254
O29   O     O_R   0.586240 0.147480 0.231820 -0.613382
O30   O     O_R   0.147480 0.413760 0.768180 -0.601375
O31   O     O_R   0.413760 0.852520 0.231820 -0.613385
O32   O     O_R   0.852520 0.586240 0.768180 -0.601373
O33   O     O_R   0.413760 0.147480 0.768180 -0.600366
O34   O     O_R   0.852520 0.413760 0.231820 -0.624273
O35   O     O_R   0.586240 0.852520 0.768180 -0.600376
O36   O     O_R   0.147480 0.586240 0.231820 -0.624252
O37   O     O_R   0.852520 0.413810 0.768170 -0.583125
O38   O     O_R   0.413810 0.147480 0.231830 -0.608492
O39   O     O_R   0.147480 0.586190 0.768170 -0.583120
O40   O     O_R   0.586190 0.852520 0.231830 -0.608495
O41   O     O_R   0.147480 0.413810 0.231830 -0.613526
O42   O     O_R   0.586190 0.147480 0.768170 -0.625808
O43   O     O_R   0.852520 0.586190 0.231830 -0.613532
O44   O     O_R   0.413810 0.852520 0.768170 -0.625829
O45   O     O_R   0.352520 0.913810 0.268170 -0.583119
O46   O     O_R   0.913810 0.647480 0.731830 -0.608503
O47   O     O_R   0.647480 0.086190 0.268170 -0.583121
O48   O     O_R   0.086190 0.352520 0.731830 -0.608504
O49   O     O_R   0.647480 0.913810 0.731830 -0.613516
O50   O     O_R   0.086190 0.647480 0.268170 -0.625802
O51   O     O_R   0.352520 0.086190 0.731830 -0.613504
O52   O     O_R   0.913810 0.352520 0.268170 -0.625790
Zn1   Zn    Zn3+2 0.087550 0.500010 0.775970 1.091650
Zn2   Zn    Zn3+2 0.500010 0.912450 0.224030 1.084840
Zn3   Zn    Zn3+2 0.912450 0.499990 0.775970 1.091648
Zn4   Zn    Zn3+2 0.499990 0.087550 0.224030 1.084839
Zn5   Zn    Zn3+2 0.912450 0.500010 0.224030 1.105352
Zn6   Zn    Zn3+2 0.499990 0.912450 0.775970 1.111354
Zn7   Zn    Zn3+2 0.087550 0.499990 0.224030 1.105360
Zn8   Zn    Zn3+2 0.500010 0.087550 0.775970 1.111360
Zn9   Zn    Zn3+2 0.587550 0.000010 0.275970 1.091644
Zn10  Zn    Zn3+2 0.000010 0.412450 0.724030 1.084846
Zn11  Zn    Zn3+2 0.412450 0.999990 0.275970 1.091645
Zn12  Zn    Zn3+2 0.999990 0.587550 0.724030 1.084847
Zn13  Zn    Zn3+2 0.412450 0.000010 0.724030 1.105371
Zn14  Zn    Zn3+2 0.999990 0.412450 0.275970 1.111344
Zn15  Zn    Zn3+2 0.587550 0.999990 0.724030 1.105362
Zn16  Zn    Zn3+2 0.000010 0.587550 0.275970 1.111339
C145  C     C_2   0.255491 0.356827 0.703256 0.961582
O53   O     O_2   0.246399 0.313462 0.681880 -0.561122
O54   O     O_R   0.254490 0.431957 0.697201 -0.770069
H65   H     H_    0.245402 0.443461 0.674393 0.384875
C146  C     C_2   0.398169 0.702326 0.261299 0.951014
O55   O     O_2   0.388648 0.689723 0.289012 -0.605314
O56   O     O_R   0.467026 0.691446 0.248059 -0.746614
H66   H     H_    0.503001 0.669436 0.263353 0.375881
C147  C     C_2   0.744506 0.643168 0.703258 0.961584
O57   O     O_2   0.753594 0.686531 0.681881 -0.561126
O58   O     O_R   0.745510 0.568038 0.697203 -0.770068
H67   H     H_    0.754596 0.556531 0.674396 0.384873
C148  C     C_2   0.601833 0.297681 0.261290 0.950953
O59   O     O_2   0.611352 0.310298 0.289002 -0.605256
O60   O     O_R   0.532977 0.308555 0.248049 -0.746654
H68   H     H_    0.497000 0.330565 0.263341 0.375867
C149  C     C_2   0.702920 0.408562 0.248927 0.967113
O61   O     O_2   0.727665 0.433541 0.273187 -0.598845
O62   O     O_R   0.651942 0.448923 0.231817 -0.759055
H69   H     H_    0.640218 0.497785 0.241816 0.353308
C150  C     C_2   0.617810 0.727475 0.712375 1.011425
O63   O     O_2   0.610280 0.782472 0.696464 -0.572132
O64   O     O_R   0.581739 0.663013 0.703920 -0.721688
H70   H     H_    0.551327 0.668945 0.684321 0.394510
C151  C     C_2   0.297087 0.591438 0.248945 0.967073
O65   O     O_2   0.272273 0.566435 0.273187 -0.598878
O66   O     O_R   0.348146 0.551112 0.231864 -0.759062
H71   H     H_    0.359858 0.502252 0.241867 0.353320
C152  C     C_2   0.382186 0.272519 0.712372 1.011428
O67   O     O_2   0.389711 0.217521 0.696462 -0.572137
O68   O     O_R   0.418261 0.336978 0.703917 -0.721682
H72   H     H_    0.448674 0.331043 0.684319 0.394502
C153  C     C_2   0.755512 0.856855 0.203267 0.961583
O69   O     O_2   0.746436 0.813502 0.181885 -0.561135
O70   O     O_R   0.754503 0.931988 0.197220 -0.770047
H73   H     H_    0.745424 0.943505 0.174413 0.384874
C154  C     C_2   0.898162 0.202332 0.761317 0.950984
O71   O     O_2   0.888625 0.189739 0.789029 -0.605279
O72   O     O_R   0.967026 0.191450 0.748085 -0.746642
H74   H     H_    0.002994 0.169451 0.763385 0.375876
C155  C     C_2   0.244490 0.143149 0.203265 0.961580
O73   O     O_2   0.253568 0.186503 0.181884 -0.561131
O74   O     O_R   0.245497 0.068016 0.197217 -0.770057
H75   H     H_    0.254577 0.056501 0.174410 0.384876
C156  C     C_2   0.101832 0.797659 0.761321 0.951102
O75   O     O_2   0.111367 0.810246 0.789034 -0.605387
O76   O     O_R   0.032967 0.808541 0.748089 -0.746565
H76   H     H_    0.996999 0.830541 0.763388 0.375891
C157  C     C_2   0.202903 0.908561 0.748978 0.967027
O77   O     O_2   0.227829 0.933598 0.773194 -0.598912
O78   O     O_R   0.151713 0.948834 0.731946 -0.759071
H77   H     H_    0.140016 0.997691 0.741956 0.353344
C158  C     C_2   0.117799 0.227464 0.212382 1.011484
O79   O     O_2   0.110266 0.282457 0.196469 -0.572152
O80   O     O_R   0.081724 0.163001 0.203933 -0.721657
H78   H     H_    0.051302 0.168930 0.184336 0.394502
C159  C     C_2   0.797084 0.091438 0.748961 0.967066
O81   O     O_2   0.772270 0.066454 0.773207 -0.598844
O82   O     O_R   0.848138 0.051097 0.731885 -0.759061
H79   H     H_    0.859849 0.002243 0.741893 0.353321
C160  C     C_2   0.882202 0.772540 0.212384 1.011480
O83   O     O_2   0.889739 0.717548 0.196471 -0.572145
O84   O     O_R   0.918274 0.837005 0.203935 -0.721668
H80   H     H_    0.948695 0.831079 0.184338 0.394508
Br1   Br    Br    0.258312 0.360207 0.809792 -0.339639
Br2   Br    Br    0.284015 0.823908 0.182616 -0.372445
Br3   Br    Br    0.741690 0.639801 0.809793 -0.339649
Br4   Br    Br    0.716006 0.176076 0.182618 -0.372460
Br5   Br    Br    0.855738 0.276954 0.186418 -0.344233
Br6   Br    Br    0.655754 0.784480 0.819036 -0.296007
Br7   Br    Br    0.144289 0.723023 0.186413 -0.344225
Br8   Br    Br    0.344257 0.215534 0.819035 -0.296004
Br9   Br    Br    0.758277 0.860174 0.309803 -0.339656
Br10  Br    Br    0.784047 0.323877 0.682612 -0.372418
Br11  Br    Br    0.241721 0.139821 0.309802 -0.339646
Br12  Br    Br    0.215938 0.676129 0.682612 -0.372405
Br13  Br    Br    0.355656 0.777024 0.686402 -0.344215
Br14  Br    Br    0.155768 0.284492 0.319037 -0.296012
Br15  Br    Br    0.644320 0.222994 0.686405 -0.344208
Br16  Br    Br    0.844225 0.715498 0.319038 -0.296015
C161  C     C_2   0.145849 0.261157 0.807003 0.975967
O85   O     O_2   0.152878 0.244583 0.834511 -0.522879
O86   O     O_R   0.075712 0.267309 0.794445 -0.836978
H81   H     H_    0.036022 0.257204 0.810349 0.368370
C162  C     C_2   0.207192 0.900127 0.226943 0.971952
O87   O     O_2   0.166994 0.922653 0.206241 -0.505303
O88   O     O_R   0.220394 0.944779 0.252764 -0.756190
H82   H     H_    0.192999 0.992838 0.251725 0.375482
C163  C     C_2   0.854155 0.738848 0.807002 0.975985
O89   O     O_2   0.847126 0.755428 0.834509 -0.522871
O90   O     O_R   0.924291 0.732687 0.794444 -0.836984
H83   H     H_    0.963982 0.742791 0.810348 0.368371
C164  C     C_2   0.792815 0.099864 0.226952 0.971958
O91   O     O_2   0.833017 0.077333 0.206253 -0.505298
O92   O     O_R   0.779608 0.055220 0.252775 -0.756176
H84   H     H_    0.807003 0.007160 0.251739 0.375476
C165  C     C_2   0.897761 0.204505 0.241850 0.936255
O93   O     O_2   0.956962 0.220781 0.230763 -0.569249
O94   O     O_R   0.895907 0.158493 0.267928 -0.806439
H85   H     H_    0.946260 0.142045 0.274780 0.379818
C166  C     C_2   0.770085 0.868093 0.794749 0.916693
O95   O     O_2   0.733778 0.918133 0.805689 -0.542699
O96   O     O_R   0.843906 0.880620 0.788343 -0.836938
H86   H     H_    0.860554 0.931367 0.794702 0.379151
C167  C     C_2   0.102242 0.795488 0.241838 0.936232
O97   O     O_2   0.043047 0.779208 0.230746 -0.569258
O98   O     O_R   0.104086 0.841505 0.267914 -0.806439
H87   H     H_    0.053730 0.857954 0.274761 0.379815
C168  C     C_2   0.229923 0.131914 0.794755 0.916727
O99   O     O_2   0.266230 0.081880 0.805699 -0.542658
O100  O     O_R   0.156103 0.119382 0.788348 -0.836947
H88   H     H_    0.139455 0.068639 0.794714 0.379110
C169  C     C_2   0.645819 0.761121 0.306993 0.975934
O101  O     O_2   0.652835 0.744528 0.334499 -0.522865
O102  O     O_R   0.575689 0.767283 0.294429 -0.836972
H89   H     H_    0.535991 0.757168 0.310328 0.368386
C170  C     C_2   0.707205 0.400117 0.726926 0.971932
O103  O     O_2   0.667015 0.422634 0.706220 -0.505308
O104  O     O_R   0.720402 0.444782 0.752743 -0.756216
H90   H     H_    0.693007 0.492840 0.751699 0.375486
C171  C     C_2   0.354178 0.238876 0.306994 0.975929
O105  O     O_2   0.347163 0.255462 0.334501 -0.522868
O106  O     O_R   0.424309 0.232722 0.294429 -0.836971
H91   H     H_    0.464007 0.242839 0.310327 0.368387
C172  C     C_2   0.292791 0.599889 0.726923 0.971916
O107  O     O_2   0.332979 0.577375 0.706215 -0.505309
O108  O     O_R   0.279597 0.555221 0.752739 -0.756225
H92   H     H_    0.306993 0.507163 0.751693 0.375488
C173  C     C_2   0.397750 0.704523 0.741812 0.936194
O109  O     O_2   0.456936 0.720802 0.730710 -0.569261
O110  O     O_R   0.395930 0.658496 0.767885 -0.806442
H93   H     H_    0.446292 0.642043 0.774722 0.379814
C174  C     C_2   0.270093 0.368106 0.294743 0.916720
O111  O     O_2   0.233793 0.418140 0.305692 -0.542662
O112  O     O_R   0.343905 0.380643 0.288322 -0.836947
H94   H     H_    0.360555 0.431391 0.294681 0.379164
C175  C     C_2   0.602245 0.295484 0.741820 0.936218
O113  O     O_2   0.543055 0.279200 0.730724 -0.569259
O114  O     O_R   0.604075 0.341515 0.767892 -0.806444
H95   H     H_    0.553716 0.357968 0.774733 0.379817
C176  C     C_2   0.729902 0.631889 0.294739 0.916713
O115  O     O_2   0.766201 0.581853 0.305687 -0.542687
O116  O     O_R   0.656090 0.619354 0.288318 -0.836943
H96   H     H_    0.639440 0.568604 0.294671 0.379194
Br17  Br    Br    0.122640 0.604043 0.865317 -0.399186
Br18  Br    Br    0.598290 0.872326 0.134333 -0.376642
Br19  Br    Br    0.877360 0.395957 0.865317 -0.399188
Br20  Br    Br    0.401710 0.127674 0.134333 -0.376644
Br21  Br    Br    0.869823 0.595083 0.134126 -0.332358
Br22  Br    Br    0.398799 0.874774 0.865460 -0.380536
Br23  Br    Br    0.130177 0.404918 0.134126 -0.332369
Br24  Br    Br    0.601200 0.125226 0.865460 -0.380536
Br25  Br    Br    0.622639 0.104043 0.365317 -0.399192
Br26  Br    Br    0.098271 0.372311 0.634332 -0.376637
Br27  Br    Br    0.377361 0.895955 0.365316 -0.399188
Br28  Br    Br    0.901727 0.627688 0.634332 -0.376635
Br29  Br    Br    0.369810 0.095066 0.634125 -0.332369
Br30  Br    Br    0.898796 0.374777 0.365460 -0.380562
Br31  Br    Br    0.630189 0.904932 0.634125 -0.332348
Br32  Br    Br    0.101204 0.625223 0.365460 -0.380554

loop_
_geom_bond_atom_site_label_1
_geom_bond_atom_site_label_2
_ccdc_geom_bond_type
O112  H94   S    
O3    Zn14  S    
C146  O56   S    
C174  O111  D    
O2    Zn9   S    
O8    Zn9   S    
C117  C133  A    
C156  O75   D    
C147  O57   D    
C6    O14   A    
O41   Zn7   S    
O26   Zn13  S    
C49   H9    S    
C37   O33   A    
C167  O98   S    
C165  O94   S    
C8    O20   A    
C82   C87   S    
O2    Zn2   S    
C172  O108  S    
O33   Zn8   S    
O47   Zn9   S    
C19   N9    A    
C46   H22   S    
C80   Br8   S    
C111  Br23  S    
C130  H58   S    
C154  O71   D    
C60   C92   S    
C19   C141  S    
C33   O47   A    
C132  C142  A    
C114  C130  A    
C34   O48   A    
C79   C167  S    
C108  C124  A    
C160  O84   S    
C67   H43   S    
C118  Br30  S    
C63   H39   S    
O68   H72   S    
C84   C100  S    
C33   C92   S    
C51   H27   S    
C105  Br17  S    
C155  O73   D    
C37   C96   S    
C39   C94   S    
O29   Zn4   S    
C27   O23   A    
C1    O7    A    
C25   C100  S    
O58   H67   S    
O15   Zn4   S    
C7    O17   A    
C31   O27   A    
C59   C91   S    
O10   Zn15  S    
O2    Zn11  S    
C13   C115  A    
C57   C89   S    
C87   C103  S    
C36   C91   S    
C74   C79   S    
C66   H42   S    
C163  O89   D    
O7    Zn12  S    
C21   C139  S    
C40   C95   S    
O90   H83   S    
C70   H46   S    
O42   Zn8   S    
C87   Br15  S    
C48   C96   S    
C82   C170  S    
C4    O10   A    
O86   H81   S    
C69   C101  S    
C166  O95   D    
C74   Br2   S    
O28   Zn15  S    
C54   H30   S    
N2    N6    A    
C169  O101  D    
C3    O9    A    
C74   C90   S    
C77   C165  S    
C78   C94   S    
C59   H35   S    
O34   Zn5   S    
C87   C175  S    
C81   C88   S    
C17   N13   A    
C49   C97   S    
O74   H75   S    
C83   C86   S    
C152  O67   D    
C36   O32   A    
C36   O46   A    
O49   Zn15  S    
C170  O103  D    
O50   Zn16  S    
C26   O22   A    
C164  O92   S    
N9    N15   A    
C41   C89   S    
C173  O109  D    
C63   C95   S    
C76   C164  S    
C10   C108  A    
O108  H92   S    
C45   C93   S    
C52   H28   S    
C6    C9    S    
C12   C110  A    
C168  O99   D    
C40   O36   A    
C53   H29   S    
C175  O113  D    
C51   H11   S    
N1    N7    A    
C56   H32   S    
C80   C168  S    
C81   Br9   S    
C16   C120  A    
O30   Zn1   S    
C83   Br11  S    
C150  O64   S    
N11   N13   A    
C9    C105  A    
O98   H87   S    
C121  C137  A    
C153  O70   S    
C60   C148  S    
C148  O60   S    
C46   C94   S    
O6    Zn11  S    
O11   Zn16  S    
O4    Zn13  S    
C8    O18   A    
C113  Br25  S    
O12   Zn13  S    
C131  C141  A    
C75   C91   S    
C86   Br14  S    
C3    O11   A    
C64   C152  S    
C126  H54   S    
C135  C143  A    
C35   O31   A    
C4    O12   A    
C124  H52   S    
C65   C153  S    
C38   O34   A    
C88   C104  S    
C155  O74   S    
C157  O78   S    
C7    C12   S    
C50   C98   S    
C64   C96   S    
C52   C100  S    
C29   C104  S    
C42   C90   S    
C29   O25   A    
C68   C100  S    
C145  O53   D    
C17   N15   A    
O19   Zn8   S    
C86   C174  S    
O114  H95   S    
C116  C132  A    
C106  C122  A    
C58   H34   S    
C84   Br12  S    
C120  Br32  S    
C110  C126  A    
C68   C156  S    
C82   Br10  S    
C28   C99   S    
O5    Zn10  S    
C21   N5    A    
C10   C106  A    
C86   C102  S    
C12   C112  A    
C18   N16   A    
C52   C53   S    
C135  H63   S    
C71   C103  S    
C106  Br18  S    
N3    N5    A    
C127  H55   S    
O24   Zn11  S    
C42   H18   S    
C9    C107  A    
C65   C72   S    
C123  C137  A    
C34   O30   A    
C67   C70   S    
O1    Zn10  S    
C66   C98   S    
C128  C140  A    
C34   C89   S    
C167  O97   D    
C57   H33   S    
C38   C93   S    
C77   Br5   S    
C15   C119  A    
O1    Zn12  S    
O4    Zn15  S    
C130  C142  A    
C162  O88   S    
C73   C161  S    
C2    O6    A    
C26   C97   S    
C134  C144  A    
C64   H40   S    
C68   H44   S    
C171  O106  S    
O1    Zn1   S    
C1    C14   S    
C109  Br21  S    
C66   C154  S    
C72   H48   S    
C3    C16   S    
C107  Br19  S    
C59   C147  S    
C88   Br16  S    
C43   C46   S    
C171  O105  D    
C41   H17   S    
C31   O41   A    
C82   C98   S    
O32   Zn3   S    
C107  C123  A    
O17   Zn6   S    
O62   H69   S    
C160  O83   D    
O88   H82   S    
O20   Zn5   S    
C159  O81   D    
C5    O13   A    
C124  C138  A    
C35   O45   A    
C161  O86   S    
C61   C93   S    
C134  H62   S    
C129  C141  A    
C22   C140  S    
C28   O24   A    
C151  O66   S    
C20   C142  S    
O82   H79   S    
C53   C101  S    
C68   C69   S    
C176  O116  S    
C112  Br24  S    
C21   N7    A    
C158  O80   S    
C131  H59   S    
C67   C99   S    
C78   Br6   S    
C85   C173  S    
C39   O49   A    
C55   H15   S    
O64   H70   S    
C83   C99   S    
C174  O112  S    
C123  H51   S    
O23   Zn10  S    
O3    Zn5   S    
C121  H49   S    
C156  O76   S    
C23   C137  S    
C119  Br31  S    
C147  O58   S    
C132  H60   S    
C117  Br29  S    
C79   Br7   S    
O60   H68   S    
C31   C102  S    
C25   O21   A    
C84   C85   S    
C56   C104  S    
O54   H65   S    
C136  H64   S    
C24   N2    A    
C72   C104  S    
C149  O61   D    
C11   C111  A    
C119  C135  A    
C84   C172  S    
C15   C117  A    
O3    Zn7   S    
C60   C61   S    
C120  C136  A    
C170  O104  S    
O72   H74   S    
C128  H56   S    
C66   C71   S    
C79   C95   S    
C114  Br26  S    
C62   H38   S    
O76   H76   S    
C67   C155  S    
O38   Zn4   S    
O1    Zn3   S    
C32   C103  S    
C88   C176  S    
C50   H26   S    
C58   C90   S    
C122  C138  A    
C39   O35   A    
C47   H7    S    
C62   C94   S    
O31   Zn2   S    
C29   O43   A    
C30   O44   A    
C42   H2    S    
O18   Zn7   S    
O80   H78   S    
O36   Zn7   S    
C44   C45   S    
C164  O91   D    
O4    Zn6   S    
C5    O15   A    
C63   C151  S    
C18   C144  S    
C20   N10   A    
C54   C102  S    
O35   Zn6   S    
C122  H50   S    
O96   H86   S    
C70   C102  S    
C60   H36   S    
C61   H37   S    
C17   C143  S    
C115  Br27  S    
C73   Br1   S    
O13   Zn2   S    
C116  Br28  S    
C73   C89   S    
O70   H73   S    
C136  C144  A    
C14   C114  A    
C49   H25   S    
C150  O63   D    
C23   N3    A    
C62   C150  S    
C28   O38   A    
C30   C101  S    
C33   O29   A    
C153  O69   D    
C18   N14   A    
C112  C128  A    
C108  Br20  S    
C65   C97   S    
O66   H71   S    
C35   C90   S    
C41   H1    S    
C56   H16   S    
C148  O59   D    
O44   Zn6   S    
O104  H90   S    
C163  O90   S    
O27   Zn14  S    
C44   H20   S    
C45   H21   S    
C43   H19   S    
C75   Br3   S    
O78   H77   S    
C27   C98   S    
C22   N8    A    
C11   C109  A    
C146  O55   D    
O100  H88   S    
C83   C171  S    
O56   H66   S    
C172  O107  D    
C24   N4    A    
O94   H85   S    
C115  C131  A    
C157  O77   D    
C125  C139  A    
C166  O96   S    
C126  C140  A    
C113  C129  A    
C16   C118  A    
C169  O102  S    
C25   O39   A    
C70   C158  S    
C26   O40   A    
O43   Zn5   S    
O48   Zn10  S    
C27   O37   A    
C78   C166  S    
C55   C103  S    
C69   C157  S    
C2    C13   S    
C110  Br22  S    
C41   C48   S    
O84   H80   S    
C152  O68   S    
O37   Zn3   S    
O40   Zn2   S    
O102  H89   S    
C32   O42   A    
C71   C159  S    
C80   C96   S    
C72   C160  S    
O52   Zn14  S    
O4    Zn8   S    
C85   Br13  S    
C125  H53   S    
C159  O82   S    
O21   Zn12  S    
C20   N12   A    
C127  C139  A    
C81   C169  S    
C168  O100  S    
N10   N14   A    
C175  O114  S    
C51   C99   S    
C65   H41   S    
C133  C143  A    
O3    Zn16  S    
N4    N8    A    
C74   C162  S    
C43   H3    S    
C76   C77   S    
O14   Zn3   S    
O51   Zn13  S    
C69   H45   S    
O110  H93   S    
C23   N1    A    
C24   C138  S    
O39   Zn1   S    
O25   Zn16  S    
C6    O16   A    
C43   C91   S    
C30   O26   A    
C76   Br4   S    
C54   H14   S    
C47   H23   S    
C61   C149  S    
O106  H91   S    
C48   H24   S    
C40   O50   A    
C154  O72   S    
C105  C121  A    
O2    Zn4   S    
C55   H31   S    
C162  O87   D    
C133  H61   S    
C76   C92   S    
C109  C125  A    
C46   H6    S    
C44   C92   S    
C22   N6    A    
C111  C127  A    
C19   N11   A    
N12   N16   A    
C58   C146  S    
C85   C101  S    
C77   C93   S    
C57   C64   S    
C58   C63   S    
C59   C62   S    
O9    Zn14  S    
O45   Zn11  S    
O46   Zn12  S    
C118  C134  A    
C2    O8    A    
C52   H12   S    
C49   C56   S    
C32   O28   A    
C53   H13   S    
C50   C55   S    
C51   C54   S    
C71   H47   S    
C4    C15   S    
C48   H8    S    
C129  H57   S    
C5    C10   S    
C145  O54   S    
C161  O85   D    
C37   O51   A    
C38   O52   A    
C165  O93   D    
C149  O62   S    
C81   C97   S    
C50   H10   S    
C8    C11   S    
C14   C116  A    
C44   H4    S    
C73   C80   S    
C45   H5    S    
C42   C47   S    
C151  O65   D    
C75   C78   S    
C57   C145  S    
O116  H96   S    
C1    O5    A    
C173  O110  S    
C176  O115  D    
C7    O19   A    
C47   C95   S    
O16   Zn1   S    
O22   Zn9   S    
C158  O79   D    
C13   C113  A    
O92   H84   S    
C75   C163  S    
