data_mof_unit_21975.cif
_audit_creation_date              2012-10-26T17:13:04-0400
_audit_creation_method            fapswitch 2.2
_symmetry_space_group_name_H-M    P1
_symmetry_Int_Tables_number       1
_space_group_crystal_system       triclinic
_cell_length_a                    16.781123
_cell_length_b                    16.798099
_cell_length_c                    16.774671
_cell_angle_alpha                 67.951344
_cell_angle_beta                  67.948444
_cell_angle_gamma                 68.080545
_cell_volume                      3910.76117506

loop_
_atom_site_label
_atom_site_type_symbol
_atom_type_description
_atom_site_fract_x
_atom_site_fract_y
_atom_site_fract_z
_atom_type_partial_charge
C1    C     C_R   0.305384 0.021179 0.426992 -0.044884
C2    C     C_R   0.326570 0.456911 0.939079 -0.021589
C3    C     C_R   0.542701 0.417866 0.982133 -0.074809
C4    C     C_R   0.965083 0.479562 0.594185 -0.072602
C5    C     C_R   0.033755 0.520264 0.406587 -0.073738
C6    C     C_3   0.301883 0.834697 0.297342 -0.010237
C7    C     C_3   0.772046 0.883144 0.747056 -0.111074
C8    C     C_3   0.839193 0.294196 0.288447 0.023205
C9    C     C_3   0.159950 0.713547 0.704778 -0.006222
C10   C     C_3   0.272672 0.289147 0.844336 -0.001608
C11   C     C_3   0.795356 0.784726 0.951314 -0.010767
C12   C     C_R   0.046020 0.675975 0.549194 -0.039872
C13   C     C_R   0.952714 0.324043 0.451331 -0.026348
C14   C     C_R   0.444317 0.024880 0.440240 0.026630
C15   C     C_R   0.535991 0.055539 0.532253 0.025702
C16   C     C_R   0.993398 0.449328 0.452816 0.031455
C17   C     C_R   0.005455 0.550499 0.547926 0.026098
C18   C     C_R   0.461097 0.462497 0.960002 0.029930
C19   C     C_R   0.554309 0.556305 0.985999 0.031488
C20   C     C_R   0.029524 0.828199 0.564052 0.542121
C21   C     C_R   0.675436 0.060643 0.542094 -0.051585
C22   C     C_R   0.969939 0.171833 0.436133 0.587906
C23   C     C_R   0.828591 0.565492 0.025992 0.574136
C24   C     C_R   0.172208 0.436392 0.969120 0.575088
C25   C     C_R   0.564683 0.027590 0.828054 0.581450
C26   C     C_R   0.435268 0.972867 0.171864 0.548485
C27   C     C_R   0.435531 0.171902 0.971248 0.555150
C28   C     C_R   0.570391 0.832920 0.011056 0.559984
C29   C     C_R   0.984665 0.430481 0.169102 0.575276
C30   C     C_R   0.015055 0.569584 0.831017 0.558731
C31   C     C_R   0.168899 0.985172 0.430672 0.567115
C32   C     C_R   0.012322 0.426079 0.310416 -0.040019
C33   C     C_R   0.828496 0.027846 0.564413 0.558862
C34   C     C_R   0.399197 0.006194 0.395679 -0.085171
C35   C     C_R   0.584749 0.060713 0.582184 -0.087017
C36   C     C_R   0.985783 0.400038 0.404945 -0.080263
C37   C     C_R   0.013024 0.599930 0.595694 -0.089166
C38   C     C_R   0.413153 0.413870 0.951179 -0.077868
C39   C     C_R   0.601639 0.602967 0.998471 -0.078631
C40   C     C_R   0.262938 0.989376 0.389626 -0.005038
C41   C     C_R   0.729749 0.043597 0.597923 -0.003775
C42   C     C_R   0.985540 0.388677 0.264160 -0.000511
C43   C     C_R   0.986621 0.573951 0.690188 -0.048759
C44   C     C_R   0.013599 0.611496 0.736200 -0.011563
C45   C     C_R   0.402490 0.271514 0.952287 -0.007737
C46   C     C_R   0.613722 0.741496 0.002040 -0.018660
C47   C     C_R   0.598501 0.043780 0.728543 0.014117
C48   C     C_R   0.400187 0.964250 0.270045 -0.009650
C49   C     C_R   0.732166 0.604731 0.030210 0.013801
C50   C     C_R   0.272558 0.403794 0.947720 -0.005982
C51   C     C_R   0.043251 0.729616 0.599249 -0.010305
C52   C     C_R   0.955706 0.270460 0.401079 -0.000667
C53   C     C_R   0.447580 0.092019 0.698216 0.439105
C54   C     C_R   0.453787 0.323179 0.951783 -0.053093
C55   C     C_R   0.542376 0.956784 0.292375 0.431113
C56   C     C_R   0.083764 0.693453 0.455619 0.419165
C57   C     C_R   0.914807 0.306521 0.544957 0.447930
C58   C     C_R   0.701191 0.461219 0.056386 0.447841
C59   C     C_R   0.300212 0.551758 0.913280 0.438852
C60   C     C_R   0.258373 0.067394 0.494345 0.421850
C61   C     C_R   0.708913 0.070136 0.448617 0.422025
C62   C     C_R   0.545445 0.288734 0.950381 0.437355
C63   C     C_R   0.504249 0.742474 0.933367 0.419029
C64   C     C_R   0.064054 0.488214 0.266334 0.426139
C65   C     C_R   0.572548 0.696838 0.978030 -0.048312
C66   C     C_R   0.934955 0.511677 0.734412 0.418082
C67   C     C_R   0.312002 0.958896 0.312639 0.202613
C68   C     C_R   0.691851 0.023417 0.691247 0.246242
C69   C     C_R   0.956461 0.310649 0.310992 0.191251
C70   C     C_R   0.042768 0.689466 0.689257 0.185714
C71   C     C_R   0.314283 0.314226 0.944522 0.201389
C72   C     C_R   0.697223 0.697148 0.019962 0.201931
C73   C     C_R   0.668536 0.044140 0.406658 -0.029186
C74   C     C_R   0.303604 0.075761 0.545355 -0.021451
C75   C     C_R   0.927434 0.461697 0.687637 -0.024262
C76   C     C_R   0.542773 0.066213 0.671368 -0.029658
C77   C     C_R   0.071333 0.538240 0.313125 -0.024596
C78   C     C_R   0.452062 0.696436 0.928627 -0.018360
C79   C     C_R   0.583420 0.328777 0.980811 -0.025377
C80   C     C_R   0.584647 0.987831 0.328116 -0.031097
C81   C     C_R   0.398179 0.089775 0.646932 -0.007358
C82   C     C_R   0.350081 0.600905 0.917741 -0.002399
C83   C     C_R   0.662385 0.415991 0.032251 -0.003255
C84   C     C_R   0.917874 0.358402 0.592763 -0.015184
C85   C     C_R   0.080667 0.641586 0.407910 -0.022678
C86   C     C_R   0.714444 0.022723 0.324813 0.441034
C87   C     C_R   0.447943 0.974743 0.318670 -0.046063
C88   C     C_R   0.257330 0.106554 0.622418 0.443725
C89   C     C_R   0.883495 0.393605 0.732525 0.439865
C90   C     C_R   0.114839 0.606613 0.268159 0.440861
C91   C     C_R   0.375994 0.742076 0.896388 0.445909
C92   C     C_R   0.662767 0.282633 0.006808 0.472068
C93   C     C_R   0.674361 0.990302 0.288287 0.447081
C94   C     C_R   0.304035 0.111496 0.673683 0.447451
C95   C     C_R   0.324635 0.694960 0.892717 0.448877
C96   C     C_R   0.699309 0.324597 0.036961 0.478700
C97   C     C_R   0.879404 0.342239 0.685889 0.461809
C98   C     C_R   0.678766 0.555666 0.029852 -0.020984
C99   C     C_R   0.118747 0.658057 0.314748 0.436267
C100  C     C_R   0.536288 0.017306 0.405338 -0.077904
C101  C     C_R   0.443924 0.064912 0.566706 -0.072766
C102  C     C_R   0.959488 0.428567 0.546652 -0.070439
C103  C     C_R   0.039301 0.571265 0.454097 -0.075004
C104  C     C_R   0.428234 0.555216 0.946353 -0.067102
C105  C     C_R   0.586268 0.463442 0.000512 -0.070051
C106  C     C_R   0.580460 0.038293 0.448373 -0.076269
C107  C     C_R   0.397220 0.054090 0.518136 -0.073003
C108  C     C_R   0.477308 0.602710 0.955083 -0.069395
Cu1   Cu    Cu3+1 0.995180 0.995180 0.424630 1.277099
Cu2   Cu    Cu3+1 0.004820 0.004820 0.575370 1.270309
Cu3   Cu    Cu3+1 0.995180 0.424630 0.995180 1.273970
Cu4   Cu    Cu3+1 0.004820 0.575370 0.004820 1.225148
Cu5   Cu    Cu3+1 0.424630 0.995180 0.995180 1.285408
Cu6   Cu    Cu3+1 0.575370 0.004820 0.004820 1.291989
F1    F     F_    0.256398 0.136464 0.750087 -0.528598
F2    F     F_    0.348777 0.832651 0.871436 -0.499076
F3    F     F_    0.151493 0.626275 0.178185 -0.506697
F4    F     F_    0.846350 0.374313 0.822423 -0.505780
F5    F     F_    0.402567 0.127416 0.768413 -0.601318
F6    F     F_    0.594407 0.899601 0.241352 -0.548993
F7    F     F_    0.132113 0.754118 0.412485 -0.601273
F8    F     F_    0.866385 0.245814 0.587993 -0.551083
F9    F     F_    0.753698 0.412972 0.112783 -0.601393
F10   F     F_    0.234064 0.596440 0.872041 -0.606841
F11   F     F_    0.171225 0.114046 0.503246 -0.569711
F12   F     F_    0.722025 0.965864 0.211526 -0.480262
F13   F     F_    0.772969 0.113156 0.396334 -0.587391
F14   F     F_    0.602711 0.230151 0.902386 -0.520735
F15   F     F_    0.495668 0.829151 0.884737 -0.577725
F16   F     F_    0.114920 0.493463 0.180548 -0.565023
F17   F     F_    0.884454 0.506201 0.820345 -0.578915
F18   F     F_    0.159160 0.724850 0.267555 -0.531350
F19   F     F_    0.838172 0.276006 0.732935 -0.459045
F20   F     F_    0.774220 0.277199 0.064719 -0.475581
F21   F     F_    0.249829 0.742185 0.864807 -0.524262
F22   F     F_    0.166738 0.127720 0.651259 -0.502960
F23   F     F_    0.800227 0.026691 0.283510 -0.491211
F24   F     F_    0.702196 0.195538 0.007853 -0.471561
H1    H     H_    0.285132 0.804716 0.371087 0.139180
H2    H     H_    0.183838 0.747064 0.632539 0.090292
H3    H     H_    0.194175 0.640796 0.718811 0.144212
H4    H     H_    0.178988 0.742079 0.742581 0.247916
H5    H     H_    0.240691 0.246842 0.836027 0.249919
H6    H     H_    0.343184 0.276709 0.802386 0.162131
H7    H     H_    0.235947 0.359906 0.819894 0.085169
H8    H     H_    0.822761 0.745932 0.901132 0.074893
H9    H     H_    0.853146 0.790823 0.963474 0.184873
H10   H     H_    0.758140 0.853340 0.922802 0.161878
H11   H     H_    0.374933 0.811463 0.267010 0.095697
H12   H     H_    0.267849 0.810322 0.269557 0.252466
H13   H     H_    0.720242 0.850178 0.797611 0.113150
H14   H     H_    0.836586 0.849459 0.763979 0.149470
H15   H     H_    0.783517 0.873071 0.681191 0.091222
H16   H     H_    0.808933 0.268533 0.361285 0.141136
H17   H     H_    0.820256 0.263517 0.252469 0.259530
H18   H     H_    0.811105 0.367777 0.266173 0.129035
O1    O     O_R   0.124540 0.978640 0.385460 -0.441328
O2    O     O_R   0.124540 0.385460 0.978640 -0.486361
O3    O     O_R   0.021360 0.875460 0.614540 -0.494550
O4    O     O_R   0.978640 0.124540 0.385460 -0.452854
O5    O     O_R   0.013780 0.867370 0.487190 -0.465233
O6    O     O_R   0.986220 0.132630 0.512810 -0.411452
O7    O     O_R   0.867370 0.487190 0.013780 -0.405085
O8    O     O_R   0.132630 0.512810 0.986220 -0.401262
O9    O     O_R   0.487190 0.013780 0.867370 -0.411087
O10   O     O_R   0.512810 0.986220 0.132630 -0.451733
O11   O     O_R   0.512810 0.132630 0.986220 -0.459484
O12   O     O_R   0.875460 0.021360 0.614540 -0.440410
O13   O     O_R   0.487190 0.867370 0.013780 -0.469134
O14   O     O_R   0.986220 0.512810 0.132630 -0.467541
O15   O     O_R   0.013780 0.487190 0.867370 -0.477123
O16   O     O_R   0.132630 0.986220 0.512810 -0.475973
O17   O     O_R   0.867370 0.013780 0.487190 -0.468465
O18   O     O_3   0.271504 0.928637 0.275605 -0.511644
O19   O     O_3   0.747229 0.973649 0.746783 -0.514146
O20   O     O_3   0.933208 0.270697 0.267362 -0.508969
O21   O     O_3   0.066222 0.729252 0.732937 -0.525074
O22   O     O_3   0.267560 0.266767 0.935756 -0.514052
O23   O     O_R   0.978640 0.385460 0.124540 -0.448123
O24   O     O_3   0.742578 0.742921 0.034139 -0.502100
O25   O     O_R   0.021360 0.614540 0.875460 -0.464742
O26   O     O_R   0.385460 0.124540 0.978640 -0.444030
O27   O     O_R   0.614540 0.875460 0.021360 -0.472144
O28   O     O_R   0.614540 0.021360 0.875460 -0.461074
O29   O     O_R   0.385460 0.978640 0.124540 -0.477264
O30   O     O_R   0.875460 0.614540 0.021360 -0.513511

loop_
_geom_bond_atom_site_label_1
_geom_bond_atom_site_label_2
_ccdc_geom_bond_type
C101  C107  A    
C63   C65   A    
C55   C80   A    
C29   C42   S    
C45   C71   A    
C84   C102  A    
C64   C77   A    
C90   C99   A    
Cu3   Cu4   S    
C58   C98   A    
C59   C82   A    
C97   F19   S    
C50   C71   A    
Cu1   O1    S    
C5    C103  A    
Cu2   O6    S    
C9    O21   S    
Cu6   O11   S    
C81   C101  A    
C3    C105  A    
C28   C46   S    
C58   F9    S    
C99   F18   S    
C84   C97   A    
C32   C36   A    
C71   O22   S    
C78   C108  A    
C60   F11   S    
C28   O27   A    
C47   C76   A    
C66   F17   S    
C20   C51   S    
Cu5   O9    S    
C22   O6    A    
C26   O29   A    
Cu1   O17   S    
C11   H10   S    
C23   C49   S    
C13   C57   A    
C31   O16   A    
C83   C96   A    
C67   O18   S    
Cu6   O27   S    
C92   C96   A    
C31   C40   S    
C3    C18   A    
C53   C81   A    
C6    H1    S    
C8    H17   S    
C93   F12   S    
C5    C16   A    
C52   C69   A    
C2    C50   A    
C1    C40   A    
C57   F8    S    
C6    H11   S    
Cu2   O12   S    
Cu4   O14   S    
C4    C75   A    
C49   C72   A    
C4    C102  A    
Cu4   O30   S    
C66   C75   A    
C44   C70   A    
C51   C70   A    
C29   O14   A    
C8    H16   S    
C25   C47   S    
C21   C61   A    
C85   C103  A    
C25   O28   A    
C26   C48   S    
C10   H5    S    
C19   C108  A    
C27   C45   S    
C49   C98   A    
C3    C79   A    
C80   C100  A    
Cu3   O23   S    
C39   C65   A    
C30   C44   S    
C24   O8    A    
C15   C35   A    
C68   O19   S    
C1    C34   A    
Cu6   O10   S    
C41   C68   A    
C23   O7    A    
C55   F6    S    
C24   C50   S    
Cu4   O8    S    
C88   C94   A    
C35   C76   A    
C48   C87   A    
C10   O22   S    
C90   F3    S    
C62   C79   A    
Cu3   O7    S    
C33   C41   S    
C32   C64   A    
C13   C36   A    
C91   F2    S    
C1    C60   A    
C9    H3    S    
C2    C59   A    
C39   C98   A    
C96   F20   S    
C54   C62   A    
C61   C73   A    
C18   C38   A    
C20   O3    A    
C42   C69   A    
C83   C105  A    
C7    O19   S    
C6    H12   S    
C37   C43   A    
C43   C44   A    
C85   C99   A    
C86   C93   A    
C13   C52   A    
C2    C38   A    
Cu5   O26   S    
C38   C54   A    
C9    H4    S    
Cu5   O29   S    
C95   F21   S    
C57   C84   A    
C61   F13   S    
C18   C104  A    
C15   C101  A    
C88   F22   S    
C79   C92   A    
C31   O1    A    
C19   C39   A    
C46   C65   A    
C21   C41   A    
C4    C17   A    
C74   C107  A    
C16   C102  A    
C14   C107  A    
C69   O20   S    
C64   F16   S    
C45   C54   A    
C9    H2    S    
C29   O23   A    
C30   O25   A    
C7    H13   S    
C33   O12   A    
C72   O24   S    
C5    C77   A    
C19   C105  A    
C47   C68   A    
C104  C108  A    
C12   C51   A    
C33   O17   A    
C40   C67   A    
C22   C52   S    
Cu5   Cu6   S    
C59   F10   S    
C53   F5    S    
C26   O10   A    
C82   C104  A    
C82   C95   A    
C10   H6    S    
C46   C72   A    
Cu3   O2    S    
C14   C34   A    
C23   O30   A    
Cu5   O13   S    
C94   F1    S    
C8    O20   S    
C11   H8    S    
C14   C100  A    
Cu4   O25   S    
C21   C35   A    
C17   C37   A    
C78   C91   A    
C86   F23   S    
C6    O18   S    
C92   F24   S    
C100  C106  A    
C25   O9    A    
C56   F7    S    
C17   C103  A    
C27   O26   A    
C15   C106  A    
Cu1   O5    S    
Cu1   Cu2   S    
C16   C36   A    
C62   F14   S    
C81   C94   A    
C11   H9    S    
C73   C106  A    
C22   O4    A    
C7    H15   S    
C43   C66   A    
Cu6   O28   S    
C20   O5    A    
C60   C74   A    
C12   C56   A    
C24   O2    A    
C34   C87   A    
C63   F15   S    
C48   C67   A    
C55   C87   A    
C8    H18   S    
C30   O15   A    
C75   C89   A    
C10   H7    S    
C91   C95   A    
C7    H14   S    
C53   C76   A    
C70   O21   S    
C28   O13   A    
C89   F4    S    
C12   C37   A    
C89   C97   A    
C11   O24   S    
C77   C90   A    
C32   C42   A    
C73   C86   A    
C74   C88   A    
C80   C93   A    
C58   C83   A    
Cu1   O4    S    
C56   C85   A    
C63   C78   A    
Cu2   O3    S    
C27   O11   A    
Cu3   O15   S    
Cu2   O16   S    
