data_mof_unit_29639.cif
_audit_creation_date              2012-12-10T20:37:24-0500
_audit_creation_method            fapswitch 2.2
_symmetry_space_group_name_H-M    P1
_symmetry_Int_Tables_number       1
_space_group_crystal_system       triclinic
_cell_length_a                    15.697396
_cell_length_b                    10.770658
_cell_length_c                    9.918066
_cell_angle_alpha                 91.317821
_cell_angle_beta                  91.092937
_cell_angle_gamma                 90.795363
_cell_volume                      1675.93962622

loop_
_atom_site_label
_atom_site_type_symbol
_atom_type_description
_atom_site_fract_x
_atom_site_fract_y
_atom_site_fract_z
_atom_type_partial_charge
C1    C     C_R   0.498141 0.260126 0.498180 0.912312
C2    C     C_3   0.083071 0.501062 0.500116 0.036866
C3    C     C_3   0.975177 0.609050 0.558670 0.095835
C4    C     C_3   0.917103 0.503088 0.504774 0.030644
C5    C     C_3   0.027816 0.597117 0.429828 0.317383
C6    C     C_3   0.968800 0.490728 0.375198 -0.250886
C7    C     C_1   0.173857 0.500118 0.497635 0.054703
C8    C     C_1   0.826187 0.502554 0.505142 0.001448
C9    C     C_R   0.518282 0.067003 0.613804 0.002335
C10   C     C_R   0.498470 0.127662 0.494381 -0.179334
C11   C     C_R   0.477154 0.058135 0.375611 0.280280
C12   C     C_R   0.338066 0.499724 0.498893 0.919697
C13   C     C_R   0.476715 0.930422 0.379966 -0.183612
C14   C     C_R   0.491973 0.871123 0.501902 -0.142495
C15   C     C_R   0.510551 0.939717 0.619561 -0.020548
C16   C     C_3   0.460833 0.949806 0.748105 0.492399
C17   C     C_3   0.480169 0.088917 0.749428 -0.123108
C18   C     C_R   0.440181 0.432985 0.067729 0.197375
C19   C     C_R   0.564550 0.553320 0.077158 -0.086013
C20   C     C_R   0.565691 0.553509 0.933963 0.236936
C21   C     C_R   0.438616 0.436241 0.926178 0.054861
C22   C     C_3   0.343929 0.453405 0.923313 0.102404
C23   C     C_R   0.496573 0.739413 0.501167 0.924601
C24   C     C_3   0.346152 0.444148 0.076096 -0.463885
C25   C     C_R   0.661934 0.500371 0.501191 0.894380
C26   C     C_3   0.972597 0.407329 0.574754 0.321829
C27   C     C_3   0.025617 0.393987 0.445848 -0.210345
C28   C     C_1   0.249163 0.499783 0.496988 -0.109597
C29   C     C_1   0.750852 0.501576 0.503869 -0.160502
C30   C     C_3   0.031689 0.513200 0.630284 -0.225912
H1    H     H_    0.048263 0.305557 0.400337 0.192254
H2    H     H_    0.421348 0.145334 0.745050 0.169223
H3    H     H_    0.615027 0.599326 0.135995 0.153395
H4    H     H_    0.309092 0.374864 0.871474 0.138164
H5    H     H_    0.326929 0.530000 0.131216 0.251150
H6    H     H_    0.315801 0.357443 0.111982 0.210639
H7    H     H_    0.941292 0.482085 0.271361 0.187537
H8    H     H_    0.059298 0.521372 0.734090 0.190705
H9    H     H_    0.460837 0.877656 0.288316 0.223919
N1    N     N_R   0.499430 0.499140 0.142800 -0.111254
N2    N     N_R   0.499430 0.499180 0.857150 -0.105521
O1    O     O_R   0.500010 0.316790 0.614690 -0.640896
O2    O     O_R   0.500000 0.316760 0.385350 -0.572865
O3    O     O_R   0.376780 0.500010 0.614650 -0.578857
O4    O     O_R   0.376770 0.499970 0.385310 -0.619362
O5    O     O_R   0.500000 0.683240 0.614650 -0.587441
O6    O     O_R   0.499990 0.683210 0.385310 -0.626203
O7    O     O_R   0.623230 0.500030 0.614690 -0.632023
O8    O     O_R   0.623220 0.499990 0.385350 -0.620652
Zn1   Zn    Zn3+2 0.500010 0.500020 0.653130 0.989022
Zn2   Zn    Zn3+2 0.499990 0.499980 0.346870 0.993953
Br1   Br    Br    0.504069 0.856486 0.899167 -0.496694
C31   C     C_3   0.545258 0.142118 0.856687 -0.329317
C32   C     C_3   0.638846 0.108521 0.835527 -0.757771
H10   H     H_    0.647014 0.006640 0.826561 0.273610
H11   H     H_    0.663000 0.152482 0.743240 0.259211
H12   H     H_    0.677969 0.144161 0.922879 0.250815
H13   H     H_    0.541968 0.244740 0.856943 0.213424
H14   H     H_    0.526015 0.113642 0.958285 0.270823
C33   C     C_3   0.640181 0.620330 0.873321 -0.358092
C34   C     C_3   0.718923 0.538290 0.871130 -0.827251
H15   H     H_    0.703850 0.445452 0.825073 0.284641
H16   H     H_    0.769752 0.583602 0.812519 0.251851
H17   H     H_    0.743390 0.525065 0.975587 0.248150
H18   H     H_    0.623999 0.656835 0.773438 0.261141
H19   H     H_    0.656746 0.704758 0.935505 0.205917
Br2   Br    Br    0.307962 0.617500 0.870280 -0.358267
Br3   Br    Br    0.930417 0.270502 0.679199 -0.507372
Br4   Br    Br    0.070082 0.730989 0.320842 -0.462210
C35   C     C_3   0.942684 0.729397 0.622888 -0.427415
C36   C     C_3   0.015424 0.809478 0.683199 -0.676837
H20   H     H_    0.049221 0.759220 0.764336 0.263358
H21   H     H_    0.061481 0.834432 0.604415 0.291549
H22   H     H_    0.989347 0.896376 0.727268 0.262389
H23   H     H_    0.907741 0.782410 0.545147 0.233913
H24   H     H_    0.897758 0.706014 0.704002 0.209882
Br5   Br    Br    0.436487 0.125864 0.208798 -0.509796
Br6   Br    Br    0.339618 0.915388 0.717634 -0.394590

loop_
_geom_bond_atom_site_label_1
_geom_bond_atom_site_label_2
_ccdc_geom_bond_type
C34   H17   S    
C18   C21   A    
C2    C7    S    
C4    C8    S    
C20   N2    A    
C31   H14   S    
C31   C32   S    
C26   C27   S    
C24   H6    S    
C12   C28   S    
C18   C24   S    
C8    C29   T    
C5    C6    S    
O4    Zn2   S    
C15   C16   S    
C30   H8    S    
C34   H16   S    
C18   N1    A    
C5    Br4   S    
C11   Br5   S    
C1    O2    A    
C19   C20   A    
C16   C17   S    
O8    Zn2   S    
C35   C36   S    
C20   C33   S    
C9    C10   A    
O7    Zn1   S    
C33   H19   S    
C23   O5    A    
C13   C14   A    
C25   C29   S    
C22   H4    S    
C32   H11   S    
C24   H5    S    
C23   O6    A    
C27   H1    S    
C3    C35   S    
C4    C6    S    
C10   C11   A    
C36   H21   S    
O6    Zn2   S    
C7    C28   T    
C33   C34   S    
C14   C23   S    
C3    C30   S    
C6    C27   S    
C6    H7    S    
C25   O7    A    
C2    C27   S    
O1    Zn1   S    
C21   N2    A    
C9    C17   S    
C33   H18   S    
C26   C30   S    
C35   H24   S    
C22   C24   S    
C2    C5    S    
C3    C4    S    
C17   C31   S    
N2    Zn1   S    
O3    Zn1   S    
C32   H10   S    
C1    C10   S    
C16   Br1   S    
C19   H3    S    
C12   O4    A    
C3    C5    S    
C36   H22   S    
C4    C26   S    
C31   H13   S    
N1    Zn2   S    
O5    Zn1   S    
C2    C30   S    
C26   Br3   S    
C9    C15   A    
C36   H20   S    
C12   O3    A    
C11   C13   A    
O2    Zn2   S    
C16   Br6   S    
C34   H15   S    
C25   O8    A    
C22   Br2   S    
C13   H9    S    
C19   N1    A    
C1    O1    A    
C35   H23   S    
C17   H2    S    
C14   C15   A    
C21   C22   S    
C32   H12   S    
