data_mof_unit_47003.cif
_audit_creation_date              2012-12-10T17:02:03-0500
_audit_creation_method            fapswitch 2.2
_symmetry_space_group_name_H-M    P1
_symmetry_Int_Tables_number       1
_space_group_crystal_system       triclinic
_cell_length_a                    10.787397
_cell_length_b                    10.919512
_cell_length_c                    9.771057
_cell_angle_alpha                 109.726728
_cell_angle_beta                  96.926206
_cell_angle_gamma                 91.089454
_cell_volume                      1073.31192301

loop_
_atom_site_label
_atom_site_type_symbol
_atom_type_description
_atom_site_fract_x
_atom_site_fract_y
_atom_site_fract_z
_atom_type_partial_charge
C1    C     C_R   0.487966 0.254306 0.442430 0.934388
C2    C     C_R   0.075665 0.575793 0.635638 0.045817
C3    C     C_R   0.127835 0.488323 0.514029 -0.148367
C4    C     C_R   0.047648 0.405537 0.391295 0.380167
C5    C     C_R   0.919539 0.414951 0.385204 -0.196977
C6    C     C_R   0.870371 0.512320 0.494131 -0.140897
C7    C     C_2   0.484320 0.114929 0.412545 -0.372572
C8    C     C_2   0.429732 0.059895 0.494948 0.453811
C9    C     C_2   0.484849 0.883574 0.584994 -0.256425
C10   C     C_2   0.448843 0.923592 0.472074 -0.224863
C11   C     C_2   0.513351 0.514841 0.086077 -0.135278
C12   C     C_R   0.262037 0.495525 0.503559 0.854173
C13   C     C_2   0.535617 0.471141 0.928239 0.499182
C14   C     C_R   0.503128 0.745826 0.557547 0.813319
C15   C     C_R   0.737079 0.505346 0.498058 0.806750
C16   C     C_R   0.141255 0.640661 0.779436 -0.067355
C17   C     C_R   0.097723 0.756615 0.869466 -0.256163
C18   C     C_R   0.981199 0.796521 0.830094 0.460551
C19   C     C_R   0.904383 0.716072 0.706109 -0.187114
C20   C     C_R   0.949292 0.602031 0.611462 0.011118
Cu1   Cu    Cu3+1 0.521920 0.521810 0.644910 1.043289
Cu2   Cu    Cu3+1 0.478080 0.478190 0.355090 1.022472
H1    H     H_    0.533745 0.056330 0.324668 0.124702
H2    H     H_    0.562023 0.604550 0.161194 0.141958
H3    H     H_    0.544919 0.650118 0.924852 0.157245
H4    H     H_    0.403874 0.358295 0.064299 0.280869
H5    H     H_    0.149170 0.810085 0.976317 0.175132
H6    H     H_    0.810599 0.744210 0.682831 0.159760
H7    H     H_    0.857959 0.344913 0.296107 0.205961
H8    H     H_    0.441876 0.857181 0.359367 0.157190
H9    H     H_    0.496609 0.951553 0.697150 0.212099
N1    N     N_2   0.445130 0.445430 0.137370 -0.252092
N2    N     N_2   0.554930 0.554500 0.862630 -0.313593
O1    O     O_R   0.511700 0.332330 0.577400 -0.488717
O2    O     O_R   0.474680 0.295500 0.332650 -0.561805
O3    O     O_R   0.338160 0.518420 0.622400 -0.572257
O4    O     O_R   0.301140 0.481590 0.377650 -0.534063
O5    O     O_R   0.525320 0.704500 0.667350 -0.589971
O6    O     O_R   0.488300 0.667670 0.422600 -0.591215
O7    O     O_R   0.698860 0.518410 0.622350 -0.548852
O8    O     O_R   0.661840 0.481580 0.377600 -0.580577
Cl1   Cl    Cl    0.102595 0.280091 0.248309 -0.486054
Cl2   Cl    Cl    0.566834 0.306661 0.849955 -0.499320
C21   C     C_2   0.227227 0.574096 0.857161 0.494533
H10   H     H_    0.291006 0.630911 0.953575 0.006833
O9    O     O_2   0.222870 0.455236 0.819110 -0.461919
Cl3   Cl    Cl    0.925097 0.939045 0.945847 -0.511603
Cl4   Cl    Cl    0.327608 0.141899 0.619850 -0.463275

loop_
_geom_bond_atom_site_label_1
_geom_bond_atom_site_label_2
_ccdc_geom_bond_type
C11   N1    D    
C9    C14   S    
C8    Cl4   S    
H4    N1    S    
C19   H6    S    
C14   O5    A    
C6    C20   A    
C9    C10   D    
C16   C21   S    
C19   C20   A    
Cu1   O1    S    
C18   Cl3   S    
C4    Cl1   S    
C12   O3    A    
C17   C18   A    
C6    C15   S    
C7    C8    D    
Cu1   O3    S    
Cu1   Cu2   S    
C13   N2    D    
Cu2   O2    S    
C11   C13   S    
C15   O8    A    
Cu1   O7    S    
Cu2   N1    S    
C7    H1    S    
Cu2   O6    S    
C21   O9    D    
C1    O1    A    
C2    C3    A    
C5    H7    S    
C5    C6    A    
C15   O7    A    
Cu2   O8    S    
Cu1   N2    S    
C9    H9    S    
C2    C20   A    
C3    C4    A    
C17   H5    S    
C11   H2    S    
C13   Cl2   S    
C2    C16   A    
C21   H10   S    
C1    O2    A    
C8    C10   S    
C18   C19   A    
C12   O4    A    
C10   H8    S    
C16   C17   A    
C3    C12   S    
C14   O6    A    
C1    C7    S    
Cu2   O4    S    
Cu1   O5    S    
H3    N2    S    
C4    C5    A    
