data_mof_unit_6439.cif
_audit_creation_date              2012-12-11T15:48:09-0500
_audit_creation_method            fapswitch 2.2
_symmetry_space_group_name_H-M    P1
_symmetry_Int_Tables_number       1
_space_group_crystal_system       triclinic
_cell_length_a                    6.935247
_cell_length_b                    17.618613
_cell_length_c                    19.451839
_cell_angle_alpha                 108.609611
_cell_angle_beta                  89.68105
_cell_angle_gamma                 90.222818
_cell_volume                      2252.49695867

loop_
_atom_site_label
_atom_site_type_symbol
_atom_type_description
_atom_site_fract_x
_atom_site_fract_y
_atom_site_fract_z
_atom_type_partial_charge
O1    O     O_R   0.494330 0.415710 0.413720 -0.540994
O2    O     O_R   0.819360 0.430070 0.560210 -0.540228
O3    O     O_R   0.994320 0.584290 0.586280 -0.539798
C1    C     C_R   0.651826 0.416145 0.583042 0.726688
O4    O     O_R   0.823740 0.406290 0.412670 -0.542886
O5    O     O_R   0.998730 0.560340 0.437690 -0.541732
C2    C     C_R   0.654999 0.383424 0.384437 0.686042
O6    O     O_R   0.489920 0.439660 0.562310 -0.540686
O7    O     O_3   0.662330 0.550570 0.508380 -0.368196
V1    V     V_3+5 0.935370 0.490620 0.498440 1.385345
O8    O     O_R   0.328720 0.569930 0.439790 -0.540820
C3    C     C_R   0.160454 0.586440 0.419665 0.713245
O9    O     O_R   0.324340 0.593710 0.587330 -0.539709
C4    C     C_R   0.155024 0.617222 0.614946 0.707803
V2    V     V_3+5 0.435940 0.509380 0.501560 1.395306
O10   O     O_3   0.159110 0.449430 0.491620 -0.372691
C5    C     C_R   0.279734 0.693494 0.738641 -0.252097
H1    H     H_    0.386092 0.646795 0.731954 0.116439
C6    C     C_R   0.270970 0.758120 0.804406 0.419553
C7    C     C_R   0.122670 0.815472 0.815140 -0.111282
C8    C     C_R   0.986513 0.807227 0.759944 -0.242722
H2    H     H_    0.871549 0.850561 0.767211 0.125844
C9    C     C_R   0.996850 0.743056 0.694952 -0.160702
H3    H     H_    0.889584 0.738215 0.653504 0.129345
C10   C     C_R   0.144839 0.686042 0.683300 -0.097691
C11   C     C_R   0.288583 0.624867 0.315684 -0.205313
C12   C     C_R   0.155127 0.637664 0.372466 -0.111251
C13   C     C_R   0.019114 0.699211 0.383875 -0.203987
C14   C     C_R   0.014794 0.747879 0.338597 0.032218
C15   C     C_R   0.145129 0.732468 0.279517 -0.043999
C16   C     C_R   0.282079 0.670227 0.267961 0.010268
C17   C     C_R   0.878982 0.809981 0.350307 0.381697
C18   C     C_R   0.878535 0.857465 0.304050 -0.274552
C19   C     C_R   0.000629 0.840542 0.242798 -0.014555
C20   C     C_R   0.135176 0.777567 0.230799 -0.061226
C21   C     C_R   0.257201 0.758091 0.169290 0.029836
C22   C     C_R   0.393037 0.696246 0.159084 -0.242368
C23   C     C_R   0.406633 0.652810 0.207678 0.360713
C24   C     C_R   0.993919 0.886089 0.194149 0.232173
C25   C     C_R   0.113651 0.865585 0.131629 -0.185134
C26   C     C_R   0.238294 0.798534 0.117478 0.206528
H4    H     H_    0.392660 0.577062 0.307221 0.161507
H5    H     H_    0.917426 0.709024 0.428343 0.159863
H6    H     H_    0.782014 0.907973 0.317075 0.143247
H7    H     H_    0.489419 0.680371 0.112687 0.175245
C27   C     C_R   0.767746 0.193930 0.878709 0.397826
C28   C     C_R   0.620001 0.136419 0.871427 -0.195788
C29   C     C_R   0.472116 0.130107 0.820675 -0.250081
C30   C     C_R   0.473739 0.176810 0.773966 0.059984
C31   C     C_R   0.629918 0.229600 0.777350 -0.059360
C32   C     C_R   0.778899 0.236618 0.828571 0.027902
C33   C     C_R   0.323236 0.171876 0.723768 0.304544
C34   C     C_R   0.327472 0.221237 0.679537 -0.242824
C35   C     C_R   0.483371 0.272755 0.681718 0.059812
C36   C     C_R   0.636627 0.276182 0.729948 0.014695
C37   C     C_R   0.796950 0.326026 0.730886 0.078460
C38   C     C_R   0.945897 0.330589 0.780995 -0.199280
C39   C     C_R   0.935290 0.287716 0.829823 -0.175652
C40   C     C_R   0.488630 0.320162 0.635739 -0.246072
C41   C     C_R   0.649227 0.368617 0.634379 -0.147690
C42   C     C_R   0.806871 0.370238 0.681855 0.230526
H8    H     H_    0.355481 0.088155 0.817807 0.184993
H9    H     H_    0.209949 0.217897 0.642138 0.129774
H10   H     H_    0.369384 0.317522 0.599230 0.135824
H11   H     H_    0.071630 0.367947 0.783414 0.172869
H12   H     H_    0.052347 0.293864 0.867875 0.171849
C43   C     C_R   0.812153 0.280900 0.277845 -0.167517
H13   H     H_    0.953085 0.302752 0.298896 0.117599
C44   C     C_R   0.800798 0.217443 0.212629 -0.174310
H14   H     H_    0.933627 0.192111 0.185596 0.120793
C45   C     C_R   0.620878 0.186644 0.183148 -0.046899
C46   C     C_R   0.452604 0.222027 0.220034 -0.158206
H15   H     H_    0.311648 0.200163 0.198998 0.113004
C47   C     C_R   0.463949 0.285728 0.285078 -0.152523
H16   H     H_    0.331077 0.311198 0.311972 0.118240
C48   C     C_R   0.643891 0.315686 0.315181 -0.044041
O11   O     O_R   0.774940 0.060470 0.937800 -0.521924
O12   O     O_R   0.440880 0.093730 0.087350 -0.547061
O13   O     O_R   0.266130 0.939630 0.062280 -0.550603
C49   C     C_R   0.609715 0.117399 0.115057 0.681856
O14   O     O_R   0.445480 0.069960 0.939820 -0.542945
O15   O     O_R   0.270770 0.915690 0.913690 -0.526124
C50   C     C_R   0.613773 0.084018 0.917581 0.718247
O16   O     O_R   0.770300 0.084410 0.086380 -0.537245
O17   O     O_3   0.602600 0.949510 0.991670 -0.374968
V3    V     V_3+5 0.329470 0.009370 0.001550 1.432924
O18   O     O_R   0.940760 0.906160 0.912560 -0.561405
C51   C     C_R   0.110088 0.883621 0.884247 0.717051
O19   O     O_R   0.936150 0.929930 0.060100 -0.519231
C52   C     C_R   0.104765 0.913907 0.080976 0.759186
V4    V     V_3+5 0.828930 0.990450 0.998310 1.438498
O20   O     O_3   0.105670 0.050490 0.008320 -0.365094
N1    N     N_2   0.323629 0.764088 0.047460 -0.528140
H17   H     H_    0.364530 0.803137 0.020481 0.290580
C53   C     C_3   0.216533 0.695995 0.001939 -0.566206
H18   H     H_    0.280625 0.674518 0.946810 0.227975
H19   H     H_    0.064175 0.713121 0.998177 0.198378
H20   H     H_    0.219525 0.645729 0.024715 0.207139
O21   O     O_3   0.528120 0.587443 0.191466 -0.565926
C54   C     C_3   0.713285 0.614088 0.218209 0.086737
H21   H     H_    0.707263 0.650466 0.276706 0.118216
H22   H     H_    0.778314 0.650906 0.186924 0.095495
C55   C     C_3   0.843201 0.541775 0.209586 -0.291289
H23   H     H_    0.843949 0.502788 0.152184 0.198302
H24   H     H_    0.992946 0.562446 0.223096 0.172675
C56   C     C_3   0.779929 0.493926 0.258941 -0.709318
H25   H     H_    0.778926 0.532755 0.316477 0.220245
H26   H     H_    0.882072 0.443863 0.253067 0.198938
H27   H     H_    0.633283 0.468686 0.244232 0.237287
O22   O     O_3   0.902721 0.209615 0.934177 -0.571327
C57   C     C_3   0.814641 0.248145 0.002574 0.119322
H28   H     H_    0.922727 0.250800 0.045232 0.133171
H29   H     H_    0.691963 0.213347 0.013868 0.096730
C58   C     C_3   0.749482 0.334196 0.011731 -0.379147
H30   H     H_    0.877987 0.373502 0.017030 0.194108
H31   H     H_    0.665043 0.336585 0.964182 0.202233
C59   C     C_3   0.620986 0.365751 0.078701 -0.808306
H32   H     H_    0.487727 0.328978 0.072393 0.229851
H33   H     H_    0.578302 0.428427 0.085700 0.263126
H34   H     H_    0.698914 0.363381 0.127648 0.240795
N2    N     N_2   0.165862 0.118029 0.717768 -0.518241
H35   H     H_    0.036510 0.139851 0.706116 0.266238
C60   C     C_3   0.202654 0.037784 0.669767 -0.571684
H36   H     H_    0.222329 0.038231 0.613129 0.199045
H37   H     H_    0.078234 0.998561 0.671493 0.204529
H38   H     H_    0.333567 0.012496 0.686841 0.201824
N3    N     N_2   0.976329 0.416298 0.682144 -0.534058
H39   H     H_    0.053446 0.403097 0.634418 0.275478
C61   C     C_3   0.963215 0.499915 0.724209 -0.537396
H40   H     H_    0.859667 0.531085 0.699170 0.196523
H41   H     H_    0.107326 0.528329 0.727042 0.187843
H42   H     H_    0.915020 0.505947 0.780185 0.203295
O23   O     O_3   0.382095 0.759063 0.863697 -0.587203
C62   C     C_3   0.580876 0.749792 0.847179 0.075002
H43   H     H_    0.653824 0.805897 0.879293 0.170946
H44   H     H_    0.619069 0.740217 0.789278 0.104973
C63   C     C_3   0.657405 0.680830 0.870766 -0.328959
H45   H     H_    0.621114 0.691514 0.928785 0.217810
H46   H     H_    0.588989 0.623773 0.837802 0.189314
C64   C     C_3   0.874882 0.673765 0.862025 -0.844170
H47   H     H_    0.915138 0.660753 0.804266 0.250316
H48   H     H_    0.927347 0.624729 0.881312 0.225685
H49   H     H_    0.944019 0.730547 0.894550 0.239224
O24   O     O_3   0.763048 0.828685 0.411991 -0.579386
C65   C     C_3   0.566172 0.836652 0.396418 0.070122
H50   H     H_    0.482094 0.793570 0.415803 0.149733
H51   H     H_    0.532595 0.821892 0.337527 0.106045
C66   C     C_3   0.498872 0.921596 0.438208 -0.308308
H52   H     H_    0.522652 0.933479 0.497197 0.203156
H53   H     H_    0.584584 0.965803 0.420965 0.190184
C67   C     C_3   0.285807 0.933028 0.425515 -0.820538
H54   H     H_    0.196863 0.891017 0.444474 0.249450
H55   H     H_    0.242326 0.995227 0.456361 0.224811
H56   H     H_    0.259264 0.922645 0.366989 0.239146
N4    N     N_2   0.864679 0.951865 0.206364 -0.506513
H57   H     H_    0.725097 0.940974 0.219170 0.250162
C68   C     C_3   0.941429 0.027848 0.251198 -0.553936
H58   H     H_    0.975117 0.025586 0.306290 0.191316
H59   H     H_    0.833154 0.075545 0.256284 0.200851
H60   H     H_    0.074162 0.043163 0.226136 0.191824

loop_
_geom_bond_atom_site_label_1
_geom_bond_atom_site_label_2
_ccdc_geom_bond_type
O18   C51   A    
N1    H17   S    
O18   V4    S    
N4    C68   S    
C53   H18   S    
C64   H49   S    
C1    O6    A    
C62   C63   S    
C58   H30   S    
O17   V4    S    
C53   H20   S    
C60   H36   S    
C34   C35   A    
C61   H41   S    
C63   H46   S    
C40   H10   S    
C68   H58   S    
C47   C48   A    
C15   C20   A    
C13   C14   A    
C66   H53   S    
C14   C17   A    
C59   H33   S    
O5    C3    A    
C15   C16   A    
O12   C49   A    
C60   H37   S    
C56   H25   S    
O11   C50   A    
V2    O10   S    
C37   C38   A    
C19   C20   A    
C67   H56   S    
C44   C45   A    
O22   C57   S    
O13   C52   A    
O14   C50   A    
C35   C36   A    
O8    V2    S    
C39   H12   S    
C26   N1    S    
C6    C7    A    
C67   H54   S    
C66   C67   S    
O1    V2    S    
O16   V4    S    
C28   C50   S    
O19   V4    S    
C14   C15   A    
O7    V1    S    
O14   V3    S    
O15   C51   A    
C49   O16   A    
C61   H42   S    
O12   V3    S    
O11   V4    S    
C40   C41   A    
C68   H59   S    
O9    C4    A    
C67   H55   S    
C21   C26   A    
O4    V1    S    
C45   C49   S    
C65   H51   S    
C5    H1    S    
C35   C40   A    
C8    C9    A    
C63   C64   S    
N2    C60   S    
C47   H16   S    
C3    C12   S    
C43   H13   S    
C64   H47   S    
C46   C47   A    
C59   H34   S    
V4    O20   S    
O4    C2    A    
C46   H15   S    
C60   H38   S    
C62   H44   S    
O17   V3    S    
C27   C32   A    
C54   C55   S    
C19   C24   A    
C24   N4    S    
C41   C42   A    
C43   C44   A    
C20   C21   A    
C55   C56   S    
O2    C1    A    
N3    C61   S    
C22   C23   A    
C33   N2    S    
C29   H8    S    
C28   C29   A    
C9    H3    S    
C30   C33   A    
C1    C41   S    
C36   C37   A    
C54   H22   S    
C31   C32   A    
C11   C12   A    
C57   H29   S    
C32   C39   A    
C66   H52   S    
N2    H35   S    
C62   H43   S    
O3    C4    A    
C25   C26   A    
O6    V2    S    
O9    V2    S    
O23   C62   S    
C55   H24   S    
C6    O23   S    
C22   H7    S    
N3    H39   S    
O2    V1    S    
C65   H50   S    
N4    H57   S    
C65   C66   S    
C33   C34   A    
C11   H4    S    
C61   H40   S    
C27   C28   A    
C21   C22   A    
C57   H28   S    
O1    C2    A    
C18   H6    S    
C38   H11   S    
C23   O21   S    
O5    V1    S    
C58   H31   S    
O8    C3    A    
C53   H19   S    
C16   C23   A    
C2    C48   S    
C64   H48   S    
C42   N3    S    
C68   H60   S    
C63   H45   S    
C13   H5    S    
C31   C36   A    
O21   C54   S    
O24   C65   S    
C5    C10   A    
C17   C18   A    
C27   O22   S    
O7    V2    S    
C45   C46   A    
O3    V1    S    
V1    O10   S    
C59   H32   S    
O15   V3    S    
C34   H9    S    
C38   C39   A    
C56   H26   S    
C29   C30   A    
C7    C51   S    
C54   H21   S    
C5    C6    A    
C18   C19   A    
C57   C58   S    
C9    C10   A    
C4    C10   S    
C44   H14   S    
C17   O24   S    
C58   C59   S    
C24   C25   A    
C11   C16   A    
C7    C8    A    
N1    C53   S    
C30   C31   A    
C55   H23   S    
C37   C42   A    
V3    O20   S    
C43   C48   A    
C25   C52   S    
O19   C52   A    
C8    H2    S    
O13   V3    S    
C12   C13   A    
C56   H27   S    
