data_mof_unit_19494.cif
_audit_creation_date              2012-12-11T15:44:52-0500
_audit_creation_method            fapswitch 2.2
_symmetry_space_group_name_H-M    P1
_symmetry_Int_Tables_number       1
_space_group_crystal_system       triclinic
_cell_length_a                    6.93133
_cell_length_b                    16.807276
_cell_length_c                    17.080116
_cell_angle_alpha                 100.408537
_cell_angle_beta                  88.289995
_cell_angle_gamma                 91.658757
_cell_volume                      1955.60264868

loop_
_atom_site_label
_atom_site_type_symbol
_atom_type_description
_atom_site_fract_x
_atom_site_fract_y
_atom_site_fract_z
_atom_type_partial_charge
O1    O     O_R   0.494370 0.415690 0.413450 -0.536434
O2    O     O_R   0.819420 0.429360 0.578420 -0.536062
O3    O     O_R   0.994280 0.584310 0.586550 -0.540797
C1    C     C_R   0.646715 0.411004 0.602472 0.707218
O4    O     O_R   0.823790 0.406230 0.413570 -0.546068
O5    O     O_R   0.998670 0.561000 0.420530 -0.537503
C2    C     C_R   0.654978 0.383126 0.385064 0.687097
O6    O     O_R   0.489970 0.439000 0.579470 -0.537664
O7    O     O_3   0.662300 0.550810 0.502470 -0.371552
V1    V     V_3+5 0.935380 0.490570 0.499540 1.412439
O8    O     O_R   0.328650 0.570640 0.421580 -0.544361
C3    C     C_R   0.164346 0.586936 0.395035 0.698716
O9    O     O_R   0.324290 0.593770 0.586430 -0.544199
C4    C     C_R   0.154986 0.617060 0.615010 0.686263
V2    V     V_3+5 0.435930 0.509430 0.500460 1.409889
O10   O     O_3   0.159140 0.449190 0.497530 -0.362259
C5    C     C_R   0.312394 0.723427 0.718080 -0.157186
H1    H     H_    0.453510 0.703608 0.694927 0.116034
C6    C     C_R   0.301241 0.787258 0.783165 -0.151649
H2    H     H_    0.434324 0.814768 0.807998 0.116790
C7    C     C_R   0.121163 0.815095 0.815677 -0.042467
C8    C     C_R   0.952555 0.777548 0.781029 -0.156077
H3    H     H_    0.811446 0.797440 0.804128 0.115201
C9    C     C_R   0.963708 0.713698 0.715961 -0.151028
H4    H     H_    0.830623 0.686225 0.691102 0.117905
C10   C     C_R   0.143789 0.685669 0.683612 -0.047280
C11   C     C_R   0.174341 0.640946 0.334379 -0.069481
C12   C     C_R   0.090556 0.859348 0.165840 -0.064502
C13   C     C_R   0.894309 0.798502 0.262282 -0.196536
C14   C     C_R   0.916869 0.853417 0.209966 -0.159284
C15   C     C_R   0.243527 0.809469 0.176588 -0.236173
C16   C     C_R   0.220691 0.753171 0.228714 0.160246
C17   C     C_R   0.044303 0.747304 0.271684 0.158378
C18   C     C_R   0.021406 0.690905 0.323724 -0.237887
C19   C     C_R   0.348173 0.647065 0.290392 -0.165492
C20   C     C_R   0.370756 0.702040 0.238152 -0.200480
H5    H     H_    0.887264 0.687607 0.357413 0.123360
H6    H     H_    0.468863 0.609410 0.296796 0.127348
H7    H     H_    0.758584 0.795703 0.294947 0.123925
H8    H     H_    0.506535 0.704905 0.205538 0.121366
H9    H     H_    0.796276 0.891128 0.203564 0.124356
H10   H     H_    0.377630 0.812709 0.142859 0.121597
C21   C     C_R   0.624894 0.354706 0.660209 -0.060461
C22   C     C_R   0.640429 0.132329 0.828598 -0.073605
C23   C     C_R   0.796558 0.157479 0.705048 -0.172334
C24   C     C_R   0.770335 0.108692 0.763371 0.145677
C25   C     C_R   0.537752 0.203848 0.832808 -0.264028
C26   C     C_R   0.566576 0.253134 0.774754 0.119269
C27   C     C_R   0.696522 0.230128 0.709501 0.101196
C28   C     C_R   0.721916 0.279826 0.650150 0.101124
C29   C     C_R   0.496897 0.375591 0.725460 -0.213244
C30   C     C_R   0.467213 0.325447 0.781606 -0.171338
H11   H     H_    0.419444 0.431685 0.733263 0.128212
H12   H     H_    0.898764 0.138348 0.656718 0.136519
H13   H     H_    0.367193 0.343804 0.831135 0.123874
H14   H     H_    0.438887 0.222337 0.882785 0.123975
C31   C     C_R   0.788926 0.256122 0.304471 -0.142678
H15   H     H_    0.907693 0.262176 0.345171 0.158238
C32   C     C_R   0.777561 0.188411 0.242430 -0.003644
C33   C     C_R   0.621291 0.180542 0.188777 -0.129980
C34   C     C_R   0.475745 0.238453 0.202968 -0.089720
H16   H     H_    0.354118 0.234024 0.163909 0.132240
C35   C     C_R   0.485807 0.303566 0.266757 -0.126419
H17   H     H_    0.371049 0.346930 0.275501 0.118074
C36   C     C_R   0.643798 0.313766 0.317488 -0.093357
O11   O     O_R   0.774880 0.061150 0.920630 -0.534416
O12   O     O_R   0.440980 0.093710 0.086500 -0.529109
O13   O     O_R   0.266190 0.938890 0.079390 -0.533879
C37   C     C_R   0.609401 0.114477 0.117330 0.677070
O14   O     O_R   0.445420 0.070740 0.921670 -0.542240
O15   O     O_R   0.270660 0.915760 0.913380 -0.542817
C38   C     C_R   0.617788 0.084712 0.893823 0.715896
O16   O     O_R   0.770400 0.084270 0.086640 -0.547594
O17   O     O_3   0.602590 0.949210 0.997500 -0.373062
V3    V     V_3+5 0.329470 0.009420 0.000470 1.423366
O18   O     O_R   0.940650 0.906250 0.913470 -0.544292
C39   C     C_R   0.109960 0.883258 0.884669 0.681075
O19   O     O_R   0.936210 0.929220 0.078300 -0.549501
C40   C     C_R   0.100497 0.913084 0.104972 0.706657
V4    V     V_3+5 0.828930 0.990510 0.999490 1.396526
O20   O     O_3   0.105680 0.050790 0.002500 -0.364982
C41   C     C_3   0.841732 0.250155 0.575252 -0.773935
H18   H     H_    0.793916 0.187795 0.548521 0.201823
H19   H     H_    0.825852 0.286107 0.527724 0.209060
H20   H     H_    0.996680 0.250469 0.590053 0.213974
C42   C     C_3   0.879594 0.030875 0.753584 -0.751863
H21   H     H_    0.778663 0.979581 0.759318 0.190910
H22   H     H_    0.953352 0.016515 0.694272 0.196815
H23   H     H_    0.992081 0.035986 0.799229 0.216942
C43   C     C_2   0.923372 0.124662 0.239030 0.363304
H24   H     H_    0.891049 0.062697 0.211309 0.050151
O21   O     O_2   0.080814 0.140306 0.269101 -0.539178

loop_
_geom_bond_atom_site_label_1
_geom_bond_atom_site_label_2
_ccdc_geom_bond_type
C35   C36   A    
C15   H10   S    
C18   H5    S    
C6    H2    S    
C1    O6    A    
C43   H24   S    
C23   C24   A    
O13   V3    S    
C5    C10   A    
C16   C20   A    
C6    C7    A    
C9    C10   A    
O5    C3    A    
O19   V4    S    
C31   C32   A    
V2    O10   S    
C13   C17   A    
C34   C35   A    
C12   C40   S    
O8    V2    S    
O11   C38   A    
C15   C16   A    
C14   H9    S    
C37   O16   A    
O1    V2    S    
O7    V1    S    
C22   C25   A    
O13   C40   A    
C32   C33   A    
O17   V4    S    
O9    C4    A    
C22   C24   A    
C5    H1    S    
O18   C39   A    
C11   C18   A    
O17   V3    S    
C3    C11   S    
C29   C30   A    
C20   H8    S    
C19   H6    S    
C9    H4    S    
O4    C2    A    
C42   H21   S    
V3    O20   S    
C11   C19   A    
C33   C34   A    
O12   C37   A    
C19   C20   A    
O2    C1    A    
C13   C14   A    
C2    C36   S    
C43   O21   D    
C25   C26   A    
C23   C27   A    
C13   H7    S    
C17   C18   A    
C4    C10   S    
O3    C4    A    
C26   C27   A    
C23   H12   S    
C41   H18   S    
O6    V2    S    
C41   H19   S    
O9    V2    S    
C8    C9    A    
O12   V3    S    
O2    V1    S    
O15   C39   A    
C28   C41   S    
O1    C2    A    
C12   C15   A    
O18   V4    S    
C31   C36   A    
V4    O20   S    
C42   H23   S    
O5    V1    S    
O8    C3    A    
C30   H13   S    
C21   C28   A    
C1    C21   S    
C41   H20   S    
O11   V4    S    
C16   C17   A    
C12   C14   A    
O7    V2    S    
O4    V1    S    
O3    V1    S    
V1    O10   S    
O15   V3    S    
O19   C40   A    
C21   C29   A    
C31   H15   S    
C33   C37   S    
C5    C6    A    
O16   V4    S    
C22   C38   S    
C42   H22   S    
C34   H16   S    
C35   H17   S    
C26   C30   A    
C27   C28   A    
C7    C39   S    
O14   V3    S    
C8    H3    S    
O14   C38   A    
C29   H11   S    
C7    C8    A    
C32   C43   S    
C25   H14   S    
C24   C42   S    
