data_mof_unit_15976.cif
_audit_creation_date              2012-12-11T14:27:56-0500
_audit_creation_method            fapswitch 2.2
_symmetry_space_group_name_H-M    P1
_symmetry_Int_Tables_number       1
_space_group_crystal_system       triclinic
_cell_length_a                    6.931147
_cell_length_b                    14.831354
_cell_length_c                    16.099368
_cell_angle_alpha                 91.074381
_cell_angle_beta                  89.815683
_cell_angle_gamma                 90.117141
_cell_volume                      1654.68480375

loop_
_atom_site_label
_atom_site_type_symbol
_atom_type_description
_atom_site_fract_x
_atom_site_fract_y
_atom_site_fract_z
_atom_type_partial_charge
O1    O     O_R   0.494510 0.415970 0.413200 -0.550240
O2    O     O_R   0.823800 0.407430 0.586200 -0.554149
O3    O     O_R   0.994130 0.584030 0.586800 -0.536608
C1    C     C_R   0.653147 0.386107 0.614411 0.692440
O4    O     O_R   0.824220 0.405090 0.413820 -0.537853
O5    O     O_R   0.994560 0.581670 0.413190 -0.516876
C2    C     C_R   0.654968 0.382469 0.385707 0.728087
O6    O     O_R   0.494090 0.418330 0.586810 -0.533551
O7    O     O_3   0.660810 0.557940 0.500000 -0.366642
V1    V     V_3+5 0.935650 0.489250 0.500000 1.441267
O8    O     O_R   0.324270 0.592570 0.413800 -0.561791
C3    C     C_R   0.155182 0.612829 0.384293 0.787037
O9    O     O_R   0.323850 0.594910 0.586180 -0.525570
C4    C     C_R   0.154976 0.616549 0.615170 0.713716
V2    V     V_3+5 0.435660 0.510750 0.500000 1.433220
O10   O     O_3   0.160630 0.442060 0.500000 -0.379926
C5    C     C_3   0.954530 0.718054 0.726225 -0.173888
C6    C     C_3   0.050650 0.710756 0.813068 -0.186599
H1    H     H_    0.983290 0.680308 0.868597 0.156689
H2    H     H_    0.807076 0.695056 0.709545 0.176345
C7    C     C_3   0.121425 0.809152 0.806759 -0.095184
C8    C     C_3   0.026728 0.816312 0.720872 0.029787
C9    C     C_3   0.215144 0.784348 0.678129 -0.167784
C10   C     C_3   0.311320 0.777250 0.764951 -0.165504
C11   C     C_3   0.239309 0.679027 0.770337 0.046644
C12   C     C_3   0.144388 0.685942 0.684547 -0.080751
H3    H     H_    0.282154 0.814808 0.622534 0.141168
H4    H     H_    0.458946 0.800978 0.780930 0.137386
C13   C     C_2   0.997786 0.683512 0.261758 0.237784
C14   C     C_2   0.142168 0.682219 0.318864 -0.336735
H5    H     H_    0.250141 0.735291 0.320225 0.118067
C15   C     C_2   0.972574 0.759339 0.201906 -0.022580
C16   C     C_2   0.124107 0.805647 0.169836 -0.414489
H6    H     H_    0.269060 0.787670 0.188529 0.160908
C17   C     C_2   0.770567 0.219391 0.790780 -0.107874
C18   C     C_2   0.618471 0.165345 0.806394 -0.271439
H7    H     H_    0.896018 0.216428 0.830906 0.132947
H8    H     H_    0.495547 0.161146 0.765516 0.176311
C19   C     C_2   0.782113 0.283510 0.720542 -0.165286
C20   C     C_2   0.628928 0.320834 0.682367 0.127648
H9    H     H_    0.926329 0.304377 0.702549 0.107248
C21   C     C_2   0.779728 0.207130 0.211495 -0.121771
C22   C     C_2   0.614471 0.179473 0.174823 -0.297600
H10   H     H_    0.915782 0.178535 0.190303 0.136764
H11   H     H_    0.476756 0.207421 0.193814 0.126744
C23   C     C_2   0.792079 0.276055 0.279994 -0.123277
C24   C     C_2   0.638473 0.313903 0.318303 -0.296741
H12   H     H_    0.936180 0.295558 0.299740 0.136536
H13   H     H_    0.493221 0.295130 0.300439 0.129489
O11   O     O_R   0.771000 0.074870 0.906030 -0.528268
O12   O     O_R   0.440710 0.088040 0.078970 -0.547589
O13   O     O_R   0.270540 0.911420 0.079570 -0.540153
C25   C     C_R   0.609333 0.110373 0.107428 0.750267
O14   O     O_R   0.441280 0.085700 0.906600 -0.546866
O15   O     O_R   0.271110 0.909060 0.905960 -0.548126
C26   C     C_R   0.610627 0.105704 0.877866 0.737591
O16   O     O_R   0.770430 0.077230 0.079640 -0.542805
O17   O     O_3   0.604340 0.935220 0.992820 -0.367891
V3    V     V_3+5 0.329430 0.003850 0.992770 1.446746
O18   O     O_R   0.941400 0.898110 0.906530 -0.527574
C27   C     C_R   0.110361 0.877181 0.877113 0.750291
O19   O     O_R   0.940830 0.900450 0.078910 -0.529029
C28   C     C_R   0.109674 0.877468 0.106304 0.769869
V4    V     V_3+5 0.829450 0.982250 0.992700 1.499666
O20   O     O_3   0.104410 0.051000 0.992740 -0.381235
N1    N     N_2   0.436713 0.300006 0.707834 -0.532029
H14   H     H_    0.342111 0.288240 0.659474 0.257016
C29   C     C_3   0.357242 0.359302 0.771317 -0.479064
H15   H     H_    0.224272 0.328604 0.797089 0.183092
H16   H     H_    0.318903 0.424906 0.743926 0.203473
H17   H     H_    0.461540 0.369718 0.822926 0.218736
C30   C     C_2   0.906021 0.891970 0.689429 0.721367
O21   O     O_2   0.833916 0.885543 0.620397 -0.556079
O22   O     O_R   0.877279 0.969445 0.738450 -0.670196
H18   H     H_    0.794035 0.015574 0.709901 0.290051
C31   C     C_2   0.364673 0.604050 0.799394 0.698516
O23   O     O_2   0.320711 0.562970 0.861788 -0.565966
O24   O     O_R   0.533081 0.582495 0.755558 -0.674563
H19   H     H_    0.608511 0.532063 0.781901 0.281775
N2    N     N_2   0.868638 0.608518 0.255232 -0.529321
H20   H     H_    0.857363 0.582167 0.195703 0.258692
C32   C     C_3   0.682464 0.619825 0.295173 -0.396045
H21   H     H_    0.631531 0.553405 0.316504 0.187702
H22   H     H_    0.574640 0.645283 0.250540 0.163587
H23   H     H_    0.690942 0.666817 0.349681 0.208448
C33   C     C_2   0.772967 0.778144 0.175206 0.800287
O25   O     O_2   0.667179 0.823850 0.219852 -0.575222
O26   O     O_R   0.706227 0.742804 0.099482 -0.661848
H24   H     H_    0.567457 0.760002 0.088110 0.289175

loop_
_geom_bond_atom_site_label_1
_geom_bond_atom_site_label_2
_ccdc_geom_bond_type
N1    C29   S    
O15   V3    S    
C6    C7    S    
O11   V4    S    
C17   C19   S    
C17   C18   D    
C1    O6    A    
C24   H13   S    
O19   C28   A    
C5    C12   S    
C17   H7    S    
C31   O24   S    
C13   C15   S    
O5    C3    A    
C14   H5    S    
C33   O26   S    
V2    O10   S    
C5    H2    S    
C6    H1    S    
C21   C23   S    
C9    C12   S    
O19   V4    S    
O8    V2    S    
C22   C25   S    
C1    C20   S    
C29   H15   S    
C9    C10   S    
O1    V2    S    
C9    H3    S    
O7    V1    S    
C7    C27   S    
N1    H14   S    
C20   N1    S    
O9    C4    A    
C6    C11   S    
C21   H10   S    
C8    C30   S    
C16   H6    S    
C23   H12   S    
O14   V3    S    
O17   V4    S    
O14   C26   A    
O22   H18   S    
C10   C11   S    
N2    C32   S    
C19   C20   D    
O4    C2    A    
C25   O16   A    
O24   H19   S    
N2    H20   S    
O17   V3    S    
O11   C26   A    
O18   C27   A    
O12   C25   A    
C2    C24   S    
O2    C1    A    
C13   C14   D    
C18   C26   S    
O13   V3    S    
C16   C28   S    
C15   C33   S    
C5    C6    S    
C4    C12   S    
C22   H11   S    
O3    C4    A    
C30   O22   S    
O6    V2    S    
C32   H22   S    
O9    V2    S    
O12   V3    S    
C21   C22   D    
O2    V1    S    
C33   O25   D    
O16   V4    S    
C23   C24   D    
C3    C14   S    
O1    C2    A    
C10   H4    S    
C30   O21   D    
O13   C28   A    
O5    V1    S    
O8    C3    A    
C32   H23   S    
C5    C8    S    
O18   V4    S    
C11   C31   S    
C15   C16   D    
C18   H8    S    
C11   C12   S    
O4    V1    S    
O3    V1    S    
V1    O10   S    
V3    O20   S    
C31   O23   D    
C13   N2    S    
C29   H17   S    
O15   C27   A    
V4    O20   S    
O7    V2    S    
O26   H24   S    
C19   H9    S    
C29   H16   S    
C32   H21   S    
C7    C10   S    
C8    C9    S    
C7    C8    S    
