data_mof_unit_7685.cif
_audit_creation_date              2013-03-05T15:59:42-0500
_audit_creation_method            fapswitch 2.2
_symmetry_space_group_name_H-M    P1
_symmetry_Int_Tables_number       1
_space_group_crystal_system       triclinic
_cell_length_a                    18.288548
_cell_length_b                    25.942866
_cell_length_c                    18.341229
_cell_angle_alpha                 89.943533
_cell_angle_beta                  90.371199
_cell_angle_gamma                 90.05377
_cell_volume                      8701.9402768

loop_
_atom_site_label
_atom_site_type_symbol
_atom_site_description
_atom_site_fract_x
_atom_site_fract_y
_atom_site_fract_z
_atom_type_partial_charge
Zn1   Zn    Zn3+2 0.500000 0.706650 0.586810 0.972604
Zn2   Zn    Zn3+2 0.500000 0.293350 0.413190 0.971964
Zn3   Zn    Zn3+2 0.500000 0.706650 0.413190 0.979096
Zn4   Zn    Zn3+2 0.500000 0.293350 0.586810 0.975113
Zn5   Zn    Zn3+2 0.000000 0.206650 0.086810 0.963116
Zn6   Zn    Zn3+2 0.000000 0.793350 0.913190 0.981626
Zn7   Zn    Zn3+2 0.000000 0.206650 0.913190 0.973846
Zn8   Zn    Zn3+2 1.000000 0.793350 0.086810 0.973461
Zn9   Zn    Zn3+2 0.586710 0.793420 0.500000 0.995624
Zn10  Zn    Zn3+2 0.413290 0.206580 0.500000 0.977303
Zn11  Zn    Zn3+2 0.413290 0.793420 0.500000 0.979713
Zn12  Zn    Zn3+2 0.586710 0.206580 0.500000 0.978271
Zn13  Zn    Zn3+2 0.086710 0.293420 0.000000 0.978857
Zn14  Zn    Zn3+2 0.913290 0.706580 0.000000 0.977737
Zn15  Zn    Zn3+2 0.913290 0.293420 0.000000 0.980953
Zn16  Zn    Zn3+2 0.086710 0.706580 0.000000 0.988366
O1    O     O_3   0.500000 0.750040 0.500000 -0.505001
O2    O     O_3   0.500000 0.249960 0.500000 -0.500177
O3    O     O_3   0.000000 0.250040 0.000000 -0.497436
O4    O     O_3   0.000000 0.749960 0.000000 -0.496166
O5    O     O_R   0.585420 0.719700 0.353880 -0.665660
O6    O     O_R   0.414580 0.280300 0.646120 -0.663010
O7    O     O_R   0.414580 0.719700 0.646120 -0.663011
O8    O     O_R   0.585420 0.280300 0.353880 -0.663383
O9    O     O_R   0.585420 0.280300 0.646120 -0.639983
O10   O     O_R   0.414580 0.719700 0.353880 -0.635972
O11   O     O_R   0.414580 0.280300 0.353880 -0.641430
O12   O     O_R   0.585420 0.719700 0.646120 -0.640181
O13   O     O_R   0.085420 0.219700 0.853880 -0.666343
O14   O     O_R   0.914580 0.780300 0.146120 -0.661551
O15   O     O_R   0.914580 0.219700 0.146120 -0.674333
O16   O     O_R   0.085420 0.780300 0.853880 -0.657743
O17   O     O_R   0.085420 0.780300 0.146120 -0.648632
O18   O     O_R   0.914580 0.219700 0.853880 -0.636088
O19   O     O_R   0.914580 0.780300 0.853880 -0.646784
O20   O     O_R   0.085420 0.219700 0.146120 -0.651873
O21   O     O_R   0.646120 0.780390 0.585510 -0.609293
O22   O     O_R   0.353880 0.219610 0.414490 -0.620192
O23   O     O_R   0.353880 0.780390 0.414490 -0.609961
O24   O     O_R   0.646120 0.219610 0.585510 -0.618976
O25   O     O_R   0.646120 0.219610 0.414490 -0.604028
O26   O     O_R   0.353880 0.780390 0.585510 -0.616494
O27   O     O_R   0.353880 0.219610 0.585510 -0.604509
O28   O     O_R   0.646120 0.780390 0.414490 -0.596698
O29   O     O_R   0.146120 0.280390 0.085510 -0.616897
O30   O     O_R   0.853880 0.719610 0.914490 -0.620140
O31   O     O_R   0.853880 0.280390 0.914490 -0.619836
O32   O     O_R   0.146120 0.719610 0.085510 -0.613878
O33   O     O_R   0.146120 0.719610 0.914490 -0.608648
O34   O     O_R   0.853880 0.280390 0.085510 -0.614634
O35   O     O_R   0.853880 0.719610 0.085510 -0.606065
O36   O     O_R   0.146120 0.280390 0.914490 -0.615609
O37   O     O_R   0.560660 0.865840 0.500000 -0.631589
O38   O     O_R   0.439340 0.134160 0.500000 -0.638369
O39   O     O_R   0.439340 0.865840 0.500000 -0.647016
O40   O     O_R   0.560660 0.134160 0.500000 -0.637870
O41   O     O_R   0.060660 0.365840 0.000000 -0.645742
O42   O     O_R   0.939340 0.634160 0.000000 -0.640296
O43   O     O_R   0.939340 0.365840 0.000000 -0.644780
O44   O     O_R   0.060660 0.634160 0.000000 -0.634789
O45   O     O_R   0.500000 0.634240 0.439310 -0.596626
O46   O     O_R   0.500000 0.365760 0.560690 -0.629573
O47   O     O_R   0.500000 0.634240 0.560690 -0.595081
O48   O     O_R   0.500000 0.365760 0.439310 -0.630246
O49   O     O_R   0.000000 0.134240 0.939310 -0.608347
O50   O     O_R   1.000000 0.865760 0.060690 -0.644806
O51   O     O_R   0.000000 0.134240 0.060690 -0.603932
O52   O     O_R   0.000000 0.865760 0.939310 -0.631617
C1    C     C_R   0.640406 0.750152 0.360038 0.838457
C2    C     C_R   0.359797 0.249684 0.640059 0.832602
C3    C     C_R   0.359624 0.750095 0.639936 0.839508
C4    C     C_R   0.640151 0.249664 0.359881 0.832480
C5    C     C_R   0.640075 0.249801 0.640002 0.844779
C6    C     C_R   0.360343 0.750506 0.359564 0.862262
C7    C     C_R   0.360032 0.249683 0.359847 0.839426
C8    C     C_R   0.639640 0.750613 0.640525 0.854325
C9    C     C_R   0.140142 0.250399 0.859786 0.842569
C10   C     C_R   0.860390 0.749067 0.140619 0.832068
C11   C     C_R   0.859869 0.250369 0.140216 0.846970
C12   C     C_R   0.140167 0.749667 0.859873 0.815352
C13   C     C_R   0.140046 0.749782 0.140057 0.833328
C14   C     C_R   0.860312 0.250507 0.859586 0.874071
C15   C     C_R   0.859901 0.749771 0.860001 0.841471
C16   C     C_R   0.139674 0.250509 0.140454 0.871636
C17   C     C_R   0.499943 0.890108 0.500013 0.873323
C18   C     C_R   0.499943 0.109896 0.500055 0.859480
C19   C     C_R   0.000023 0.390125 0.000028 0.866674
C20   C     C_R   0.999972 0.609901 0.999977 0.853926
C21   C     C_R   0.500235 0.609586 0.500055 0.797636
C22   C     C_R   0.499859 0.389588 0.499962 0.964324
C23   C     C_R   0.999430 0.109692 0.000134 0.871667
C24   C     C_R   0.999735 0.889632 0.999945 1.003864
C25   C     C_R   0.435035 0.544786 0.376667 0.479528
C26   C     C_R   0.614561 0.448397 0.574657 0.447828
C27   C     C_R   0.565665 0.544258 0.623820 0.449566
C28   C     C_R   0.384876 0.449225 0.426154 0.421265
C29   C     C_R   0.894921 0.046880 0.905478 0.448960
C30   C     C_R   0.127195 0.947755 0.045054 0.391646
C31   C     C_R   0.098642 0.046268 0.099177 0.389510
C32   C     C_R   0.869983 0.946528 0.955322 0.405903
C33   C     C_R   0.375399 0.520907 0.341935 -0.021071
C34   C     C_R   0.651260 0.472795 0.632196 0.015744
C35   C     C_R   0.624512 0.519463 0.659340 -0.087405
C36   C     C_R   0.347651 0.474500 0.369232 -0.051925
C37   C     C_R   0.830089 0.020870 0.886380 -0.012183
C38   C     C_R   0.178252 0.971416 0.091833 0.010645
C39   C     C_R   0.163060 0.020034 0.120464 -0.006807
C40   C     C_R   0.816773 0.971402 0.912681 -0.033266
C41   C     C_R   0.448412 0.472299 0.457466 -0.142180
C42   C     C_R   0.538269 0.524305 0.556291 -0.114956
C43   C     C_R   0.551812 0.472029 0.542715 -0.170769
C44   C     C_R   0.462515 0.524504 0.443946 -0.145555
C45   C     C_R   0.937349 0.971826 0.972078 -0.138913
C46   C     C_R   0.051207 0.025012 0.043952 -0.132106
C47   C     C_R   0.059482 0.972325 0.028786 -0.139934
C48   C     C_R   0.944354 0.025106 0.958417 -0.141061
C49   C     C_R   0.500078 0.445173 0.499944 -0.095926
C50   C     C_R   0.500437 0.552708 0.500119 -0.108047
C51   C     C_R   0.998934 0.945362 0.999861 -0.092024
C52   C     C_R   0.998237 0.053000 0.000764 -0.091047
C53   C     C_R   0.238090 0.779159 0.686431 0.493659
C54   C     C_R   0.762967 0.221994 0.314907 0.481860
C55   C     C_R   0.760805 0.781015 0.312267 0.487494
C56   C     C_R   0.236619 0.222433 0.684779 0.480857
C57   C     C_R   0.263798 0.203890 0.288529 0.469663
C58   C     C_R   0.738474 0.795625 0.708762 0.493872
C59   C     C_R   0.736186 0.204122 0.711372 0.465683
C60   C     C_R   0.264927 0.796483 0.288406 0.489849
C61   C     C_R   0.739881 0.281473 0.188432 0.498545
C62   C     C_R   0.264931 0.724408 0.816474 0.505481
C63   C     C_R   0.260321 0.281335 0.811586 0.498428
C64   C     C_R   0.739449 0.719080 0.187627 0.486019
C65   C     C_R   0.760510 0.705067 0.791762 0.470140
C66   C     C_R   0.235780 0.296054 0.211272 0.472822
C67   C     C_R   0.236684 0.704272 0.210967 0.469046
C68   C     C_R   0.764656 0.296243 0.788255 0.471120
C69   C     C_R   0.686310 0.278819 0.241522 -0.351321
C70   C     C_R   0.315803 0.723518 0.760684 -0.360719
C71   C     C_R   0.313873 0.278648 0.758493 -0.351792
C72   C     C_R   0.687392 0.719682 0.242437 -0.376277
C73   C     C_R   0.706220 0.706718 0.738778 -0.366185
C74   C     C_R   0.290067 0.294534 0.265039 -0.369378
C75   C     C_R   0.290793 0.705674 0.264199 -0.354742
C76   C     C_R   0.710893 0.294971 0.733978 -0.355924
C77   C     C_R   0.185007 0.777088 0.740131 -0.343759
C78   C     C_R   0.814967 0.222347 0.260033 -0.368670
C79   C     C_R   0.814941 0.777594 0.259369 -0.388219
C80   C     C_R   0.184680 0.222710 0.739722 -0.363998
C81   C     C_R   0.209544 0.205368 0.235387 -0.373311
C82   C     C_R   0.791914 0.794221 0.763477 -0.381647
C83   C     C_R   0.790199 0.205457 0.764779 -0.357146
C84   C     C_R   0.210411 0.794944 0.234514 -0.385131
H1    H     H_    0.635352 0.299093 0.232470 0.192833
H2    H     H_    0.365718 0.701715 0.768791 0.199249
H3    H     H_    0.365025 0.298710 0.767638 0.192774
H4    H     H_    0.639272 0.695649 0.236182 0.196956
H5    H     H_    0.672275 0.672965 0.730461 0.194164
H6    H     H_    0.318852 0.329445 0.279815 0.177061
H7    H     H_    0.322319 0.671083 0.274929 0.210233
H8    H     H_    0.683029 0.330212 0.718609 0.195608
H9    H     H_    0.133356 0.796305 0.730467 0.190948
H10   H     H_    0.863891 0.199334 0.267288 0.199959
H11   H     H_    0.866035 0.797896 0.267663 0.187609
H12   H     H_    0.135533 0.199877 0.732357 0.198672
H13   H     H_    0.178120 0.170801 0.224472 0.193143
H14   H     H_    0.822634 0.828775 0.776313 0.183898
H15   H     H_    0.821234 0.170773 0.775952 0.203137
H16   H     H_    0.181541 0.829747 0.219293 0.172794
C85   C     C_R   0.697339 0.249859 0.304907 -0.162957
C86   C     C_R   0.303488 0.750959 0.696045 -0.184747
C87   C     C_R   0.302557 0.249945 0.694967 -0.163027
C88   C     C_R   0.697126 0.750533 0.304385 -0.154471
C89   C     C_R   0.695669 0.751208 0.696858 -0.147550
C90   C     C_R   0.304269 0.248951 0.303340 -0.155019
C91   C     C_R   0.304370 0.751041 0.303206 -0.146439
C92   C     C_R   0.696125 0.249267 0.696209 -0.161237
C93   C     C_R   0.197675 0.750230 0.805154 -0.175131
C94   C     C_R   0.804084 0.251652 0.196736 -0.177799
C95   C     C_R   0.804077 0.748203 0.196479 -0.139111
C96   C     C_R   0.195881 0.251733 0.803200 -0.179744
C97   C     C_R   0.195853 0.250824 0.196562 -0.141708
C98   C     C_R   0.803670 0.749276 0.804018 -0.157242
C99   C     C_R   0.804140 0.250904 0.803443 -0.151039
C100  C     C_R   0.196072 0.749272 0.196360 -0.154371
C101  C     C_R   0.451347 0.972891 0.545727 0.017160
C102  C     C_R   0.547801 0.027109 0.453851 0.012443
C103  C     C_R   0.547032 0.973022 0.453181 0.016050
C104  C     C_R   0.451079 0.026993 0.545463 0.012465
C105  C     C_R   0.947206 0.472981 0.040653 0.015301
C106  C     C_R   0.052810 0.527122 0.959329 0.011030
C107  C     C_R   0.052801 0.473100 0.959358 0.018447
C108  C     C_R   0.947065 0.527002 0.040546 0.013327
C109  C     C_R   0.499728 0.053777 0.499920 -0.038412
C110  C     C_R   0.499600 0.946244 0.499810 -0.045649
C111  C     C_R   0.999937 0.553801 0.999944 -0.041051
C112  C     C_R   0.000042 0.446280 0.000048 -0.053494
N1    N     N_3   0.656164 0.540887 0.724290 -0.460110
H17   H     H_    0.673376 0.578379 0.712533 0.202015
H18   H     H_    0.615762 0.542928 0.764224 0.204560
N2    N     N_3   0.284018 0.451957 0.336207 -0.451663
H19   H     H_    0.298098 0.415533 0.316666 0.216059
H20   H     H_    0.244348 0.447189 0.376426 0.200554
N3    N     N_3   0.345166 0.543619 0.277176 -0.411122
H21   H     H_    0.348751 0.516725 0.234919 0.195550
H22   H     H_    0.289842 0.551112 0.286357 0.195107
N4    N     N_3   0.713377 0.448197 0.665130 -0.405960
H23   H     H_    0.757629 0.473669 0.662655 0.189816
H24   H     H_    0.701749 0.441424 0.720047 0.204098
N5    N     N_3   0.213428 0.041829 0.172768 -0.450817
H25   H     H_    0.262463 0.049217 0.145673 0.190019
H26   H     H_    0.195434 0.077301 0.192446 0.218126
N6    N     N_3   0.749738 0.945870 0.893627 -0.460641
H27   H     H_    0.762256 0.910240 0.870243 0.212910
H28   H     H_    0.720244 0.939198 0.941280 0.194801
N7    N     N_3   0.778297 0.045551 0.838810 -0.444374
H29   H     H_    0.770772 0.022313 0.792805 0.195880
H30   H     H_    0.728343 0.048157 0.865950 0.195996
N8    N     N_3   0.245333 0.946082 0.112553 -0.443714
H31   H     H_    0.242428 0.937894 0.168298 0.198944
H32   H     H_    0.251239 0.910615 0.086439 0.221780
O53   O     O_3   0.473643 0.580553 0.336206 -0.582603
C113  C     C_3   0.533200 0.556329 0.300724 0.118696
H33   H     H_    0.532270 0.568830 0.242765 0.157463
H34   H     H_    0.530391 0.513251 0.300115 0.106395
C114  C     C_3   0.605626 0.573683 0.335236 -0.324157
H35   H     H_    0.609452 0.616388 0.333178 0.252550
H36   H     H_    0.607908 0.561317 0.393145 0.210079
C115  C     C_3   0.671064 0.550732 0.295745 -0.999655
H37   H     H_    0.669812 0.508008 0.299630 0.268549
H38   H     H_    0.722453 0.564786 0.321489 0.271786
H39   H     H_    0.670685 0.562570 0.237515 0.282200
O54   O     O_3   0.642189 0.402246 0.549003 -0.631235
C116  C     C_3   0.680963 0.412223 0.484069 0.067022
H40   H     H_    0.723718 0.442328 0.493014 0.138809
H41   H     H_    0.642864 0.425274 0.440140 0.139894
C117  C     C_3   0.718654 0.362847 0.459217 -0.308839
H42   H     H_    0.759931 0.351050 0.500736 0.215494
H43   H     H_    0.677480 0.331568 0.454211 0.212752
C118  C     C_3   0.756310 0.370548 0.385907 -0.995661
H44   H     H_    0.715315 0.379832 0.342919 0.270384
H45   H     H_    0.785306 0.334751 0.370158 0.251281
H46   H     H_    0.796927 0.402314 0.389538 0.266294
O55   O     O_3   0.527551 0.580551 0.663595 -0.602448
C119  C     C_3   0.467871 0.556828 0.699755 0.094977
H47   H     H_    0.468959 0.569941 0.757404 0.149586
H48   H     H_    0.470421 0.513756 0.701414 0.113064
C120  C     C_3   0.395458 0.573916 0.665011 -0.302844
H49   H     H_    0.391497 0.616613 0.666836 0.252328
H50   H     H_    0.393278 0.561439 0.607184 0.209497
C121  C     C_3   0.330044 0.550818 0.704536 -1.004561
H51   H     H_    0.331287 0.508104 0.700604 0.268709
H52   H     H_    0.278642 0.564853 0.678845 0.270585
H53   H     H_    0.330482 0.562533 0.762779 0.282570
O56   O     O_3   0.356930 0.403097 0.451854 -0.651120
C122  C     C_3   0.320452 0.412682 0.518217 0.052693
H54   H     H_    0.279264 0.444109 0.511832 0.131389
H55   H     H_    0.360377 0.423735 0.561592 0.149398
C123  C     C_3   0.280613 0.363819 0.542067 -0.314344
H56   H     H_    0.237991 0.353856 0.500931 0.209999
H57   H     H_    0.320163 0.331442 0.545222 0.214171
C124  C     C_3   0.244701 0.371052 0.616309 -0.990834
H58   H     H_    0.286903 0.378604 0.658814 0.270578
H59   H     H_    0.214214 0.335664 0.631393 0.250882
H60   H     H_    0.205643 0.403799 0.614497 0.265333
O57   O     O_3   0.910970 0.091191 0.866877 -0.603219
C125  C     C_3   0.937567 0.078395 0.796511 0.143826
H61   H     H_    0.924376 0.110970 0.759389 0.156249
H62   H     H_    0.910655 0.043756 0.772391 0.117897
C126  C     C_3   0.020817 0.071096 0.797287 -0.348956
H63   H     H_    0.047848 0.107470 0.814579 0.256472
H64   H     H_    0.036108 0.040113 0.836327 0.214791
C127  C     C_3   0.048845 0.056610 0.721861 -0.985118
H65   H     H_    0.023838 0.019743 0.703551 0.267112
H66   H     H_    0.109148 0.051793 0.724068 0.276589
H67   H     H_    0.035507 0.087417 0.681828 0.270262
O58   O     O_3   0.146681 0.902494 0.010686 -0.671026
C128  C     C_3   0.176434 0.915052 0.941834 0.066345
H68   H     H_    0.209318 0.951422 0.942615 0.135361
H69   H     H_    0.131251 0.919337 0.901352 0.162758
C129  C     C_3   0.226999 0.871666 0.918168 -0.319333
H70   H     H_    0.273533 0.868540 0.957204 0.208134
H71   H     H_    0.196091 0.835029 0.919254 0.215659
C130  C     C_3   0.256574 0.880814 0.841684 -0.988077
H72   H     H_    0.210780 0.883058 0.801779 0.272094
H73   H     H_    0.292992 0.848442 0.826231 0.260072
H74   H     H_    0.288489 0.917228 0.839836 0.263927
O59   O     O_3   0.078914 0.088120 0.140965 -0.620391
C131  C     C_3   0.030538 0.071282 0.196023 0.110544
H75   H     H_    0.054218 0.038429 0.227599 0.124752
H76   H     H_    0.977449 0.059114 0.171308 0.146442
C132  C     C_3   0.016733 0.115697 0.248896 -0.304879
H77   H     H_    0.069084 0.126982 0.275539 0.213857
H78   H     H_    0.995259 0.149444 0.218343 0.271253
C133  C     C_3   0.961831 0.100695 0.307552 -0.988903
H79   H     H_    0.908347 0.090581 0.282290 0.273375
H80   H     H_    0.953599 0.133681 0.345173 0.270047
H81   H     H_    0.982437 0.067299 0.339558 0.267543
O60   O     O_3   0.853583 0.898253 0.982843 -0.661704
C134  C     C_3   0.820557 0.903965 0.052020 0.058818
H82   H     H_    0.790849 0.941314 0.058756 0.124525
H83   H     H_    0.863538 0.901667 0.095038 0.163121
C135  C     C_3   0.765492 0.860397 0.062989 -0.319829
H84   H     H_    0.723533 0.861561 0.018943 0.211324
H85   H     H_    0.794123 0.822869 0.059463 0.212591
C136  C     C_3   0.727508 0.864906 0.136561 -1.000674
H86   H     H_    0.768504 0.865829 0.181413 0.263105
H87   H     H_    0.690741 0.831347 0.144734 0.258863
H88   H     H_    0.694297 0.900693 0.138509 0.265269
O61   O     O_3   0.222836 0.805299 0.622249 -0.625609
C137  C     C_3   0.239063 0.858453 0.630544 0.124555
H89   H     H_    0.271243 0.870643 0.582341 0.183287
H90   H     H_    0.273480 0.867736 0.679385 0.117070
C138  C     C_3   0.168273 0.889895 0.631817 -0.373196
H91   H     H_    0.136338 0.882275 0.581187 0.233687
H92   H     H_    0.134620 0.878283 0.679191 0.215573
C139  C     C_3   0.183924 0.947539 0.637364 -0.979461
H93   H     H_    0.214495 0.956214 0.688443 0.266143
H94   H     H_    0.131529 0.969083 0.637825 0.276769
H95   H     H_    0.216312 0.960699 0.589916 0.263557
O62   O     O_3   0.774133 0.190651 0.374995 -0.613410
C140  C     C_3   0.816129 0.217846 0.427157 0.066657
H96   H     H_    0.788265 0.254321 0.442931 0.138925
H97   H     H_    0.871434 0.226876 0.405350 0.124119
C141  C     C_3   0.824822 0.184354 0.495271 -0.270453
H98   H     H_    0.769928 0.173082 0.515562 0.273942
H99   H     H_    0.855236 0.148694 0.481116 0.210334
C142  C     C_3   0.865899 0.212872 0.555697 -0.931364
H100  H     H_    0.921113 0.224455 0.536773 0.247032
H101  H     H_    0.872212 0.187206 0.603815 0.281249
H102  H     H_    0.834997 0.247718 0.572451 0.266751
O63   O     O_3   0.773162 0.809716 0.374995 -0.617092
C143  C     C_3   0.781024 0.862487 0.357007 0.097348
H103  H     H_    0.732623 0.876438 0.325391 0.132875
H104  H     H_    0.831456 0.869207 0.324823 0.131272
C144  C     C_3   0.787375 0.893917 0.427136 -0.310931
H105  H     H_    0.734796 0.891897 0.457012 0.234181
H106  H     H_    0.830977 0.877275 0.462482 0.221094
C145  C     C_3   0.806259 0.950170 0.411086 -1.010020
H107  H     H_    0.862488 0.953024 0.388885 0.271879
H108  H     H_    0.803574 0.973025 0.462116 0.267387
H109  H     H_    0.767313 0.966871 0.370853 0.259923
O64   O     O_3   0.225049 0.191468 0.624434 -0.613698
C146  C     C_3   0.184169 0.219364 0.572100 0.067108
H110  H     H_    0.213146 0.255527 0.556633 0.137621
H111  H     H_    0.129008 0.229050 0.593613 0.126238
C147  C     C_3   0.174947 0.186192 0.503794 -0.267126
H112  H     H_    0.229650 0.174479 0.483611 0.273169
H113  H     H_    0.143754 0.150761 0.517699 0.211065
C148  C     C_3   0.134618 0.215258 0.443354 -0.933252
H114  H     H_    0.079616 0.227308 0.462182 0.247243
H115  H     H_    0.127827 0.189778 0.395156 0.282482
H116  H     H_    0.166310 0.249852 0.426763 0.264611
O65   O     O_3   0.271919 0.159687 0.329989 -0.633754
C149  C     C_3   0.326520 0.128448 0.298809 0.085386
H117  H     H_    0.380293 0.148683 0.299648 0.124702
H118  H     H_    0.312115 0.118235 0.241493 0.122335
C150  C     C_3   0.333063 0.078844 0.343520 -0.296664
H119  H     H_    0.344299 0.088666 0.401486 0.246730
H120  H     H_    0.280509 0.057326 0.340793 0.226091
C151  C     C_3   0.394366 0.044423 0.315578 -0.977185
H121  H     H_    0.382874 0.032412 0.258525 0.270083
H122  H     H_    0.398593 0.009439 0.350283 0.267580
H123  H     H_    0.447436 0.065218 0.317875 0.260782
O66   O     O_3   0.719531 0.841543 0.674258 -0.631421
C152  C     C_3   0.780774 0.867523 0.644700 0.110939
H124  H     H_    0.770018 0.873100 0.585647 0.164916
H125  H     H_    0.833360 0.845877 0.648689 0.118747
C153  C     C_3   0.788380 0.920641 0.680282 -0.349995
H126  H     H_    0.737277 0.942989 0.671147 0.235798
H127  H     H_    0.796686 0.916183 0.739942 0.221337
C154  C     C_3   0.852686 0.950695 0.648962 -0.985249
H128  H     H_    0.904834 0.930281 0.660646 0.269400
H129  H     H_    0.855100 0.989511 0.674265 0.258396
H130  H     H_    0.846064 0.955390 0.589125 0.269729
O67   O     O_3   0.728124 0.160085 0.669650 -0.632167
C155  C     C_3   0.675894 0.127554 0.702373 0.085125
H131  H     H_    0.621448 0.146785 0.703708 0.123721
H132  H     H_    0.692832 0.117147 0.758967 0.140478
C156  C     C_3   0.669574 0.078193 0.657209 -0.305606
H133  H     H_    0.655673 0.088236 0.599853 0.249724
H134  H     H_    0.723051 0.057829 0.657586 0.216277
C157  C     C_3   0.610893 0.042170 0.686961 -0.988862
H135  H     H_    0.624461 0.030596 0.743781 0.265030
H136  H     H_    0.607719 0.006992 0.652605 0.273541
H137  H     H_    0.556704 0.061470 0.685868 0.264463
O68   O     O_3   0.288792 0.842581 0.319340 -0.634650
C158  C     C_3   0.230248 0.873710 0.343032 0.091181
H138  H     H_    0.187686 0.850454 0.371423 0.139258
H139  H     H_    0.205575 0.894387 0.295814 0.133496
C159  C     C_3   0.260395 0.913980 0.396174 -0.285779
H140  H     H_    0.283693 0.894316 0.444925 0.237383
H141  H     H_    0.304926 0.936028 0.369374 0.228385
C160  C     C_3   0.201196 0.951568 0.420267 -1.004087
H142  H     H_    0.177162 0.971660 0.372267 0.269815
H143  H     H_    0.225575 0.980939 0.457119 0.264740
H144  H     H_    0.157378 0.930752 0.449918 0.272422
O69   O     O_3   0.725606 0.309412 0.125592 -0.629587
C161  C     C_3   0.746571 0.361564 0.135589 0.131524
H145  H     H_    0.768813 0.375323 0.082831 0.188692
H146  H     H_    0.791099 0.366983 0.176925 0.114020
C162  C     C_3   0.680186 0.394807 0.154873 -0.390141
H147  H     H_    0.635252 0.387403 0.115142 0.236555
H148  H     H_    0.660644 0.384781 0.210225 0.214110
C163  C     C_3   0.698926 0.452109 0.153978 -0.989476
H149  H     H_    0.743673 0.460504 0.193477 0.269865
H150  H     H_    0.649873 0.474722 0.169276 0.273484
H151  H     H_    0.715922 0.464316 0.098678 0.265278
O70   O     O_3   0.279782 0.696309 0.879105 -0.623178
C164  C     C_3   0.307312 0.729331 0.934334 0.146080
H152  H     H_    0.294062 0.711435 0.987722 0.197905
H153  H     H_    0.280835 0.767914 0.934260 0.100001
C165  C     C_3   0.390533 0.735244 0.929190 -0.403923
H154  H     H_    0.416564 0.696546 0.929096 0.237197
H155  H     H_    0.404863 0.755366 0.877755 0.218956
C166  C     C_3   0.420619 0.766547 0.993134 -0.947866
H156  H     H_    0.394768 0.805273 0.994457 0.262652
H157  H     H_    0.480546 0.771598 0.987100 0.264331
H158  H     H_    0.409914 0.746322 0.045412 0.273206
O71   O     O_3   0.274749 0.309145 0.874447 -0.629125
C167  C     C_3   0.254138 0.361355 0.864434 0.133017
H159  H     H_    0.231516 0.375028 0.917027 0.188072
H160  H     H_    0.210007 0.366972 0.822724 0.113776
C168  C     C_3   0.320881 0.394540 0.845828 -0.390299
H161  H     H_    0.365211 0.387256 0.886273 0.236304
H162  H     H_    0.341223 0.384359 0.790867 0.213976
C169  C     C_3   0.302237 0.451831 0.845960 -0.985945
H163  H     H_    0.258068 0.460085 0.805760 0.269196
H164  H     H_    0.351545 0.474426 0.831165 0.273524
H165  H     H_    0.284445 0.464169 0.900898 0.266392
O72   O     O_3   0.730023 0.686075 0.129117 -0.617150
C170  C     C_3   0.681940 0.709009 0.078052 0.065902
H166  H     H_    0.701485 0.748150 0.062175 0.133735
H167  H     H_    0.625873 0.711981 0.101043 0.134139
C171  C     C_3   0.679041 0.675334 0.009743 -0.271930
H168  H     H_    0.735018 0.671337 0.987213 0.274584
H169  H     H_    0.658788 0.636290 0.024431 0.209737
C172  C     C_3   0.628914 0.698412 0.951460 -0.924348
H170  H     H_    0.572346 0.701832 0.972483 0.252830
H171  H     H_    0.627908 0.672934 0.902858 0.289129
H172  H     H_    0.649048 0.737049 0.934740 0.264858
O73   O     O_3   0.765627 0.662016 0.836031 -0.636014
C173  C     C_3   0.816431 0.627210 0.806037 0.086846
H173  H     H_    0.871508 0.645412 0.802158 0.125122
H174  H     H_    0.798383 0.614407 0.750792 0.124412
C174  C     C_3   0.821683 0.580044 0.855957 -0.301466
H175  H     H_    0.834737 0.592719 0.912413 0.249843
H176  H     H_    0.768052 0.559831 0.856800 0.221796
C175  C     C_3   0.880576 0.542571 0.830756 -0.979273
H177  H     H_    0.867349 0.527900 0.775334 0.263862
H178  H     H_    0.883555 0.509421 0.869023 0.268923
H179  H     H_    0.934811 0.561891 0.830057 0.262516
O74   O     O_3   0.212558 0.342647 0.181997 -0.637377
C176  C     C_3   0.269453 0.366600 0.142772 0.106003
H180  H     H_    0.292783 0.339705 0.101629 0.149860
H181  H     H_    0.313491 0.380041 0.180277 0.127774
C177  C     C_3   0.238102 0.413615 0.103171 -0.302494
H182  H     H_    0.195904 0.400894 0.063155 0.244765
H183  H     H_    0.211661 0.439554 0.143373 0.230813
C178  C     C_3   0.297465 0.443620 0.063367 -1.011777
H184  H     H_    0.339522 0.457573 0.102635 0.269033
H185  H     H_    0.272667 0.477506 0.035692 0.264037
H186  H     H_    0.323883 0.418809 0.021862 0.275724
O75   O     O_3   0.229189 0.660364 0.168821 -0.617516
C179  C     C_3   0.175551 0.628074 0.199803 0.092060
H187  H     H_    0.121605 0.647992 0.201167 0.121213
H188  H     H_    0.191506 0.616552 0.256256 0.119116
C180  C     C_3   0.168369 0.579541 0.152915 -0.295836
H189  H     H_    0.156851 0.590735 0.095496 0.255125
H190  H     H_    0.220808 0.557902 0.154250 0.218492
C181  C     C_3   0.107045 0.544485 0.179549 -0.990714
H191  H     H_    0.118206 0.531692 0.236349 0.267017
H192  H     H_    0.103312 0.509973 0.143918 0.270642
H193  H     H_    0.053832 0.565069 0.177361 0.263576
O76   O     O_3   0.787593 0.342816 0.817621 -0.635109
C182  C     C_3   0.731318 0.365039 0.859506 0.103584
H194  H     H_    0.713458 0.338011 0.903230 0.155405
H195  H     H_    0.683546 0.375463 0.824690 0.125088
C183  C     C_3   0.760763 0.414256 0.894908 -0.308704
H196  H     H_    0.806267 0.404368 0.932881 0.244406
H197  H     H_    0.782429 0.440258 0.851930 0.228952
C184  C     C_3   0.701371 0.442632 0.936780 -1.012296
H198  H     H_    0.656507 0.454443 0.899229 0.270784
H199  H     H_    0.725004 0.477772 0.962229 0.261587
H200  H     H_    0.678835 0.417501 0.980246 0.275918
N9    N     N_3   0.404104 0.944602 0.593563 -0.460357
H201  H     H_    0.349976 0.954401 0.581572 0.179686
H202  H     H_    0.415824 0.954975 0.647422 0.178352
N10   N     N_3   0.595665 0.055359 0.406543 -0.437742
H203  H     H_    0.584165 0.045328 0.352513 0.173097
H204  H     H_    0.649699 0.045266 0.418714 0.199267
N11   N     N_3   0.592371 0.944860 0.403655 -0.453565
H205  H     H_    0.578539 0.955337 0.350298 0.175279
H206  H     H_    0.646681 0.955038 0.413539 0.196268
N12   N     N_3   0.403160 0.055129 0.592685 -0.436381
H207  H     H_    0.349126 0.045058 0.580381 0.196601
H208  H     H_    0.414554 0.044964 0.646714 0.174620
N13   N     N_3   0.894882 0.444869 0.083087 -0.457995
H209  H     H_    0.842506 0.454750 0.064963 0.183143
H210  H     H_    0.900504 0.455261 0.137864 0.176210
N14   N     N_3   0.104948 0.555240 0.916542 -0.429694
H211  H     H_    0.098497 0.545084 0.861757 0.175907
H212  H     H_    0.157684 0.545317 0.933758 0.197030
N15   N     N_3   0.105124 0.445105 0.916920 -0.458118
H213  H     H_    0.099419 0.455495 0.862124 0.175759
H214  H     H_    0.157526 0.455064 0.934937 0.182744
N16   N     N_3   0.894742 0.554996 0.083110 -0.429985
H215  H     H_    0.842073 0.545001 0.065712 0.192735
H216  H     H_    0.901001 0.544826 0.137935 0.178106

loop_
_geom_bond_atom_site_label_1
_geom_bond_atom_site_label_2
_geom_bond_distance
_ccdc_geom_bond_type
Zn6   O16   1.939638 S    
C178  H184  1.110937 S    
C122  H55   1.113914 S    
C150  H119  1.111349 S    
C37   N7    1.434470 S    
C102  C109  1.406234 A    
C132  H77   1.111231 S    
C75   C91   1.399116 A    
Zn5   O51   1.939107 S    
C158  C159  1.529528 S    
O34   C11   1.273784 A    
C42   C50   1.439920 A    
C46   C47   1.403642 A    
C172  H170  1.110072 S    
N3    H22   1.045241 S    
Zn7   O13   1.938752 S    
C134  H83   1.111728 S    
C167  H159  1.110670 S    
C24   C51   1.445873 S    
C18   C109  1.455891 S    
C172  H172  1.111093 S    
C38   C39   1.395589 A    
Zn10  O38   1.938679 S    
C121  H52   1.110349 S    
Zn5   O20   1.927737 S    
C26   C43   1.424055 A    
C114  C115  1.524757 S    
Zn6   O19   1.927739 S    
C67   O75   1.383441 S    
C35   N1    1.433477 S    
O23   C6    1.277958 A    
N1    H18   1.045189 S    
C107  C112  1.406809 A    
C155  H132  1.114322 S    
C141  H98   1.111736 S    
C60   O68   1.392759 S    
C129  C130  1.525036 S    
C71   C87   1.397559 A    
C63   O71   1.384471 S    
C76   H8    1.083295 S    
C155  C156  1.529691 S    
Zn4   O2    1.950835 S    
C70   H2    1.083710 S    
C121  H53   1.110897 S    
N11   H206  1.042299 S    
C74   H6    1.081020 S    
O11   C7    1.279794 A    
C153  H127  1.109689 S    
C115  H37   1.110802 S    
C178  H186  1.110664 S    
O65   C149  1.410963 S    
C168  C169  1.525220 S    
C135  H85   1.108037 S    
C167  C168  1.533093 S    
C127  H66   1.110494 S    
C137  H90   1.117813 S    
C9    C96   1.459813 S    
C10   C95   1.457540 S    
C108  C111  1.407112 A    
Zn16  O33   1.942910 S    
C168  H162  1.109007 S    
C25   C33   1.403422 A    
C144  H106  1.111736 S    
O64   C146  1.412230 S    
C159  H141  1.111660 S    
N16   H215  1.045261 S    
C139  H93   1.111009 S    
C1    C88   1.460035 S    
Zn12  O24   1.932052 S    
C176  C177  1.529098 S    
N7    H29   1.045807 S    
C62   C93   1.415190 A    
C182  H195  1.112233 S    
C56   C80   1.389346 A    
O40   C18   1.275919 A    
Zn16  O4    1.945414 S    
Zn12  O2    1.945414 S    
C3    C86   1.458541 S    
C69   H1    1.082340 S    
C141  C142  1.526372 S    
C129  H70   1.111552 S    
C30   O58   1.381379 S    
C72   H4    1.083605 S    
C57   O65   1.382942 S    
C29   O57   1.381790 S    
C180  H190  1.111823 S    
C150  C151  1.525532 S    
Zn7   O3    1.950837 S    
C126  H64   1.110720 S    
C68   O76   1.386837 S    
O60   C134  1.416721 S    
O36   C9    1.274349 A    
C62   C70   1.387669 A    
C182  H194  1.115064 S    
C31   C39   1.413715 A    
C142  H101  1.110518 S    
C160  H142  1.111066 S    
C120  C121  1.524733 S    
C59   C92   1.408593 A    
O49   C23   1.284108 A    
C8    C89   1.450538 S    
C60   C91   1.407923 A    
Zn3   O10   1.927877 S    
C101  C104  1.403575 A    
O42   C20   1.275534 A    
O67   C155  1.410596 S    
O33   C12   1.273019 A    
C61   C94   1.414081 A    
C30   C38   1.405137 A    
C119  C120  1.531679 S    
Zn10  O22   1.931869 S    
C12   C93   1.458494 S    
O32   C13   1.276374 A    
O35   C10   1.272642 A    
C28   O56   1.384327 S    
C56   O64   1.383287 S    
C152  H124  1.108916 S    
C175  H177  1.110890 S    
Zn13  O29   1.931868 S    
C105  C112  1.407055 A    
O76   C182  1.412094 S    
C77   H9    1.082047 S    
Zn10  O2    1.943693 S    
C179  C180  1.530517 S    
C83   H15   1.082984 S    
C68   C99   1.407436 A    
C165  H155  1.110470 S    
N10   H203  1.044852 S    
O52   C24   1.273505 A    
Zn3   O1    1.950837 S    
C54   C78   1.389170 A    
C174  H175  1.111151 S    
O43   C19   1.275651 A    
C134  C135  1.527145 S    
C25   C44   1.429443 A    
C144  H105  1.111020 S    
O41   C19   1.275946 A    
C6    C91   1.450118 S    
C61   C69   1.387407 A    
N6    H27   1.045569 S    
C26   C34   1.398642 A    
N2    H20   1.045181 S    
C140  H96   1.114517 S    
O37   C17   1.277000 A    
C102  C103  1.403302 A    
C153  C154  1.525519 S    
O55   C119  1.420320 S    
C54   O62   1.383157 S    
C106  C107  1.401482 A    
O71   C167  1.417761 S    
C31   C46   1.439256 A    
C162  H147  1.111524 S    
O44   C20   1.275394 A    
C26   O54   1.384034 S    
C170  H167  1.114009 S    
C119  H47   1.111099 S    
C178  H185  1.110409 S    
O53   C113  1.419906 S    
C139  H95   1.109254 S    
C165  H154  1.111517 S    
C132  H78   1.109772 S    
C127  H67   1.110997 S    
C124  H58   1.110891 S    
C138  H92   1.109321 S    
Zn13  O41   1.938679 S    
C82   H14   1.082773 S    
C107  N15   1.435644 S    
O66   C152  1.417178 S    
C78   C94   1.400353 A    
Zn16  O44   1.937812 S    
O26   C3    1.273755 A    
C59   C83   1.387080 A    
C42   C43   1.401661 A    
N8    H32   1.043736 S    
C60   C84   1.399979 A    
C166  H156  1.111106 S    
C117  H43   1.109986 S    
C177  H182  1.111677 S    
C136  H87   1.110208 S    
C166  H157  1.109897 S    
C101  N9    1.436045 S    
C116  H40   1.116139 S    
C55   C88   1.413826 A    
C154  H130  1.109953 S    
C67   C75   1.386117 A    
C53   C86   1.412598 A    
C128  H68   1.118490 S    
C7    C90   1.449415 S    
C36   N2    1.433018 S    
O47   C21   1.283501 A    
C57   C90   1.408763 A    
C151  H121  1.110828 S    
C40   N6    1.434302 S    
C27   C35   1.409921 A    
N5    H25   1.045548 S    
C160  H144  1.110781 S    
N12   H208  1.044923 S    
C32   C40   1.401910 A    
C104  N12   1.436400 S    
C80   H12   1.083797 S    
C175  H179  1.111042 S    
C81   H13   1.082803 S    
C143  H103  1.115500 S    
C22   C49   1.442031 S    
C33   N3    1.433303 S    
C152  C153  1.531182 S    
O38   C18   1.275136 A    
C181  H191  1.110767 S    
C179  H187  1.114598 S    
C156  C157  1.525655 S    
O50   C24   1.274142 A    
C113  C114  1.531800 S    
C48   C52   1.444930 A    
O5    C1    1.282721 A    
N13   H210  1.044890 S    
C131  H76   1.114391 S    
C174  C175  1.525804 S    
Zn11  O23   1.932053 S    
N9    H201  1.044275 S    
C79   C95   1.396368 A    
Zn4   O6    1.938753 S    
C147  H113  1.111660 S    
C170  H166  1.115224 S    
C71   H3    1.082314 S    
C129  H71   1.105610 S    
C140  C141  1.528567 S    
C76   C92   1.399046 A    
C184  H198  1.110942 S    
C118  H45   1.109284 S    
C164  C165  1.533053 S    
C113  H34   1.118750 S    
C34   N4    1.433305 S    
C125  H62   1.114746 S    
C106  C111  1.407347 A    
C104  C109  1.406940 A    
C148  H116  1.111215 S    
C145  H108  1.109835 S    
C146  H111  1.114624 S    
C161  H146  1.117904 S    
C162  C163  1.525354 S    
O8    C4    1.282813 A    
C147  C148  1.526513 S    
Zn9   O1    1.943691 S    
C165  C166  1.526567 S    
C143  C144  1.527323 S    
O74   C176  1.412102 S    
C158  H139  1.111699 S    
C181  H193  1.110976 S    
C124  H60   1.110793 S    
C63   C96   1.413687 A    
C83   C99   1.398836 A    
C145  H109  1.110274 S    
Zn1   O1    1.949024 S    
C117  C118  1.527528 S    
C43   C49   1.409327 A    
C4    C85   1.457457 S    
C167  H160  1.117978 S    
C123  H56   1.111782 S    
C164  H152  1.111333 S    
C29   C37   1.406210 A    
C79   H11   1.082173 S    
O69   C161  1.417668 S    
C58   C82   1.396753 A    
C30   C47   1.423106 A    
C177  C178  1.524841 S    
C114  H36   1.109752 S    
C119  H48   1.118803 S    
O9    C5    1.280973 A    
C115  H39   1.110974 S    
N1    H17   1.044770 S    
C116  C117  1.526630 S    
C63   C71   1.387410 A    
C123  C124  1.527434 S    
O13   C9    1.282520 A    
O58   C128  1.415874 S    
C53   O61   1.384922 S    
C149  H117  1.114366 S    
C128  C129  1.522693 S    
C130  H72   1.110203 S    
O18   C14   1.279742 A    
C13   C100  1.450080 S    
C173  H173  1.114741 S    
O6    C2    1.282300 A    
C151  H123  1.110581 S    
C157  H135  1.110843 S    
C152  H125  1.116075 S    
C118  H44   1.110889 S    
C163  H151  1.108555 S    
O48   C22   1.273205 A    
C101  C110  1.406373 A    
C146  H110  1.114428 S    
C115  H38   1.110450 S    
C171  H168  1.111452 S    
C41   C49   1.409156 A    
C156  H133  1.111441 S    
Zn14  O30   1.931869 S    
Zn15  O3    1.945415 S    
C78   H10   1.083517 S    
C148  H114  1.110919 S    
C62   O70   1.385431 S    
C133  H79   1.110930 S    
N4    H24   1.045448 S    
C17   C110  1.456331 S    
Zn2   O2    1.949025 S    
C169  H163  1.110989 S    
N16   H216  1.044955 S    
C154  H128  1.110871 S    
Zn4   O46   1.938192 S    
C184  H200  1.110485 S    
O24   C5    1.275817 A    
Zn11  O26   1.942908 S    
C139  H94   1.109852 S    
C176  H181  1.111840 S    
C153  H126  1.111972 S    
O10   C6    1.279237 A    
C45   C51   1.411694 A    
Zn1   O12   1.927737 S    
Zn2   O11   1.927739 S    
C172  H171  1.110305 S    
C122  C123  1.526565 S    
C80   C96   1.400983 A    
C126  H63   1.110457 S    
C81   C97   1.398925 A    
C20   C111  1.455400 S    
C176  H180  1.115386 S    
C84   H16   1.081846 S    
Zn4   O9    1.927876 S    
C120  H50   1.109671 S    
Zn14  O42   1.938679 S    
Zn13  O3    1.943691 S    
Zn14  O4    1.943693 S    
C133  H81   1.110854 S    
C117  H42   1.111736 S    
O19   C15   1.280494 A    
C157  H137  1.110812 S    
C121  H51   1.110822 S    
C125  C126  1.534395 S    
C103  N11   1.434806 S    
O75   C179  1.411269 S    
C47   C51   1.410196 A    
C175  H178  1.110682 S    
O39   C17   1.274167 A    
O63   C143  1.415316 S    
C131  C132  1.528985 S    
Zn12  O25   1.942910 S    
O7    C3    1.282442 A    
C66   C74   1.395387 A    
Zn13  O36   1.943802 S    
Zn14  O35   1.943801 S    
C55   O63   1.388213 S    
N15   H213  1.044884 S    
C54   C85   1.412543 A    
N8    H31   1.045733 S    
N10   H204  1.045203 S    
O28   C1    1.274273 A    
Zn8   O4    1.950835 S    
C29   C48   1.437956 A    
C58   C89   1.408878 A    
C38   N8    1.441010 S    
O21   C8    1.276247 A    
N6    H28   1.044253 S    
C33   C36   1.399519 A    
C103  C110  1.404934 A    
Zn7   O18   1.927877 S    
Zn9   O37   1.938679 S    
C32   O60   1.383216 S    
O12   C8    1.279309 A    
Zn11  O39   1.937812 S    
C137  H89   1.110793 S    
Zn11  O1    1.945415 S    
N4    H23   1.045549 S    
Zn15  O43   1.937812 S    
C143  H104  1.111802 S    
C27   C42   1.430308 A    
C144  C145  1.528132 S    
C141  H99   1.111724 S    
C75   H7    1.084261 S    
C159  H140  1.111713 S    
Zn5   O3    1.949024 S    
C31   O59   1.379308 S    
C64   C72   1.389127 A    
Zn6   O4    1.949025 S    
C65   C73   1.385455 A    
C65   O73   1.383046 S    
Zn8   O14   1.938753 S    
C5    C92   1.449141 S    
C66   O74   1.387980 S    
O68   C158  1.412700 S    
C142  H100  1.110938 S    
C68   C76   1.395068 A    
O62   C140  1.412022 S    
C182  C183  1.528946 S    
C138  H91   1.111590 S    
C56   C87   1.412195 A    
C105  N13   1.435466 S    
O54   C116  1.413604 S    
N14   H212  1.045229 S    
O30   C15   1.273925 A    
C180  C181  1.525720 S    
O70   C164  1.416945 S    
C177  H183  1.112020 S    
C136  H86   1.109722 S    
C126  C127  1.525898 S    
C46   C52   1.443390 A    
C137  C138  1.531140 S    
C133  H80   1.110786 S    
N3    H21   1.045740 S    
Zn8   O50   1.938192 S    
C70   C86   1.399386 A    
Zn15  O31   1.932053 S    
C2    C87   1.457317 S    
Zn16  O32   1.932052 S    
C159  C160  1.525565 S    
C151  H122  1.110494 S    
C147  H112  1.111689 S    
C74   C90   1.398540 A    
C64   O72   1.383363 S    
O61   C137  1.418385 S    
N14   H211  1.044968 S    
C160  H143  1.110289 S    
C135  C136  1.526352 S    
C27   O55   1.383390 S    
O56   C122  1.414147 S    
C16   C97   1.449491 S    
C163  H150  1.110052 S    
C19   C112  1.456822 S    
N7    H30   1.045506 S    
C181  H192  1.110800 S    
C156  H134  1.111982 S    
Zn7   O49   1.938192 S    
C61   O69   1.384445 S    
N13   H209  1.043980 S    
Zn15  O34   1.942908 S    
C174  H176  1.111951 S    
O72   C170  1.411979 S    
N5    H26   1.043146 S    
O59   C131  1.415376 S    
N2    H19   1.044042 S    
C154  H129  1.109936 S    
N11   H205  1.044986 S    
C130  H74   1.110613 S    
C164  H153  1.112330 S    
O57   C125  1.421874 S    
C69   C85   1.397225 A    
C45   C48   1.410385 A    
Zn6   O52   1.939107 S    
C72   C88   1.400759 A    
C73   C89   1.399029 A    
C161  C162  1.533292 S    
C34   C35   1.399411 A    
C67   C100  1.408824 A    
C108  N16   1.436902 S    
Zn1   O47   1.939107 S    
O51   C23   1.280815 A    
C162  H148  1.109082 S    
O45   C21   1.284110 A    
C39   N5    1.441240 S    
C170  C171  1.528703 S    
O22   C7    1.274964 A    
Zn3   O45   1.938192 S    
C37   C40   1.392381 A    
C59   O67   1.382903 S    
C135  H84   1.111023 S    
C132  C133  1.526261 S    
Zn2   O48   1.939107 S    
C41   C44   1.400621 A    
C168  H161  1.111529 S    
C124  H59   1.109425 S    
C134  H82   1.118650 S    
C138  C139  1.525727 S    
C183  C184  1.524794 S    
C140  H97   1.114666 S    
C14   C99   1.449861 S    
C15   C98   1.448581 S    
C150  H120  1.111927 S    
C105  C108  1.401451 A    
C123  H57   1.110223 S    
C106  N14   1.436824 S    
C58   O66   1.391404 S    
C180  H189  1.111048 S    
C136  H88   1.110643 S    
Zn9   O21   1.931868 S    
C114  H35   1.110642 S    
C11   C94   1.459601 S    
C183  H197  1.111724 S    
C116  H41   1.114408 S    
Zn12  O40   1.937812 S    
C28   C41   1.424448 A    
O16   C12   1.282980 A    
O25   C4    1.272875 A    
C179  H188  1.114545 S    
C55   C79   1.393642 A    
Zn1   O7    1.939639 S    
O27   C2    1.273335 A    
C149  H118  1.114235 S    
C128  H69   1.112892 S    
Zn2   O8    1.939638 S    
C53   C77   1.388392 A    
Zn3   O5    1.938752 S    
O29   C16   1.276790 A    
C84   C100  1.400364 A    
C127  H65   1.111083 S    
C66   C97   1.406876 A    
C173  H174  1.114479 S    
C122  H54   1.116097 S    
C155  H131  1.114585 S    
C73   H5    1.083279 S    
C163  H149  1.110993 S    
N12   H207  1.045213 S    
Zn9   O28   1.943802 S    
C157  H136  1.110781 S    
Zn10  O27   1.943801 S    
C23   C52   1.470937 S    
O31   C14   1.277554 A    
C32   C45   1.427254 A    
C82   C98   1.398351 A    
C142  H102  1.111225 S    
C171  H169  1.111683 S    
C120  H49   1.110663 S    
O15   C11   1.282911 A    
C149  C150  1.529634 S    
C183  H196  1.111736 S    
C131  H75   1.116167 S    
C173  C174  1.530249 S    
C28   C36   1.404876 A    
N15   H214  1.044026 S    
N9    H202  1.044931 S    
C44   C50   1.438452 A    
O73   C173  1.410847 S    
C169  H164  1.110087 S    
O20   C16   1.278219 A    
O46   C22   1.273327 A    
C184  H199  1.110531 S    
C118  H46   1.110726 S    
Zn8   O17   1.927876 S    
C113  H33   1.111140 S    
C57   C81   1.386894 A    
C171  C172  1.525996 S    
C125  H61   1.110427 S    
C64   C95   1.410775 A    
O14   C10   1.283068 A    
C65   C98   1.409087 A    
C102  N10   1.436543 S    
C21   C50   1.475581 S    
C148  H115  1.110602 S    
C145  H107  1.110858 S    
C146  C147  1.528967 S    
C77   C93   1.398765 A    
C161  H145  1.110567 S    
C25   O53   1.383659 S    
O17   C13   1.280753 A    
C158  H138  1.115700 S    
C166  H158  1.110968 S    
C130  H73   1.110477 S    
Zn5   O15   1.939639 S    
C169  H165  1.108475 S    
