data_mof_unit_38181.cif
_audit_creation_date              2012-12-10T20:25:46-0500
_audit_creation_method            fapswitch 2.2
_symmetry_space_group_name_H-M    P1
_symmetry_Int_Tables_number       1
_space_group_crystal_system       triclinic
_cell_length_a                    8.583348
_cell_length_b                    10.688355
_cell_length_c                    9.873857
_cell_angle_alpha                 89.987157
_cell_angle_beta                  98.465723
_cell_angle_gamma                 90.219342
_cell_volume                      895.969495144

loop_
_atom_site_label
_atom_site_type_symbol
_atom_type_description
_atom_site_fract_x
_atom_site_fract_y
_atom_site_fract_z
_atom_type_partial_charge
C1    C     C_R   0.502719 0.260150 0.500336 0.946570
C2    C     C_R   0.420686 0.409309 0.918595 0.212219
C3    C     C_3   0.247794 0.384953 0.891737 -0.509576
C4    C     C_R   0.201533 0.493059 0.464458 0.942225
C5    C     C_3   0.248859 0.383718 0.045294 -0.475490
C6    C     C_R   0.504411 0.739828 0.500662 0.874986
C7    C     C_R   0.798563 0.495987 0.535093 0.975887
C8    C     C_2   0.038640 0.467667 0.447383 0.027315
C9    C     C_2   0.963162 0.501434 0.550773 -0.445666
C10   C     C_R   0.492650 0.062996 0.619536 0.118856
C11   C     C_R   0.518949 0.128472 0.503257 -0.052923
C12   C     C_R   0.572338 0.935533 0.394152 -0.216850
C13   C     C_R   0.570580 0.065115 0.393729 -0.198682
C14   C     C_2   0.202376 0.108699 0.637071 0.434495
C15   C     C_R   0.524717 0.871318 0.505095 -0.082296
C16   C     C_R   0.500808 0.935995 0.622429 0.098845
C17   C     C_3   0.374004 0.923618 0.710660 -0.535401
C18   C     C_3   0.362202 0.065771 0.706051 -0.223157
C19   C     C_R   0.421173 0.409058 0.061200 0.218135
C20   C     C_R   0.589486 0.582747 0.083399 -0.098281
C21   C     C_R   0.589520 0.582744 0.939469 -0.124463
H1    H     H_    0.659369 0.651186 0.894145 0.146343
H2    H     H_    0.420624 0.887204 0.814160 0.198741
H3    H     H_    0.399766 0.110646 0.807200 0.133319
H4    H     H_    0.659387 0.651140 0.146600 0.145389
H5    H     H_    0.102480 0.100837 0.692337 0.058125
H6    H     H_    0.180778 0.464780 0.840559 0.221681
H7    H     H_    0.218990 0.292484 0.843434 0.192742
H8    H     H_    0.181949 0.462634 0.081731 0.236200
H9    H     H_    0.222661 0.290048 0.085570 0.225572
H10   H     H_    0.021579 0.547139 0.642939 0.145360
H11   H     H_    0.601386 0.114716 0.305632 0.181471
H12   H     H_    0.602729 0.886397 0.305757 0.165621
H13   H     H_    0.268699 0.872637 0.658232 0.201709
I1    I     I_    0.946006 0.355320 0.272930 -0.342614
N1    N     N_R   0.498950 0.499140 0.142680 -0.105113
N2    N     N_R   0.498950 0.499180 0.857030 -0.108264
O1    O     O_R   0.500020 0.316790 0.614690 -0.625429
O2    O     O_R   0.500000 0.316760 0.385350 -0.614538
O3    O     O_R   0.271760 0.500010 0.587850 -0.629526
O4    O     O_R   0.271740 0.499970 0.358500 -0.608251
O5    O     O_R   0.500000 0.683240 0.614650 -0.623271
O6    O     O_R   0.499980 0.683210 0.385310 -0.630246
O7    O     O_R   0.728260 0.500030 0.641500 -0.626472
O8    O     O_R   0.728240 0.499990 0.412150 -0.588523
O9    O     O_2   0.182307 0.151120 0.521034 -0.562056
Zn1   Zn    Zn3+2 0.500010 0.500020 0.653130 0.950796
Zn2   Zn    Zn3+2 0.499990 0.499980 0.346870 0.974488

loop_
_geom_bond_atom_site_label_1
_geom_bond_atom_site_label_2
_ccdc_geom_bond_type
C8    C9    D    
O3    Zn1   S    
O7    Zn1   S    
C20   H4    S    
C5    C19   S    
N2    Zn1   S    
O6    Zn2   S    
C14   C18   S    
C13   H11   S    
C1    C11   S    
C12   C15   A    
C4    C8    S    
C10   C11   A    
C20   C21   A    
C3    H6    S    
C17   C18   S    
C12   H12   S    
C14   O9    D    
C10   C16   A    
C7    O7    A    
C14   H5    S    
C11   C13   A    
C2    N2    A    
O1    Zn1   S    
C17   H2    S    
C1    O1    A    
C10   C18   S    
C18   H3    S    
C7    O8    A    
C21   H1    S    
C3    H7    S    
O4    Zn2   S    
N1    Zn2   S    
C5    H8    S    
C19   N1    A    
C6    O5    A    
C4    O4    A    
C9    H10   S    
C15   C16   A    
C20   N1    A    
O5    Zn1   S    
C21   N2    A    
C12   C13   A    
C5    H9    S    
C17   H13   S    
O8    Zn2   S    
C7    C9    S    
C1    O2    A    
C6    O6    A    
O2    Zn2   S    
C2    C3    S    
C6    C15   S    
C2    C19   A    
C4    O3    A    
C16   C17   S    
C3    C5    S    
C8    I1    S    
