data_mof_unit_42557.cif
_audit_creation_date              2013-03-05T16:35:52-0500
_audit_creation_method            fapswitch 2.2
_symmetry_space_group_name_H-M    P1
_symmetry_Int_Tables_number       1
_space_group_crystal_system       triclinic
_cell_length_a                    23.564734
_cell_length_b                    9.092978
_cell_length_c                    7.751371
_cell_angle_alpha                 89.861182
_cell_angle_beta                  90.015349
_cell_angle_gamma                 89.865175
_cell_volume                      1660.90469438

loop_
_atom_site_label
_atom_site_type_symbol
_atom_site_description
_atom_site_fract_x
_atom_site_fract_y
_atom_site_fract_z
_atom_type_partial_charge
O1    O     O_R   0.500000 0.288390 0.642760 -0.580582
O2    O     O_R   0.500000 0.711610 0.357240 -0.586594
O3    O     O_R   0.500000 0.711610 0.642760 -0.579317
O4    O     O_R   0.500000 0.288390 0.357240 -0.585401
H1    H     H_    0.947960 0.127706 0.546930 0.183002
H2    H     H_    0.051451 0.866130 0.450639 0.183320
H3    H     H_    0.948289 0.866982 0.448897 0.182534
H4    H     H_    0.051128 0.126584 0.544637 0.183007
C1    C     C_R   0.499982 0.219886 0.500117 0.838794
C2    C     C_R   0.500018 0.780114 0.499863 0.839230
O5    O     O_R   0.417880 0.500000 0.642820 -0.546576
O6    O     O_R   0.582120 0.500000 0.357180 -0.556057
O7    O     O_R   0.582120 0.500000 0.642820 -0.549372
O8    O     O_R   0.417880 0.500000 0.357180 -0.555701
C3    C     C_R   0.208478 0.495332 0.498721 0.265977
C4    C     C_R   0.791213 0.498764 0.499791 0.270600
C5    C     C_R   0.390467 0.499287 0.500010 0.870948
C6    C     C_R   0.609494 0.500302 0.500014 0.876768
Cu1   Cu    Cu3+1 0.500000 0.500000 0.669080 1.032455
Cu2   Cu    Cu3+1 0.500000 0.500000 0.330920 1.017648
H5    H     H_    0.214344 0.584601 0.244088 0.157926
H6    H     H_    0.785650 0.396823 0.253074 0.153835
H7    H     H_    0.213066 0.401754 0.749118 0.142479
H8    H     H_    0.787194 0.608239 0.740292 0.139599
C7    C     C_R   0.297511 0.556700 0.357528 0.337303
C8    C     C_R   0.702090 0.434324 0.361445 0.340431
C9    C     C_R   0.298007 0.437731 0.643743 0.338053
C10   C     C_R   0.701993 0.565138 0.640073 0.341052
C11   C     C_R   0.327602 0.497889 0.500375 -0.199592
C12   C     C_R   0.672294 0.499952 0.500429 -0.198842
C13   C     C_R   0.880457 0.628677 0.480853 0.541922
C14   C     C_R   0.118964 0.364778 0.511524 0.540985
C15   C     C_R   0.880351 0.367379 0.516072 0.543538
C16   C     C_R   0.119053 0.626736 0.484146 0.541754
N1    N     N_R   0.852034 0.498324 0.498870 -0.444902
N2    N     N_R   0.147509 0.495522 0.498030 -0.443574
C17   C     C_R   0.939846 0.364022 0.515453 -0.016652
C18   C     C_R   0.059560 0.629763 0.481744 -0.015966
C19   C     C_R   0.939960 0.630847 0.480635 -0.018376
C20   C     C_R   0.059455 0.362806 0.513692 -0.017760
C21   C     C_R   0.969767 0.497142 0.497927 -0.018880
C22   C     C_R   0.029645 0.496565 0.497758 -0.018862
C23   C     C_R   0.969993 0.231329 0.532449 -0.166761
C24   C     C_R   0.029414 0.762442 0.464281 -0.166094
C25   C     C_R   0.970225 0.762939 0.463255 -0.167822
C26   C     C_R   0.029186 0.230688 0.531109 -0.167185
C27   C     C_1   0.499992 0.065342 0.500136 -0.181023
C28   C     C_1   0.500007 0.934658 0.499784 -0.181041
C29   C     C_R   0.238064 0.549015 0.356249 -0.243538
C30   C     C_R   0.761662 0.438486 0.361440 -0.247948
C31   C     C_R   0.238017 0.441227 0.641720 -0.250620
C32   C     C_R   0.761973 0.561548 0.637750 -0.251519
N3    N     N_1   0.500000 0.500000 0.076820 -0.044848
N4    N     N_1   0.500000 0.500000 0.923180 -0.037510
O9    O     O_2   0.851179 0.755476 0.462151 -0.534502
O10   O     O_2   0.148089 0.237032 0.521262 -0.535138
O11   O     O_2   0.850970 0.241111 0.534848 -0.542661
O12   O     O_2   0.148265 0.754001 0.474386 -0.542185
O13   O     O_3   0.327511 0.605833 0.213874 -0.589734
C33   C     C_3   0.307212 0.741767 0.148024 0.057917
H9    H     H_    0.343546 0.819426 0.145533 0.169372
H10   H     H_    0.273715 0.795407 0.227896 0.148634
C34   C     C_3   0.286341 0.719746 0.962794 -0.340136
H11   H     H_    0.320993 0.669772 0.885294 0.256611
H12   H     H_    0.249504 0.643959 0.962330 0.207955
C35   C     C_3   0.268590 0.864078 0.877921 -0.889974
H13   H     H_    0.233263 0.915639 0.950983 0.265772
H14   H     H_    0.253864 0.842307 0.744277 0.284079
H15   H     H_    0.305153 0.940679 0.871884 0.250348
O14   O     O_3   0.671530 0.382740 0.220063 -0.591145
C36   C     C_3   0.692712 0.249101 0.151430 0.058922
H16   H     H_    0.656563 0.171092 0.144189 0.171252
H17   H     H_    0.725523 0.193721 0.232535 0.143487
C37   C     C_3   0.714750 0.275966 0.968100 -0.348946
H18   H     H_    0.680862 0.329689 0.890453 0.251493
H19   H     H_    0.751978 0.350373 0.971902 0.208037
C38   C     C_3   0.732159 0.133375 0.879395 -0.877641
H20   H     H_    0.766895 0.078661 0.952279 0.263713
H21   H     H_    0.747541 0.158184 0.747075 0.289253
H22   H     H_    0.695272 0.058109 0.869558 0.248857
O15   O     O_3   0.330416 0.378661 0.778969 -0.590796
C39   C     C_3   0.299277 0.307662 0.910553 0.067551
H23   H     H_    0.273537 0.216307 0.856109 0.155272
H24   H     H_    0.271694 0.387995 0.978776 0.153310
C40   C     C_3   0.341040 0.243454 0.041877 -0.290839
H25   H     H_    0.367994 0.159098 0.978137 0.208522
H26   H     H_    0.369183 0.332243 0.090046 0.268148
C41   C     C_3   0.310433 0.173512 0.194961 -0.907895
H27   H     H_    0.283730 0.256001 0.262146 0.275561
H28   H     H_    0.342108 0.129324 0.287790 0.250304
H29   H     H_    0.282956 0.082155 0.151261 0.256787
O16   O     O_3   0.669672 0.633544 0.768971 -0.591396
C42   C     C_3   0.701018 0.692011 0.908062 0.064493
H30   H     H_    0.728502 0.783517 0.862263 0.155881
H31   H     H_    0.726890 0.604791 0.971300 0.150729
C43   C     C_3   0.659544 0.752672 0.041979 -0.296756
H32   H     H_    0.632808 0.839730 0.981915 0.211778
H33   H     H_    0.631201 0.662809 0.086677 0.264604
C44   C     C_3   0.690571 0.817044 0.197273 -0.896487
H34   H     H_    0.717974 0.732661 0.258991 0.277756
H35   H     H_    0.659164 0.856473 0.293538 0.250270
H36   H     H_    0.717444 0.910967 0.157023 0.255317

loop_
_geom_bond_atom_site_label_1
_geom_bond_atom_site_label_2
_geom_bond_distance
_ccdc_geom_bond_type
H8    C32   1.080651 S    
C35   H14   1.110799 S    
C34   H12   1.109622 S    
C42   H30   1.113118 S    
C9    C11   1.421215 A    
C5    C11   1.481494 S    
C21   C22   1.411017 A    
Cu1   Cu2   2.621204 S    
H5    C29   1.081905 S    
O15   C39   1.412442 S    
C19   C21   1.408754 A    
C38   H20   1.110481 S    
C3    C29   1.394048 A    
C20   C26   1.404814 A    
O5    Cu1   1.945760 S    
C37   H19   1.109559 S    
O7    C6    1.281338 A    
C33   C34   1.531315 S    
C14   N2    1.371126 A    
C4    C30   1.392712 A    
C18   C22   1.408046 A    
C8    C30   1.404402 A    
C4    N1    1.433254 S    
C40   C41   1.526984 S    
C35   H15   1.110131 S    
C43   C44   1.526798 S    
C33   H10   1.115439 S    
C27   C28   1.188310 T    
C37   C38   1.524512 S    
C43   H33   1.111370 S    
O3    Cu1   1.934459 S    
O14   C36   1.417484 S    
C6    C12   1.479845 S    
C3    C31   1.396620 A    
H6    C30   1.081388 S    
C20   C22   1.408259 A    
C35   H13   1.110532 S    
H1    C23   1.082497 S    
C34   C35   1.524234 S    
O13   C33   1.418159 S    
C42   H31   1.112045 S    
H2    C24   1.082417 S    
O8    C5    1.281958 A    
C9    C31   1.414003 A    
C7    C29   1.402788 A    
C40   H26   1.111250 S    
C7    C11   1.417650 A    
O1    Cu1   1.935443 S    
C37   H18   1.111342 S    
O7    Cu1   1.945866 S    
O2    Cu2   1.935442 S    
O8    Cu2   1.945869 S    
C9    O15   1.401929 S    
O1    C1    1.270383 A    
C36   H17   1.114903 S    
C40   H25   1.111588 S    
C15   C17   1.402264 A    
C33   H9    1.111259 S    
C17   C23   1.404636 A    
C18   C24   1.404847 A    
H7    C31   1.080444 S    
C44   H34   1.109196 S    
C41   H29   1.108079 S    
C43   H32   1.111780 S    
O6    Cu2   1.945758 S    
C38   H21   1.110741 S    
C10   O16   1.402303 S    
Cu1   N4    1.969623 S    
C44   H35   1.110588 S    
C41   H28   1.110507 S    
C1    C27   1.405264 S    
C42   C43   1.528956 S    
C39   H24   1.111550 S    
C2    C28   1.405266 S    
C8    O14   1.394009 S    
C13   N1    1.369681 A    
O2    C2    1.270247 A    
H3    C25   1.082491 S    
C3    N2    1.436705 S    
C24   C25   1.394809 A    
C38   H22   1.110301 S    
O5    C5    1.281553 A    
C15   O11   1.349728 S    
C16   C18   1.402267 A    
C4    C32   1.394894 A    
Cu2   N3    1.969623 S    
C36   C37   1.532345 S    
N3    N4    1.190921 T    
C39   C40   1.529527 S    
C19   C25   1.404544 A    
C10   C12   1.420371 A    
C36   H16   1.111270 S    
O3    C2    1.269470 A    
C10   C32   1.413838 A    
O16   C42   1.412394 S    
C15   N1    1.369740 A    
C13   C19   1.402338 A    
C16   N2    1.371266 A    
C14   C20   1.402587 A    
C17   C21   1.408576 A    
C23   C26   1.394907 A    
H4    C26   1.082410 S    
C34   H11   1.110846 S    
O4    Cu2   1.934460 S    
C44   H36   1.108657 S    
C41   H27   1.108886 S    
C39   H23   1.113549 S    
O6    C6    1.281235 A    
C16   O12   1.349848 S    
C7    O13   1.392401 S    
C13   O9    1.349736 S    
O4    C1    1.269337 A    
C14   O10   1.349751 S    
C8    C12   1.418195 A    
