data_mof_unit_28738.cif
_audit_creation_date              2012-10-26T18:49:58-0400
_audit_creation_method            fapswitch 2.2
_symmetry_space_group_name_H-M    P1
_symmetry_Int_Tables_number       1
_space_group_crystal_system       triclinic
_cell_length_a                    10.73852
_cell_length_b                    13.002755
_cell_length_c                    11.641035
_cell_angle_alpha                 101.639218
_cell_angle_beta                  88.375451
_cell_angle_gamma                 91.166321
_cell_volume                      1591.20068995

loop_
_atom_site_label
_atom_site_type_symbol
_atom_type_description
_atom_site_fract_x
_atom_site_fract_y
_atom_site_fract_z
_atom_type_partial_charge
Br1   Br    Br    0.101528 0.081140 0.443148 -0.498696
Br2   Br    Br    0.876549 0.927264 0.567437 -0.497355
Br3   Br    Br    0.242562 0.318526 0.956329 -0.560894
Br4   Br    Br    0.752406 0.686710 0.044833 -0.556152
Br5   Br    Br    0.778343 0.713093 0.393136 -0.438808
Br6   Br    Br    0.212594 0.292366 0.616685 -0.444132
C1    C     C_R   0.493889 0.298568 0.476978 0.566661
C2    C     C_R   0.462396 0.859812 0.447912 -0.101560
C3    C     C_R   0.521705 0.033346 0.549422 0.043005
C4    C     C_R   0.469954 0.966988 0.451875 0.041739
C5    C     C_R   0.373365 0.408861 0.030453 0.099599
C6    C     C_R   0.624475 0.593478 0.970031 0.106143
C7    C     C_R   0.387580 0.416872 0.151020 0.066027
C8    C     C_R   0.611023 0.584608 0.849204 0.070050
C9    C     C_R   0.554263 0.539265 0.153078 0.043626
C10   C     C_R   0.444692 0.461913 0.847234 0.047181
C11   C     C_R   0.545177 0.534177 0.031340 -0.007129
C12   C     C_R   0.501534 0.701700 0.523708 0.564970
C13   C     C_R   0.453320 0.467524 0.969061 -0.009463
C14   C     C_R   0.261341 0.503505 0.507896 0.571909
C15   C     C_R   0.739384 0.500548 0.492953 0.582638
C16   C     C_R   0.108653 0.689590 0.641280 -0.007450
C17   C     C_R   0.909384 0.330076 0.344457 -0.002295
C18   C     C_R   0.056640 0.789112 0.639646 0.018802
C19   C     C_R   0.961932 0.229125 0.339848 0.022683
C20   C     C_R   0.948803 0.793916 0.574685 0.207344
C21   C     C_R   0.050323 0.218164 0.423994 0.190297
C22   C     C_R   0.891337 0.701351 0.515165 0.159767
C23   C     C_R   0.505519 0.816979 0.540406 0.023006
C24   C     C_R   0.104480 0.308254 0.492687 0.163262
C25   C     C_R   0.939759 0.602401 0.520874 -0.028754
C26   C     C_R   0.060343 0.408337 0.486053 -0.029751
C27   C     C_R   0.060550 0.598255 0.564025 -0.023216
C28   C     C_R   0.944290 0.414155 0.437033 -0.035326
C29   C     C_R   0.876049 0.507553 0.473841 0.006356
C30   C     C_R   0.125777 0.502336 0.529572 0.007794
C31   C     C_3   0.194709 0.680447 0.741301 -0.278135
C32   C     C_3   0.149397 0.598155 0.811063 -0.379488
C33   C     C_3   0.853762 0.357222 0.235457 -0.250374
C34   C     C_R   0.484687 0.183854 0.462008 0.029735
C35   C     C_3   0.728003 0.304749 0.204001 -0.404039
C36   C     C_3   0.122284 0.890748 0.697034 -0.240987
C37   C     C_3   0.062192 0.939511 0.815735 -0.404404
C38   C     C_3   0.929582 0.134116 0.245391 -0.255282
C39   C     C_3   0.817134 0.073024 0.282011 -0.375000
C40   C     C_3   0.601420 0.840497 0.745114 -0.248109
C41   C     C_3   0.655930 0.919811 0.847434 -0.452000
C42   C     C_3   0.354876 0.156085 0.272500 -0.250840
C43   C     C_3   0.430975 0.148191 0.158682 -0.452963
C44   C     C_R   0.424192 0.008651 0.360174 -0.076482
C45   C     C_R   0.561819 0.992667 0.643939 -0.053861
C46   C     C_R   0.426608 0.117176 0.365255 0.034655
C47   C     C_R   0.554485 0.884305 0.642195 0.030947
C48   C     C_R   0.531789 0.140355 0.552334 -0.104823
Cu1   Cu    Cu3+1 0.509250 0.507730 0.615930 0.948132
Cu2   Cu    Cu3+1 0.490750 0.492270 0.384070 0.948964
H1    H     H_    0.422539 0.809290 0.371680 0.140043
H2    H     H_    0.052091 0.614623 0.843517 0.185893
H3    H     H_    0.153188 0.517472 0.757955 0.210709
H4    H     H_    0.292022 0.669026 0.710209 0.187549
H5    H     H_    0.198982 0.754026 0.807882 0.136310
H6    H     H_    0.737615 0.229773 0.139782 0.123651
H7    H     H_    0.679452 0.289548 0.283611 0.189705
H8    H     H_    0.670825 0.355910 0.162086 0.163250
H9    H     H_    0.843691 0.443478 0.245750 0.192754
H10   H     H_    0.920109 0.335178 0.159883 0.165824
H11   H     H_    0.966643 0.965880 0.804556 0.192797
H12   H     H_    0.575132 0.190391 0.626963 0.140695
H13   H     H_    0.057048 0.882540 0.875034 0.152594
H14   H     H_    0.118303 0.008860 0.857888 0.174789
H15   H     H_    0.222945 0.878310 0.707818 0.125001
H16   H     H_    0.121887 0.948352 0.638545 0.243007
H17   H     H_    0.838768 0.040241 0.359894 0.248823
H18   H     H_    0.734799 0.123822 0.303970 0.137044
H19   H     H_    0.793160 0.007022 0.209086 0.167456
H20   H     H_    0.914254 0.155979 0.160069 0.140258
H21   H     H_    0.009799 0.080345 0.226024 0.182089
H22   H     H_    0.737528 0.961920 0.817344 0.179537
H23   H     H_    0.381262 0.956844 0.286558 0.124565
H24   H     H_    0.584067 0.976737 0.888887 0.143738
H25   H     H_    0.687763 0.877585 0.914940 0.180963
H26   H     H_    0.522587 0.800163 0.782494 0.154820
H27   H     H_    0.675376 0.782794 0.711567 0.185612
H28   H     H_    0.509013 0.205413 0.171259 0.160772
H29   H     H_    0.467966 0.067783 0.128787 0.149130
H30   H     H_    0.371137 0.166164 0.089335 0.180754
H31   H     H_    0.269497 0.106918 0.251891 0.171783
H32   H     H_    0.320098 0.236586 0.304162 0.176259
H33   H     H_    0.599368 0.046864 0.718164 0.127684
H34   H     H_    0.376070 0.411829 0.796863 0.211859
H35   H     H_    0.623107 0.589169 0.203458 0.213671
H36   H     H_    0.671926 0.629692 0.802007 0.148470
H37   H     H_    0.325856 0.372536 0.198202 0.152943
H38   H     H_    0.209543 0.601467 0.887840 0.154884
N1    N     N_R   0.523180 0.519350 0.790130 -0.271028
N2    N     N_R   0.476820 0.480650 0.209870 -0.276374
O1    O     O_R   0.506570 0.354460 0.582000 -0.472934
O2    O     O_R   0.493430 0.645540 0.418000 -0.470074
O3    O     O_R   0.490940 0.341410 0.386200 -0.535335
O4    O     O_R   0.509060 0.658590 0.613800 -0.545573
O5    O     O_R   0.327470 0.506520 0.597900 -0.496690
O6    O     O_R   0.672530 0.493480 0.402100 -0.483948
O7    O     O_R   0.311840 0.493460 0.402100 -0.498157
O8    O     O_R   0.688160 0.506540 0.597900 -0.495105

loop_
_geom_bond_atom_site_label_1
_geom_bond_atom_site_label_2
_ccdc_geom_bond_type
Cu1   Cu2   S    
C10   H34   S    
C18   C36   S    
C3    C45   A    
Cu2   O2    S    
C44   H23   S    
C33   C35   S    
C14   O7    A    
C5    C13   A    
C1    O3    A    
C2    C23   A    
C26   C30   A    
C43   H28   S    
C38   H21   S    
C18   C20   A    
C48   H12   S    
C27   C30   A    
C39   H17   S    
C28   C29   A    
C38   H20   S    
C32   H2    S    
C15   O8    A    
C6    C11   A    
C44   C46   A    
C1    C34   S    
C42   H32   S    
Br4   C6    S    
C3    C4    A    
C35   H8    S    
C17   C19   A    
C37   H13   S    
C40   H26   S    
C21   C24   A    
C33   H9    S    
C32   H38   S    
C12   O4    A    
C41   H24   S    
C19   C38   S    
C36   H16   S    
C7    N2    A    
C43   H29   S    
Cu1   N1    S    
C9    N2    A    
C14   O5    A    
C34   C46   A    
C16   C31   S    
Cu1   O8    S    
C32   H3    S    
C7    H37   S    
C39   H18   S    
C45   C47   A    
C26   C28   A    
Cu1   O4    S    
C31   C32   S    
C2    H1    S    
Br5   C22   S    
C31   H5    S    
C17   C28   A    
Cu1   O1    S    
C25   C27   A    
C42   H31   S    
Br2   C20   S    
C12   C23   S    
C8    H36   S    
C15   O6    A    
C2    C4    A    
C42   C43   S    
Br6   C24   S    
C6    C8    A    
C37   H14   S    
C34   C48   A    
C33   H10   S    
C25   C29   A    
C36   C37   S    
C35   H7    S    
C4    C44   A    
C8    N1    A    
C38   C39   S    
Cu2   N2    S    
C16   C27   A    
C40   C41   S    
C10   N1    A    
C1    O1    A    
C43   H30   S    
C22   C25   A    
Cu2   O7    S    
C35   H6    S    
C9    C11   A    
C15   C29   S    
C19   C21   A    
Cu1   O5    S    
C20   C22   A    
Cu2   O3    S    
C39   H19   S    
Cu2   O6    S    
C45   H33   S    
C24   C26   A    
C5    C7    A    
C23   C47   A    
C10   C13   A    
C17   C33   S    
C40   C47   S    
C36   H15   S    
C11   C13   A    
C16   C18   A    
C41   H25   S    
C31   H4    S    
Br3   C5    S    
C9    H35   S    
C40   H27   S    
C14   C30   S    
C42   C46   S    
C37   H11   S    
Br1   C21   S    
C3    C48   A    
C12   O2    A    
C41   H22   S    
