data_mof_unit_30604.cif
_audit_creation_date              2012-12-10T18:47:07-0500
_audit_creation_method            fapswitch 2.2
_symmetry_space_group_name_H-M    P1
_symmetry_Int_Tables_number       1
_space_group_crystal_system       triclinic
_cell_length_a                    10.70916
_cell_length_b                    9.939348
_cell_length_c                    14.978569
_cell_angle_alpha                 90.017757
_cell_angle_beta                  91.263135
_cell_angle_gamma                 90.012707
_cell_volume                      1593.96231485

loop_
_atom_site_label
_atom_site_type_symbol
_atom_type_description
_atom_site_fract_x
_atom_site_fract_y
_atom_site_fract_z
_atom_type_partial_charge
Br1   Br    Br    0.766754 0.504388 0.748021 -0.427037
Br2   Br    Br    0.233240 0.495632 0.251986 -0.427041
Br3   Br    Br    0.689631 0.165342 0.637101 -0.366816
Br4   Br    Br    0.310370 0.834658 0.362899 -0.366816
Br5   Br    Br    0.310208 0.164941 0.363042 -0.369261
Br6   Br    Br    0.689793 0.835059 0.636957 -0.369252
C1    C     C_R   0.260179 0.499991 0.499575 0.919537
C2    C     C_R   0.127525 0.499978 0.499278 -0.010495
C3    C     C_R   0.578168 0.071715 0.556424 0.231483
C4    C     C_R   0.421832 0.928285 0.443576 0.231485
C5    C     C_R   0.421820 0.071573 0.443592 0.231992
C6    C     C_R   0.578180 0.928427 0.556408 0.231992
C7    C     C_R   0.499848 0.500019 0.327597 0.958335
C8    C     C_R   0.500152 0.499980 0.672403 0.958341
C9    C     C_R   0.612402 0.504431 0.814110 0.231682
C10   C     C_R   0.387589 0.495576 0.185892 0.231688
C11   C     C_R   0.498544 0.499732 0.767675 -0.151062
C12   C     C_R   0.739821 0.500009 0.500423 0.919534
C13   C     C_R   0.501449 0.500267 0.232325 -0.151056
C14   C     C_R   0.383760 0.495098 0.810596 -0.120076
C15   C     C_R   0.616230 0.504892 0.189402 -0.120084
C16   C     C_R   0.382384 0.487774 0.904720 0.047970
C17   C     C_R   0.617600 0.512223 0.095279 0.047964
C18   C     C_R   0.498624 0.499287 0.952908 0.022288
C19   C     C_R   0.501360 0.500715 0.047092 0.022287
C20   C     C_R   0.612601 0.509280 0.907073 0.043574
C21   C     C_R   0.387385 0.490723 0.092928 0.043576
C22   C     C_R   0.270824 0.469895 0.953117 -0.031039
C23   C     C_R   0.274942 0.473827 0.045390 -0.172069
C24   C     C_R   0.729156 0.530103 0.046885 -0.031037
C25   C     C_1   0.270276 0.505477 0.755957 0.186007
C26   C     C_1   0.729718 0.494493 0.244032 0.186005
C27   C     C_1   0.149880 0.439188 0.913107 0.213686
C28   C     C_1   0.850085 0.560819 0.086900 0.213690
C29   C     C_R   0.725041 0.526173 0.954611 -0.172073
C30   C     C_R   0.063867 0.377294 0.500019 -0.121741
C31   C     C_R   0.936133 0.622704 0.499972 -0.121750
C32   C     C_R   0.936126 0.377318 0.500684 -0.118662
C33   C     C_R   0.063874 0.622681 0.499307 -0.118657
C34   C     C_R   0.872475 0.500021 0.500715 -0.010504
H1    H     H_    0.188057 0.460082 0.079715 0.203694
H2    H     H_    0.811926 0.539915 0.920287 0.203701
H3    H     H_    0.112179 0.281554 0.500345 0.191700
H4    H     H_    0.887821 0.718445 0.499646 0.191699
H5    H     H_    0.887804 0.281587 0.500888 0.191907
H6    H     H_    0.112196 0.718412 0.499103 0.191909
N1    N     N_R   0.500000 0.857200 0.500000 -0.173982
N2    N     N_R   0.500000 0.142800 0.500000 -0.173982
N3    N     N_1   0.180461 0.514415 0.711956 -0.165750
N4    N     N_1   0.819537 0.485537 0.288025 -0.165739
N5    N     N_1   0.052633 0.414015 0.882212 -0.131924
N6    N     N_1   0.947318 0.586002 0.117802 -0.131926
O1    O     O_R   0.316770 0.614620 0.499990 -0.603279
O2    O     O_R   0.683230 0.385380 0.500010 -0.603278
O3    O     O_R   0.683230 0.614620 0.500010 -0.603496
O4    O     O_R   0.316770 0.385380 0.499990 -0.603497
O5    O     O_R   0.499980 0.614680 0.367850 -0.580374
O6    O     O_R   0.500020 0.385320 0.632150 -0.580374
O7    O     O_R   0.500020 0.614680 0.632150 -0.580555
O8    O     O_R   0.499980 0.385320 0.367850 -0.580558
Zn1   Zn    Zn3+2 0.500000 0.653120 0.500000 1.053758
Zn2   Zn    Zn3+2 0.500000 0.346880 0.500000 1.053757

loop_
_geom_bond_atom_site_label_1
_geom_bond_atom_site_label_2
_ccdc_geom_bond_type
N1    Zn1   S    
O6    Zn2   S    
Br3   C3    S    
C2    C33   A    
C27   N5    T    
Br2   C10   S    
C28   N6    T    
C11   C14   A    
C31   H4    S    
C30   C32   A    
C1    C2    S    
C31   C33   A    
C7    O8    A    
C16   C22   A    
C32   C34   A    
C8    O7    A    
C8    C11   S    
C26   N4    T    
C5    N2    A    
O1    Zn1   S    
C12   O3    A    
C25   N3    T    
C6    N1    A    
Br1   C9    S    
C1    O4    A    
C10   C21   A    
C22   C23   A    
C13   C15   A    
C18   C20   A    
C22   C27   S    
Br5   C5    S    
C31   C34   A    
O4    Zn2   S    
C10   C13   A    
C15   C17   A    
Br6   C6    S    
C19   C21   A    
C8    O6    A    
C15   C26   S    
C16   C18   A    
C33   H6    S    
C1    O1    A    
C21   C23   A    
C4    C5    A    
C24   C28   S    
Br4   C4    S    
C17   C24   A    
C24   C29   A    
C20   C29   A    
O3    Zn1   S    
C17   C19   A    
C7    O5    A    
C18   C19   A    
C3    N2    A    
O8    Zn2   S    
C2    C30   A    
O7    Zn1   S    
O5    Zn1   S    
C9    C11   A    
C29   H2    S    
C12   O2    A    
C9    C20   A    
C7    C13   S    
C12   C34   S    
O2    Zn2   S    
C23   H1    S    
C3    C6    A    
C4    N1    A    
N2    Zn2   S    
C32   H5    S    
C14   C16   A    
C30   H3    S    
C14   C25   S    
