data_mof_unit_23621.cif
_audit_creation_date              2012-12-10T19:50:30-0500
_audit_creation_method            fapswitch 2.2
_symmetry_space_group_name_H-M    P1
_symmetry_Int_Tables_number       1
_space_group_crystal_system       triclinic
_cell_length_a                    18.259182
_cell_length_b                    18.298807
_cell_length_c                    18.237481
_cell_angle_alpha                 119.879318
_cell_angle_beta                  90.181578
_cell_angle_gamma                 119.789
_cell_volume                      4323.51124607

loop_
_atom_site_label
_atom_site_type_symbol
_atom_type_description
_atom_site_fract_x
_atom_site_fract_y
_atom_site_fract_z
_atom_type_partial_charge
C1    C     C_R   0.640129 0.780054 0.640649 0.500069
C2    C     C_R   0.236832 0.946440 0.153541 0.203245
C3    C     C_R   0.202372 0.890929 0.192900 -0.022600
C4    C     C_R   0.356683 0.220214 0.359543 0.551381
C5    C     C_R   0.221909 0.947834 0.284960 -0.051097
C6    C     C_3   0.211728 0.939466 0.362500 0.536396
C7    C     C_3   0.267021 0.058819 0.422434 0.496012
C8    C     C_R   0.785762 0.552352 0.338797 -0.016087
C9    C     C_R   0.695394 0.507665 0.303381 0.022258
C10   C     C_R   0.662809 0.480451 0.216729 0.212533
C11   C     C_R   0.719689 0.490501 0.165098 0.191325
C12   C     C_3   0.802469 0.595245 0.827703 -0.133052
C13   C     C_R   0.805291 0.514682 0.196231 -0.022708
C14   C     C_R   0.838925 0.553584 0.285569 -0.052665
C15   C     C_3   0.891103 0.534733 0.329423 0.494023
C16   C     C_R   0.361278 0.501320 0.641109 0.544085
C17   C     C_3   0.831904 0.533583 0.389128 0.477770
C18   C     C_R   0.781703 0.947500 0.699846 -0.047747
C19   C     C_R   0.697066 0.891680 0.704191 -0.032939
C20   C     C_R   0.672212 0.945762 0.774979 0.306636
C21   C     C_R   0.726355 0.054255 0.829832 0.297164
C22   C     C_R   0.805256 0.108795 0.813804 -0.009405
C23   C     C_3   0.699459 0.525556 0.791957 0.240244
C24   C     C_R   0.833539 0.053435 0.752653 -0.052093
C25   C     C_3   0.870836 0.060103 0.681070 0.419510
C26   C     C_3   0.812320 0.941630 0.621846 0.178369
C27   C     C_R   0.289379 0.578538 0.340922 -0.065816
C28   C     C_R   0.639790 0.500418 0.359644 0.575435
C29   C     C_R   0.319120 0.515062 0.303534 -0.072391
C30   C     C_R   0.299690 0.456433 0.209726 0.154511
C31   C     C_R   0.225360 0.431686 0.155871 0.166765
C32   C     C_R   0.194327 0.495335 0.194840 -0.065724
C33   C     C_R   0.231093 0.571944 0.286553 -0.006180
C34   C     C_3   0.698595 0.432342 0.766902 0.267883
C35   C     C_3   0.185654 0.597883 0.354638 0.483791
C36   C     C_3   0.251813 0.606687 0.416562 0.442451
C37   C     C_R   0.244546 0.520655 0.691895 -0.039102
C38   C     C_R   0.313244 0.510451 0.704609 0.007569
C39   C     C_R   0.338594 0.518459 0.783512 0.238214
C40   C     C_R   0.362889 0.504029 0.358854 0.551174
C41   C     C_R   0.285024 0.520482 0.839604 0.219309
C42   C     C_R   0.205900 0.511872 0.814524 -0.048108
C43   C     C_R   0.192922 0.522591 0.746238 0.033286
C44   C     C_3   0.110443 0.467033 0.672045 0.106731
C45   C     C_3   0.697612 0.404618 0.672031 -0.143205
C46   C     C_3   0.167650 0.464979 0.610964 0.117763
C47   C     C_R   0.860090 0.502976 0.139871 0.561888
C48   C     C_R   0.141696 0.501791 0.861810 0.542657
C49   C     C_R   0.143154 0.779539 0.139429 0.556941
C50   C     C_R   0.860055 0.220127 0.861945 0.543223
C51   C     C_R   0.137508 0.495757 0.140821 0.563291
C52   C     C_R   0.641639 0.499993 0.641578 0.540755
C53   C     C_R   0.858293 0.499978 0.858449 0.549709
C54   C     C_3   0.802425 0.568846 0.732336 -0.135415
C55   C     C_3   0.801811 0.473857 0.707029 -0.155487
C56   C     C_3   0.699042 0.499790 0.698349 0.045836
C57   C     C_3   0.800962 0.500031 0.801451 0.052317
C58   C     C_R   0.270313 0.051756 0.336846 -0.102453
C59   C     C_R   0.297698 0.108531 0.300968 -0.022804
C60   C     C_R   0.270705 0.052347 0.205311 0.207617
H1    H     H_    0.845449 0.453124 0.673017 0.163731
H2    H     H_    0.391440 0.100823 0.449342 0.307453
H3    H     H_    0.539318 0.370891 0.165716 0.378690
H4    H     H_    0.793193 0.621260 0.100283 0.330621
H5    H     H_    0.908571 0.430343 0.306255 0.372572
H6    H     H_    0.990957 0.681480 0.394482 0.325122
H7    H     H_    0.811593 0.429533 0.405826 0.354374
H8    H     H_    0.902277 0.680673 0.489054 0.342137
H9    H     H_    0.582832 0.828612 0.774726 0.323958
H10   H     H_    0.753317 0.171788 0.946542 0.328833
H11   H     H_    0.914878 0.104737 0.546750 0.385230
H12   H     H_    0.844746 0.624907 0.716823 0.190081
H13   H     H_    0.983405 0.100840 0.750360 0.380457
H14   H     H_    0.951300 0.864957 0.662388 0.386437
H15   H     H_    0.489876 0.594001 0.242984 0.349372
H16   H     H_    0.041373 0.256709 0.091065 0.328895
H17   H     H_    0.164682 0.702203 0.426213 0.400131
H18   H     H_    0.086524 0.450800 0.291019 0.297176
H19   H     H_    0.357518 0.696317 0.602786 0.368311
H20   H     H_    0.186829 0.464087 0.382163 0.316843
H21   H     H_    0.456640 0.549475 0.779462 0.337629
H22   H     H_    0.306253 0.658249 0.031486 0.339067
H23   H     H_    0.756769 0.905464 0.562984 0.139880
H24   H     H_    0.029771 0.489365 0.633897 0.338814
H25   H     H_    0.989076 0.252940 0.491389 0.352614
H26   H     H_    0.659332 0.562831 0.893372 0.376833
H27   H     H_    0.582591 0.330789 0.755059 0.370636
H28   H     H_    0.222529 0.209000 0.174632 0.395278
H29   H     H_    0.281741 0.776630 0.974985 0.373474
H30   H     H_    0.123060 0.897247 0.416656 0.379163
H31   H     H_    0.845025 0.672736 0.891999 0.161309
H32   H     H_    0.055998 0.391337 0.657536 0.153521
H33   H     H_    0.177527 0.512366 0.585800 0.194997
H34   H     H_    0.653802 0.326607 0.608464 0.155440
H35   H     H_    0.307156 0.917280 0.358005 0.318819
H36   H     H_    0.255932 0.171830 0.493712 0.383145
O1    O     O_3   0.500000 0.500000 0.500000 -0.504924
O2    O     O_R   0.945260 0.268310 0.884540 -0.490743
O3    O     O_R   0.117230 0.560570 0.177940 -0.481969
O4    O     O_R   0.676910 0.731570 0.616180 -0.492201
O5    O     O_R   0.821960 0.439250 0.882690 -0.442348
O6    O     O_R   0.117230 0.439140 0.056500 -0.453052
O7    O     O_R   0.943400 0.560680 0.882690 -0.532528
O8    O     O_R   0.115380 0.731510 0.054650 -0.481624
O9    O     O_R   0.823040 0.268340 0.883770 -0.509117
O10   O     O_R   0.945260 0.560610 0.176860 -0.502022
O11   O     O_R   0.116150 0.439180 0.884540 -0.454833
O12   O     O_R   0.384580 0.439270 0.616180 -0.500811
O13   O     O_R   0.384580 0.268400 0.445300 -0.540501
O14   O     O_R   0.383810 0.560730 0.615410 -0.544335
O15   O     O_R   0.554700 0.439300 0.323100 -0.509180
O16   O     O_R   0.382730 0.560770 0.443450 -0.488177
O17   O     O_R   0.678000 0.560660 0.617260 -0.531431
O18   O     O_R   0.382730 0.439340 0.322020 -0.470172
O19   O     O_R   0.556550 0.439230 0.617260 -0.515176
O20   O     O_3   0.252942 0.897295 0.376132 -0.589884
O21   O     O_3   0.217243 0.096253 0.463611 -0.565307
O22   O     O_3   0.350428 0.108374 0.483386 -0.613686
O23   O     O_R   0.676910 0.560700 0.445300 -0.475698
O24   O     O_3   0.575433 0.441682 0.180803 -0.529120
O25   O     O_2   0.641065 0.362535 0.986525 -0.140665
O26   O     O_2   0.612424 0.494388 0.065839 -0.143112
O27   O     O_3   0.767651 0.550941 0.046305 -0.517555
O28   O     O_3   0.877370 0.439176 0.269970 -0.627465
O29   O     O_3   0.982775 0.615958 0.375288 -0.607538
O30   O     O_3   0.774324 0.437284 0.374470 -0.647182
O31   O     O_3   0.877410 0.614142 0.481203 -0.626980
O32   O     O_3   0.596746 0.896345 0.793766 -0.571025
O33   O     O_3   0.700008 0.103065 0.898299 -0.567684
O34   O     O_R   0.554700 0.731600 0.615410 -0.505938
O35   O     O_2   0.742845 0.075242 0.628693 -0.238426
O36   O     O_2   0.897447 0.228544 0.699213 -0.282241
O37   O     O_3   0.850254 0.075104 0.535918 -0.459908
O38   O     O_3   0.963977 0.107156 0.704130 -0.574447
O39   O     O_2   0.807153 0.769546 0.524221 -0.275218
O40   O     O_2   0.939996 0.927607 0.554775 -0.200339
O41   O     O_3   0.924420 0.904145 0.684818 -0.483623
O42   O     O_2   0.358964 0.335303 0.141087 -0.148766
O43   O     O_2   0.370179 0.427818 0.076014 -0.131214
O44   O     O_3   0.481494 0.532078 0.234291 -0.455829
O45   O     O_R   0.383810 0.268430 0.323100 -0.469797
O46   O     O_2   0.178924 0.315733 0.975626 -0.109268
O47   O     O_2   0.177915 0.235477 0.049997 -0.207364
O48   O     O_3   0.049537 0.256530 0.037317 -0.503966
O49   O     O_3   0.197612 0.691041 0.383217 -0.544037
O50   O     O_3   0.094718 0.518211 0.327371 -0.626392
O51   O     O_2   0.387977 0.805771 0.490594 -0.184297
O52   O     O_2   0.281370 0.773930 0.570540 -0.207922
O53   O     O_3   0.397168 0.733704 0.579164 -0.419339
O54   O     O_3   0.210667 0.533546 0.436902 -0.666002
O55   O     O_3   0.413335 0.522617 0.806895 -0.569869
O56   O     O_3   0.999960 0.499910 0.999960 -0.524450
O57   O     O_2   0.287343 0.432334 0.918800 -0.110431
O58   O     O_2   0.420697 0.604107 0.979539 -0.177155
O59   O     O_3   0.280030 0.589172 0.018391 -0.517695
O60   O     O_3   0.083555 0.531317 0.686447 -0.643428
O61   O     O_2   0.194400 0.341535 0.469848 -0.234262
O62   O     O_2   0.135431 0.283113 0.564674 -0.251301
O63   O     O_3   0.028275 0.269749 0.456843 -0.460022
O64   O     O_3   0.643972 0.550817 0.834465 -0.631943
O65   O     O_3   0.645142 0.362405 0.787042 -0.572721
O66   O     O_2   0.347405 0.165606 0.140011 -0.178906
O67   O     O_R   0.823040 0.439210 0.054650 -0.478696
O68   O     O_2   0.189447 0.021039 0.057768 -0.173686
O69   O     O_3   0.227489 0.182748 0.209157 -0.490995
O70   O     O_2   0.172202 0.833298 0.972978 -0.186335
O71   O     O_2   0.331636 0.975024 0.044946 -0.176431
O72   O     O_3   0.281503 0.811483 0.037385 -0.537426
O73   O     O_3   0.122228 0.890289 0.359059 -0.589023
O74   O     O_R   0.115380 0.560640 0.883770 -0.506902
O75   O     O_R   0.116150 0.731480 0.176860 -0.496742
S1    S     S_3+6 0.681833 0.472360 0.063384 0.131326
S2    S     S_3+6 0.255397 0.892013 0.048875 0.114965
S3    S     S_3+6 0.838828 0.112889 0.637559 0.073855
S4    S     S_3+6 0.872267 0.883257 0.593336 0.055339
S5    S     S_3+6 0.377099 0.434161 0.161418 0.159303
S6    S     S_3+6 0.158949 0.307327 0.051882 0.121253
S7    S     S_3+6 0.330738 0.734479 0.516010 0.160090
S8    S     S_3+6 0.320248 0.536376 0.940628 0.138023
S9    S     S_3+6 0.132939 0.336754 0.524519 0.032861
S10   S     S_3+6 0.259354 0.104990 0.149271 0.143884
Zn1   Zn    Zn3+2 0.457170 0.413230 0.543930 1.017093
Zn2   Zn    Zn3+2 0.456070 0.586770 0.542830 1.020983
Zn3   Zn    Zn3+2 0.456070 0.413270 0.369320 1.086355
Zn4   Zn    Zn3+2 0.630690 0.586730 0.543930 1.030761
Zn5   Zn    Zn3+2 0.042790 0.586680 0.956030 1.042759
Zn6   Zn    Zn3+2 0.043880 0.586640 0.130630 1.052352
Zn7   Zn    Zn3+2 0.043880 0.413140 0.957130 1.102753
Zn8   Zn    Zn3+2 0.869270 0.413190 0.956030 1.082743

loop_
_geom_bond_atom_site_label_1
_geom_bond_atom_site_label_2
_ccdc_geom_bond_type
O13   Zn1   S    
C4    O13   A    
O57   S8    D    
C26   H23   S    
C27   C29   A    
C11   C13   A    
C41   C42   A    
C7    O21   S    
C12   H31   S    
C35   C36   S    
C18   C26   S    
O63   S9    S    
O56   Zn7   S    
C34   O65   S    
C49   O8    A    
O3    Zn6   S    
C3    C49   S    
C16   O14   A    
C23   C56   S    
C39   C41   A    
C52   O17   A    
C27   C33   A    
C51   O6    A    
H20   O54   S    
C12   C23   S    
C37   C38   A    
C5    C58   A    
C31   S6    S    
C18   C24   A    
C21   C22   A    
O10   Zn6   S    
C20   O32   S    
O5    Zn8   S    
O34   Zn2   S    
C2    S2    S    
C5    C6    S    
C2    C60   A    
C17   O30   S    
C52   O19   A    
O46   S6    D    
C39   O55   S    
H30   O73   S    
C18   C19   A    
C35   O49   S    
H5    O28   S    
H13   O38   S    
O62   S9    D    
O15   Zn3   S    
O2    Zn7   S    
O68   S10   D    
C25   S3    S    
C40   O18   A    
H19   O53   S    
C19   C20   A    
C45   C56   S    
C44   C46   S    
C8    C9    A    
C50   O9    A    
C8    C14   A    
C9    C10   A    
C7    C58   S    
O27   S1    S    
C44   H32   S    
O71   S2    D    
C47   O67   A    
C23   C34   S    
O40   S4    D    
C59   C60   A    
C13   C14   A    
C7    O22   S    
O43   S5    D    
O7    Zn5   S    
O56   Zn6   S    
C45   H34   S    
C1    O4    A    
C30   S5    S    
O59   S8    S    
O1    Zn2   S    
O16   Zn2   S    
C28   O15   A    
C51   O3    A    
O72   S2    S    
H14   O41   S    
C54   C56   S    
C1    C19   S    
C50   O2    A    
C15   O28   S    
C44   O60   S    
C46   S9    S    
H36   O21   S    
O1    Zn1   S    
C36   S7    S    
C24   C25   S    
H9    O32   S    
O66   S10   D    
O56   Zn5   S    
C1    O34   A    
H7    O30   S    
C53   O5    A    
C4    O45   A    
C13   C47   S    
C53   C57   S    
C17   O31   S    
O36   S3    D    
C58   C59   A    
H21   O55   S    
O11   Zn7   S    
H10   O33   S    
O6    Zn7   S    
O61   S9    D    
O39   S4    D    
C37   C43   A    
O1    Zn4   S    
C43   C44   S    
O23   Zn4   S    
H29   O72   S    
C29   C30   A    
O12   Zn1   S    
O9    Zn8   S    
C34   C57   S    
C6    O20   S    
C31   C32   A    
H35   O20   S    
O44   S5    S    
C47   O10   A    
O17   Zn4   S    
C23   O64   S    
O74   Zn5   S    
O56   Zn8   S    
O67   Zn8   S    
C34   C45   S    
C42   C48   S    
C20   C21   A    
C25   O38   S    
H8    O31   S    
C21   O33   S    
C48   O74   A    
H22   O59   S    
H16   O48   S    
H27   O65   S    
O14   Zn2   S    
C16   O12   A    
O26   S1    D    
C55   C57   S    
O42   S5    D    
C22   C24   A    
C42   C43   A    
C12   C57   S    
H17   O49   S    
O19   Zn1   S    
O1    Zn3   S    
C49   O75   A    
O37   S3    S    
C32   C51   S    
C60   S10   S    
C15   C17   S    
C54   C55   S    
O70   S2    D    
O52   S7    D    
C38   C39   A    
C41   S8    S    
C40   O16   A    
C3    C5    A    
C28   O23   A    
H11   O37   S    
O41   S4    S    
C6    C7    S    
O75   Zn6   S    
C27   C36   S    
H4    O27   S    
O8    Zn5   S    
O35   S3    D    
C8    C17   S    
H6    O29   S    
C22   C50   S    
H15   O44   S    
O45   Zn3   S    
O69   S10   S    
C32   C33   A    
C2    C3    A    
C25   C26   S    
H3    O24   S    
H24   O60   S    
O51   S7    D    
C36   O54   S    
C30   C31   A    
C46   H33   S    
C26   S4    S    
C53   O7    A    
O18   Zn3   S    
C55   H1    S    
C4    C59   S    
O53   S7    S    
C33   C35   S    
O4    Zn4   S    
O47   S6    D    
H2    O22   S    
C10   O24   S    
C10   C11   A    
H18   O50   S    
C48   O11   A    
C11   S1    S    
O25   S1    D    
C54   H12   S    
O48   S6    S    
C45   C55   S    
H28   O69   S    
C15   O29   S    
C14   C15   S    
H25   O63   S    
C29   C40   S    
C37   C46   S    
O58   S8    D    
H26   O64   S    
C35   O50   S    
C12   C54   S    
C52   C56   S    
C9    C28   S    
C16   C38   S    
C6    O73   S    
