data_mof_unit_6630.cif
_audit_creation_date              2012-12-10T19:55:52-0500
_audit_creation_method            fapswitch 2.2
_symmetry_space_group_name_H-M    P1
_symmetry_Int_Tables_number       1
_space_group_crystal_system       triclinic
_cell_length_a                    15.087343
_cell_length_b                    14.076085
_cell_length_c                    19.187177
_cell_angle_alpha                 89.988772
_cell_angle_beta                  89.876167
_cell_angle_gamma                 89.848866
_cell_volume                      4074.77087526

loop_
_atom_site_label
_atom_site_type_symbol
_atom_type_description
_atom_site_fract_x
_atom_site_fract_y
_atom_site_fract_z
_atom_type_partial_charge
C1    C     C_R   0.327489 0.500070 0.499460 0.926385
C2    C     C_R   0.440652 0.896384 0.457457 0.378101
C3    C     C_R   0.555035 0.204348 0.456170 -0.168868
C4    C     C_R   0.555813 0.795033 0.543247 -0.154602
C5    C     C_R   0.444945 0.204977 0.544027 -0.167830
C6    C     C_R   0.444445 0.795679 0.456761 -0.171379
C7    C     C_R   0.499982 0.053344 0.500409 0.069994
C8    C     C_R   0.499907 0.946682 0.500428 0.068825
C9    C     C_R   0.500422 0.500013 0.365712 0.862277
C10   C     C_R   0.500611 0.499992 0.634487 0.948250
C11   C     C_R   0.577229 0.542390 0.256649 0.080469
C12   C     C_R   0.672459 0.499822 0.499273 0.950844
C13   C     C_R   0.449654 0.438644 0.748268 0.012243
C14   C     C_R   0.564876 0.560773 0.743792 0.069097
C15   C     C_R   0.436036 0.456763 0.252182 0.018184
C16   C     C_R   0.581515 0.542102 0.184190 0.089667
C17   C     C_R   0.453836 0.439193 0.821263 0.069151
C18   C     C_R   0.569383 0.560941 0.816451 0.030140
C19   C     C_R   0.440433 0.456474 0.179510 0.117929
C20   C     C_R   0.512821 0.499338 0.145591 -0.053330
C21   C     C_R   0.513448 0.500382 0.854728 -0.002303
C22   C     C_R   0.504381 0.499995 0.290506 -0.171762
C23   C     C_R   0.231350 0.500070 0.497478 -0.267560
C24   C     C_R   0.504796 0.500004 0.710024 -0.106010
C25   C     C_R   0.514817 0.502542 0.929993 0.325543
C26   C     C_R   0.514409 0.501613 0.069921 0.321009
C27   C     C_R   0.093806 0.572955 0.459952 0.490292
C28   C     C_R   0.906785 0.426777 0.461895 0.493909
C29   C     C_R   0.906909 0.575989 0.527633 0.436405
C30   C     C_R   0.091872 0.427570 0.529891 0.486043
C31   C     C_R   0.185588 0.573847 0.462158 -0.037792
C32   C     C_R   0.815094 0.424735 0.464280 -0.054786
C33   C     C_R   0.814760 0.576101 0.528138 -0.027824
C34   C     C_R   0.768524 0.499723 0.497483 -0.234648
C35   C     C_R   0.183617 0.425926 0.530478 -0.039145
C36   C     C_3   0.029603 0.627226 0.359937 0.101302
C37   C     C_3   0.002433 0.718002 0.322624 -0.781142
C38   C     C_3   0.971402 0.368377 0.363068 0.100836
C39   C     C_3   0.998489 0.275927 0.327923 -0.784721
C40   C     C_3   0.979235 0.633282 0.623419 0.085491
C41   C     C_3   0.003201 0.725901 0.659410 -0.802855
C42   C     C_3   0.026117 0.374211 0.629613 0.100555
C43   C     C_3   0.994083 0.284570 0.665877 -0.788494
C44   C     C_3   0.700434 0.089883 0.410654 0.107895
C45   C     C_R   0.047611 0.500498 0.494327 -0.173133
C46   C     C_3   0.764337 0.013597 0.385276 -0.791518
C47   C     C_3   0.700834 0.907934 0.589477 0.100621
C48   C     C_3   0.765032 0.983377 0.614933 -0.798292
C49   C     C_3   0.300298 0.093301 0.592279 0.106206
C50   C     C_3   0.235530 0.018051 0.617380 -0.796734
C51   C     C_3   0.298420 0.909993 0.412865 0.108286
C52   C     C_3   0.233966 0.986571 0.389063 -0.794048
C53   C     C_R   0.952125 0.501503 0.494244 -0.146696
C54   C     C_R   0.558784 0.103639 0.456814 0.376347
C55   C     C_R   0.559293 0.895803 0.543182 0.369429
C56   C     C_R   0.441144 0.104228 0.543820 0.374498
H1    H     H_    0.595741 0.244772 0.420626 0.138234
H2    H     H_    0.688278 0.603393 0.716489 0.186236
H3    H     H_    0.382244 0.357551 0.316345 0.218839
H4    H     H_    0.331242 0.465359 0.318542 0.171735
H5    H     H_    0.630688 0.638343 0.115358 0.187270
H6    H     H_    0.692572 0.537632 0.124300 0.200621
H7    H     H_    0.411621 0.307223 0.847949 0.188204
H8    H     H_    0.332195 0.392988 0.851252 0.185361
H9    H     H_    0.675227 0.584223 0.879098 0.200183
H10   H     H_    0.593965 0.667664 0.884717 0.193764
H11   H     H_    0.311598 0.443676 0.151660 0.202389
H12   H     H_    0.597372 0.754002 0.577820 0.160422
H13   H     H_    0.368645 0.339883 0.154795 0.201979
H14   H     H_    0.972978 0.577056 0.357562 0.113292
H15   H     H_    0.087711 0.596359 0.331779 0.125677
H16   H     H_    0.057766 0.769889 0.323749 0.252578
H17   H     H_    0.985734 0.701949 0.267540 0.200443
H18   H     H_    0.943475 0.749764 0.348525 0.259613
H19   H     H_    0.027931 0.418496 0.359041 0.111387
H20   H     H_    0.913124 0.397822 0.334498 0.128004
H21   H     H_    0.943221 0.224063 0.330746 0.253619
H22   H     H_    0.014881 0.289396 0.272349 0.198153
H23   H     H_    0.404253 0.246005 0.579342 0.144754
H24   H     H_    0.057617 0.245464 0.354224 0.259440
H25   H     H_    0.039171 0.587291 0.622732 0.127958
H26   H     H_    0.926257 0.598153 0.654725 0.106470
H27   H     H_    0.944414 0.773531 0.661360 0.244889
H28   H     H_    0.025686 0.711239 0.713431 0.202108
H29   H     H_    0.057427 0.761916 0.630500 0.265120
H30   H     H_    0.972156 0.427905 0.632430 0.110859
H31   H     H_    0.085357 0.400843 0.658220 0.124552
H32   H     H_    0.046785 0.229338 0.664373 0.252761
H33   H     H_    0.977583 0.300582 0.721075 0.196982
H34   H     H_    0.403425 0.755312 0.421568 0.138435
H35   H     H_    0.933946 0.257045 0.639459 0.260667
H36   H     H_    0.259946 0.693971 0.463240 0.207674
H37   H     H_    0.277429 0.621550 0.392421 0.176220
H38   H     H_    0.741171 0.304276 0.468621 0.210119
H39   H     H_    0.724765 0.372452 0.395444 0.175137
H40   H     H_    0.787244 0.716572 0.536373 0.207034
H41   H     H_    0.786592 0.656961 0.613089 0.178928
H42   H     H_    0.258205 0.305411 0.530525 0.208417
H43   H     H_    0.270917 0.376190 0.602667 0.190822
H44   H     H_    0.722897 0.113516 0.463189 0.135527
H45   H     H_    0.674082 0.534034 0.329814 0.160783
H46   H     H_    0.703672 0.150407 0.373527 0.147755
H47   H     H_    0.745405 0.989823 0.332178 0.258941
H48   H     H_    0.832736 0.042495 0.383538 0.210738
H49   H     H_    0.762929 0.951731 0.421146 0.247290
H50   H     H_    0.723619 0.883976 0.537020 0.133036
H51   H     H_    0.703240 0.847498 0.626733 0.138585
H52   H     H_    0.745621 0.007723 0.667873 0.259267
H53   H     H_    0.833155 0.953437 0.617069 0.207321
H54   H     H_    0.764616 0.045049 0.578870 0.250018
H55   H     H_    0.276865 0.119347 0.540598 0.135374
H56   H     H_    0.624305 0.642219 0.323370 0.215521
H57   H     H_    0.299417 0.152576 0.630552 0.143284
H58   H     H_    0.255610 0.991586 0.669548 0.257417
H59   H     H_    0.167895 0.048974 0.621119 0.210292
H60   H     H_    0.234366 0.957651 0.580216 0.248597
H61   H     H_    0.276843 0.885418 0.465487 0.134797
H62   H     H_    0.294720 0.850070 0.375271 0.148523
H63   H     H_    0.252077 0.011483 0.336000 0.257560
H64   H     H_    0.165625 0.957494 0.387849 0.212475
H65   H     H_    0.235728 0.047697 0.425582 0.248188
H66   H     H_    0.324117 0.394128 0.729175 0.168741
H67   H     H_    0.402540 0.307328 0.725278 0.192615
H68   H     H_    0.611189 0.691181 0.718068 0.205827
N1    N     N_R   0.586572 0.470748 0.034341 -0.192744
N2    N     N_3   0.360690 0.414698 0.285979 -0.472040
N3    N     N_3   0.654959 0.588419 0.150927 -0.428903
N4    N     N_3   0.398537 0.377571 0.862101 -0.442413
N5    N     N_3   0.629807 0.624403 0.850420 -0.472092
N6    N     N_3   0.372114 0.411141 0.139652 -0.432814
N7    N     N_3   0.230053 0.649728 0.426528 -0.428992
N8    N     N_3   0.771588 0.346551 0.430810 -0.428719
N9    N     N_3   0.768162 0.653383 0.560715 -0.424668
N10   N     N_3   0.225868 0.348949 0.566633 -0.432580
N11   N     N_R   0.442497 0.532943 0.965408 -0.157320
N12   N     N_R   0.586853 0.471316 0.965188 -0.185726
N13   N     N_R   0.442387 0.532685 0.034506 -0.150531
N14   N     N_R   0.500000 0.252470 0.500000 -0.114598
N15   N     N_R   0.500000 0.747530 0.500000 -0.116338
N16   N     N_3   0.648749 0.584406 0.295038 -0.425738
N17   N     N_3   0.388399 0.377935 0.712534 -0.471520
N18   N     N_3   0.622806 0.620547 0.703789 -0.446889
O1    O     O_R   0.369060 0.579480 0.500010 -0.626843
O2    O     O_3   0.952008 0.349992 0.433751 -0.544509
O3    O     O_3   0.951863 0.653392 0.554640 -0.562218
O4    O     O_3   0.045660 0.352689 0.559415 -0.543347
O5    O     O_3   0.613672 0.052185 0.412270 -0.598563
O6    O     O_3   0.614391 0.946833 0.587490 -0.596494
O7    O     O_3   0.386174 0.053150 0.588417 -0.599269
O8    O     O_3   0.385135 0.947852 0.413585 -0.598873
O9    O     O_R   0.630940 0.420520 0.499990 -0.637722
O10   O     O_R   0.630940 0.579480 0.499990 -0.591352
O11   O     O_R   0.369060 0.420520 0.500010 -0.627596
O12   O     O_R   0.499990 0.579500 0.398140 -0.625389
O13   O     O_R   0.500010 0.420500 0.601860 -0.601384
O14   O     O_R   0.500010 0.579500 0.601860 -0.601793
O15   O     O_R   0.499990 0.420500 0.398140 -0.620752
O16   O     O_3   0.049461 0.648907 0.429955 -0.544364
Zn1   Zn    Zn3+2 0.500000 0.606140 0.500000 0.950429
Zn2   Zn    Zn3+2 0.500000 0.393860 0.500000 0.938095

loop_
_geom_bond_atom_site_label_1
_geom_bond_atom_site_label_2
_ccdc_geom_bond_type
C2    O8    S    
C49   H57   S    
C37   H18   S    
C14   N18   S    
C18   C21   A    
C14   C18   A    
C5    C56   A    
C48   H54   S    
C19   C20   A    
H41   N9    S    
C26   N13   A    
C44   O5    S    
C5    N14   A    
C38   H20   S    
H3    N2    S    
C15   C19   A    
C28   C32   A    
C43   H33   S    
C21   C25   S    
C30   C35   A    
C43   H32   S    
C39   H21   S    
C36   C37   S    
C29   O3    S    
H6    N3    S    
C3    C54   A    
C9    C22   S    
C41   H27   S    
C46   H49   S    
C29   C33   A    
C51   H62   S    
C8    C55   A    
C50   H59   S    
C11   C16   A    
C14   C24   A    
C6    N15   A    
C25   N12   A    
H56   N16   S    
C31   N7    S    
C30   C45   A    
C15   C22   A    
C51   O8    S    
C36   H14   S    
H13   N6    S    
H8    N4    S    
C15   N2    S    
C42   H30   S    
C13   N17   S    
C5    H23   S    
H7    N4    S    
C36   H15   S    
C36   O16   S    
C49   H55   S    
H10   N5    S    
C27   C45   A    
C19   N6    S    
C48   H53   S    
O10   Zn1   S    
C45   C53   S    
C12   O9    A    
H68   N18   S    
C2    C6    A    
C7    C56   A    
C35   N10   S    
H45   N16   S    
C44   C46   S    
C30   O4    S    
C38   H19   S    
C27   C31   A    
C51   C52   S    
C39   H22   S    
C40   H26   S    
C7    C8    S    
H36   N7    S    
C10   O14   A    
C4    H12   S    
C44   H46   S    
C10   C24   S    
C6    H34   S    
C41   H28   S    
C46   H48   S    
C43   H35   S    
H43   N10   S    
C27   O16   S    
C26   N1    A    
C32   C34   A    
C11   N16   S    
C1    O1    A    
N14   Zn2   S    
C52   H65   S    
H2    N18   S    
C47   C48   S    
C9    O15   A    
C16   C20   A    
C47   H50   S    
H67   N17   S    
C33   C34   A    
H5    N3    S    
C3    N14   A    
C1    O11   A    
C48   H52   S    
C28   O2    S    
C40   O3    S    
N1    N12   A    
C40   C41   S    
C9    O12   A    
C1    C23   S    
O15   Zn2   S    
C23   C35   A    
C4    C55   A    
H39   N8    S    
H11   N6    S    
C42   C43   S    
C12   C34   S    
C42   O4    S    
C52   H64   S    
C32   N8    S    
N11   N13   A    
C37   H17   S    
C47   O6    S    
O13   Zn2   S    
C38   O2    S    
C40   H25   S    
O14   Zn1   S    
C2    C8    A    
C20   C26   S    
C10   O13   A    
H9    N5    S    
C28   C53   A    
C17   N4    S    
O1    Zn1   S    
H40   N9    S    
C49   O7    S    
C41   H29   S    
C46   H47   S    
H42   N10   S    
C11   C22   A    
C47   H51   S    
H66   N17   S    
C13   C17   A    
C39   H24   S    
O11   Zn2   S    
H4    N2    S    
O12   Zn1   S    
O9    Zn2   S    
C4    N15   A    
C44   H44   S    
C55   O6    S    
C38   C39   S    
C29   C53   A    
C51   H61   S    
C3    H1    S    
C50   H60   S    
C25   N11   A    
C16   N3    S    
H38   N8    S    
N15   Zn1   S    
C12   O10   A    
C52   H63   S    
C33   N9    S    
C13   C24   A    
C49   C50   S    
C37   H16   S    
C18   N5    S    
C42   H31   S    
C7    C54   A    
C50   H58   S    
C56   O7    S    
H37   N7    S    
C23   C31   A    
C54   O5    S    
C17   C21   A    
