data_mof_unit_6360.cif
_audit_creation_date              2012-12-11T15:44:57-0500
_audit_creation_method            fapswitch 2.2
_symmetry_space_group_name_H-M    P1
_symmetry_Int_Tables_number       1
_space_group_crystal_system       triclinic
_cell_length_a                    6.93945
_cell_length_b                    16.882633
_cell_length_c                    17.062269
_cell_angle_alpha                 100.08259
_cell_angle_beta                  89.779163
_cell_angle_gamma                 90.166823
_cell_volume                      1968.05974262

loop_
_atom_site_label
_atom_site_type_symbol
_atom_type_description
_atom_site_fract_x
_atom_site_fract_y
_atom_site_fract_z
_atom_type_partial_charge
O1    O     O_R   0.494370 0.415690 0.413450 -0.539291
O2    O     O_R   0.819420 0.429360 0.578420 -0.544301
O3    O     O_R   0.994280 0.584310 0.586550 -0.514382
C1    C     C_R   0.652579 0.414969 0.606150 0.715756
O4    O     O_R   0.823790 0.406230 0.413570 -0.495776
O5    O     O_R   0.998670 0.561000 0.420530 -0.521388
C2    C     C_R   0.654399 0.384106 0.384162 0.739663
O6    O     O_R   0.489970 0.439000 0.579470 -0.555893
O7    O     O_3   0.662300 0.550810 0.502470 -0.346663
V1    V     V_3+5 0.935380 0.490570 0.499540 1.677804
O8    O     O_R   0.328650 0.570640 0.421580 -0.542879
C3    C     C_R   0.161285 0.586394 0.394919 0.776879
O9    O     O_R   0.324290 0.593770 0.586430 -0.509685
C4    C     C_R   0.154852 0.616426 0.615166 0.837369
V2    V     V_3+5 0.435930 0.509430 0.500460 1.648893
O10   O     O_3   0.159140 0.449190 0.497530 -0.367838
C5    C     C_R   0.289446 0.743473 0.694399 0.585733
C6    C     C_R   0.283386 0.808580 0.758447 -0.196129
C7    C     C_R   0.126386 0.816128 0.814022 -0.430380
C8    C     C_R   0.980700 0.756706 0.801870 0.583334
C9    C     C_R   0.988467 0.692655 0.737336 0.517757
C10   C     C_R   0.143596 0.685035 0.683159 -0.391884
C11   C     C_R   0.161835 0.639244 0.333516 -0.179456
C12   C     C_R   0.096786 0.867632 0.172993 -0.108817
C13   C     C_R   0.918146 0.824467 0.283994 -0.099466
C14   C     C_R   0.945394 0.879275 0.230477 -0.093038
C15   C     C_R   0.223579 0.803156 0.172586 -0.144617
C16   C     C_R   0.199030 0.748749 0.225846 0.088214
C17   C     C_R   0.045634 0.758309 0.282178 -0.044283
C18   C     C_R   0.029559 0.702659 0.336237 0.574628
C19   C     C_R   0.309898 0.630859 0.276428 -0.203374
C20   C     C_R   0.327437 0.684347 0.223042 -0.084643
H1    H     H_    0.414765 0.583040 0.273806 0.157111
H2    H     H_    0.444736 0.676157 0.180283 0.137623
H3    H     H_    0.338011 0.793531 0.128498 0.132758
C21   C     C_R   0.658219 0.364049 0.668888 -0.090534
C22   C     C_R   0.598801 0.135362 0.828874 -0.327088
C23   C     C_R   0.412913 0.186674 0.725276 0.603138
C24   C     C_R   0.434136 0.131209 0.777048 -0.196379
C25   C     C_R   0.737309 0.195927 0.825077 0.602128
C26   C     C_R   0.711650 0.252213 0.773444 -0.046764
C27   C     C_R   0.547572 0.247751 0.723815 -0.062840
C28   C     C_R   0.520786 0.304094 0.672539 -0.116414
C29   C     C_R   0.819978 0.368738 0.719319 -0.126826
C30   C     C_R   0.846124 0.313908 0.771019 -0.024309
H4    H     H_    0.397783 0.299440 0.633024 0.181324
H5    H     H_    0.929344 0.414353 0.717636 0.133966
H6    H     H_    0.973384 0.319348 0.808169 0.174659
C31   C     C_R   0.797267 0.264026 0.295496 0.607308
C32   C     C_R   0.799017 0.207454 0.224584 -0.082781
C33   C     C_R   0.628769 0.190880 0.179123 -0.194939
C34   C     C_R   0.478896 0.246378 0.195084 -0.123805
H7    H     H_    0.362707 0.243636 0.153765 0.148476
C35   C     C_R   0.484185 0.310385 0.259625 -0.031326
C36   C     C_R   0.641508 0.317572 0.313849 -0.262134
O11   O     O_R   0.774880 0.061150 0.920630 -0.496522
O12   O     O_R   0.440980 0.093710 0.086500 -0.555313
O13   O     O_R   0.266190 0.938890 0.079390 -0.538782
C37   C     C_R   0.611557 0.119458 0.112749 0.744649
O14   O     O_R   0.445420 0.070740 0.921670 -0.539022
O15   O     O_R   0.270660 0.915760 0.913380 -0.531847
C38   C     C_R   0.610644 0.084335 0.892729 0.775686
O16   O     O_R   0.770400 0.084270 0.086640 -0.530870
O17   O     O_3   0.602590 0.949210 0.997500 -0.359218
V3    V     V_3+5 0.329470 0.009420 0.000470 1.570311
O18   O     O_R   0.940650 0.906250 0.913470 -0.509718
C39   C     C_R   0.110929 0.884209 0.883641 0.817846
O19   O     O_R   0.936210 0.929220 0.078300 -0.546125
C40   C     C_R   0.102695 0.915615 0.106883 0.725014
V4    V     V_3+5 0.828930 0.990510 0.999490 1.632898
O20   O     O_3   0.105680 0.050790 0.002500 -0.358345
F1    F     F_    0.439477 0.737761 0.642090 -0.601975
F2    F     F_    0.254816 0.182559 0.677635 -0.646718
C41   C     C_2   0.276112 0.071007 0.773038 0.900189
O21   O     O_2   0.166550 0.071337 0.829284 -0.527843
O22   O     O_R   0.235576 0.021749 0.700252 -0.594360
H8    H     H_    0.119045 0.985984 0.703243 0.303041
F3    F     F_    0.891284 0.203097 0.874834 -0.649540
F4    F     F_    0.954152 0.269943 0.343533 -0.614524
C42   C     C_2   0.987031 0.185086 0.187602 0.862401
O23   O     O_2   0.110409 0.153065 0.222254 -0.503979
O24   O     O_R   0.021232 0.203482 0.111927 -0.658853
H9    H     H_    0.143015 0.179137 0.086112 0.303329
C43   C     C_2   0.443501 0.867286 0.761656 0.907702
O25   O     O_2   0.478230 0.898087 0.703405 -0.512562
O26   O     O_R   0.568396 0.880423 0.826352 -0.608360
H10   H     H_    0.675060 0.919374 0.818524 0.277724
C44   C     C_2   0.330981 0.371580 0.262260 0.774374
O27   O     O_2   0.211906 0.381162 0.315919 -0.506839
O28   O     O_R   0.316325 0.414915 0.199876 -0.671196
H11   H     H_    0.203248 0.453441 0.206762 0.282719
F5    F     F_    0.832229 0.758723 0.854225 -0.614514
F6    F     F_    0.845974 0.636537 0.729492 -0.628232
F7    F     F_    0.895301 0.712010 0.395191 -0.658677
C45   C     C_2   0.756761 0.838594 0.341979 0.961210
O29   O     O_2   0.620593 0.791852 0.336078 -0.519119
O30   O     O_R   0.758515 0.906825 0.401649 -0.624022
H12   H     H_    0.639811 0.910498 0.436916 0.338092
C46   C     C_2   0.813208 0.949128 0.234866 0.796049
O31   O     O_2   0.879405 0.017064 0.241487 -0.532211
O32   O     O_R   0.613759 0.936998 0.231173 -0.662811
H13   H     H_    0.539545 0.989095 0.234174 0.304661

loop_
_geom_bond_atom_site_label_1
_geom_bond_atom_site_label_2
_ccdc_geom_bond_type
C1    C21   S    
O32   H13   S    
C26   C27   A    
C45   O29   D    
C12   C15   A    
C2    C36   S    
C1    O6    A    
C22   C38   S    
C29   C30   A    
C8    F5    S    
C3    C11   S    
C41   O22   S    
C16   C17   A    
C43   O26   S    
C23   C27   A    
C22   C25   A    
O5    C3    A    
C23   C24   A    
O12   C37   A    
V2    O10   S    
O14   C38   A    
C6    C7    A    
C24   C41   S    
C31   C32   A    
O8    V2    S    
C19   C20   A    
O19   C40   A    
C6    C43   S    
C19   H1    S    
C7    C39   S    
V4    O20   S    
O1    V2    S    
O17   V4    S    
O7    V1    S    
C29   H5    S    
C14   C46   S    
O18   C39   A    
O9    C4    A    
C34   C35   A    
C12   C40   S    
O30   H12   S    
C13   C17   A    
C22   C24   A    
C41   O21   D    
C33   C34   A    
C11   C18   A    
C16   C20   A    
O22   H8    S    
C42   O24   S    
O4    C2    A    
O26   H10   S    
C15   H3    S    
C13   C14   A    
C31   C36   A    
C31   F4    S    
C11   C19   A    
O2    C1    A    
C17   C18   A    
O15   C39   A    
O13   V3    S    
C46   O31   D    
O16   V4    S    
C8    C9    A    
C5    C6    A    
C32   C33   A    
C43   O25   D    
O3    C4    A    
C25   C26   A    
C46   O32   S    
C44   O28   S    
O14   V3    S    
C13   C45   S    
O6    V2    S    
O11   V4    S    
O9    V2    S    
C25   F3    S    
C21   C29   A    
C33   C37   S    
C27   C28   A    
O2    V1    S    
C34   H7    S    
C30   H6    S    
C35   C36   A    
O1    C2    A    
C12   C14   A    
O12   V3    S    
C42   O23   D    
C32   C42   S    
O5    V1    S    
O8    C3    A    
C45   O30   S    
O13   C40   A    
C37   O16   A    
C5    C10   A    
O17   V3    S    
C4    C10   S    
C7    C8    A    
O7    V2    S    
O4    V1    S    
C18   F7    S    
O3    V1    S    
V3    O20   S    
C35   C44   S    
O28   H11   S    
O18   V4    S    
C9    F6    S    
O11   C38   A    
C28   H4    S    
O15   V3    S    
C44   O27   D    
C5    F1    S    
O19   V4    S    
O24   H9    S    
C15   C16   A    
C26   C30   A    
C21   C28   A    
V1    O10   S    
C9    C10   A    
C20   H2    S    
C23   F2    S    
