data_mof_unit_27955.cif
_audit_creation_date              2012-12-10T20:30:08-0500
_audit_creation_method            fapswitch 2.2
_symmetry_space_group_name_H-M    P1
_symmetry_Int_Tables_number       1
_space_group_crystal_system       triclinic
_cell_length_a                    9.901284
_cell_length_b                    10.699118
_cell_length_c                    13.232464
_cell_angle_alpha                 91.917642
_cell_angle_beta                  73.795311
_cell_angle_gamma                 89.79618
_cell_volume                      1345.21425849

loop_
_atom_site_label
_atom_site_type_symbol
_atom_type_description
_atom_site_fract_x
_atom_site_fract_y
_atom_site_fract_z
_atom_type_partial_charge
C1    C     C_R   0.500935 0.740028 0.497157 0.896554
C2    C     C_R   0.451471 0.404683 0.970695 0.109700
C3    C     C_R   0.493105 0.406923 0.859968 0.009903
C4    C     C_R   0.554393 0.431289 0.024491 0.134042
C5    C     C_R   0.697399 0.447055 0.966454 0.000563
C6    C     C_R   0.737943 0.408809 0.860178 -0.222709
C7    C     C_R   0.636540 0.387188 0.807658 -0.154241
C8    C     C_R   0.517599 0.451425 0.133139 -0.334488
C9    C     C_R   0.754545 0.515239 0.126072 0.644849
C10   C     C_R   0.389564 0.426273 0.806318 -0.260964
C11   C     C_R   0.382963 0.936935 0.486243 0.045016
C12   C     C_R   0.426567 0.477350 0.699300 0.915528
C13   C     C_R   0.506408 0.871174 0.480863 -0.108924
C14   C     C_R   0.635602 0.933186 0.455418 -0.169954
C15   C     C_R   0.636259 0.062636 0.453978 -0.162846
C16   C     C_R   0.507711 0.128220 0.477522 -0.180639
C17   C     C_R   0.383675 0.064613 0.483286 0.088000
C18   C     C_3   0.245301 0.077907 0.565210 0.512347
C19   C     C_3   0.246212 0.937313 0.570132 -0.495953
C20   C     C_R   0.910280 0.595954 0.548725 0.187745
C21   C     C_R   0.948822 0.415113 0.440744 -0.027584
C22   C     C_R   0.093653 0.415605 0.438155 0.027071
C23   C     C_R   0.502004 0.260091 0.495236 0.847188
C24   C     C_R   0.051593 0.592650 0.552676 0.124438
C25   C     C_3   0.004858 0.612507 0.669124 -0.271401
C26   C     C_3   0.856274 0.633638 0.661658 -0.472742
C27   C     C_R   0.575270 0.499507 0.297540 0.932773
C28   C     C_R   0.794897 0.499162 0.016558 -0.179947
C29   C     C_R   0.617290 0.488742 0.183685 -0.220983
C30   C     C_R   0.249373 0.397176 0.857791 0.598574
C31   C     C_R   0.211159 0.369347 0.963991 -0.120931
C32   C     C_R   0.308837 0.379801 0.021695 -0.245788
H1    H     H_    0.735336 0.110723 0.441781 0.195136
H2    H     H_    0.250264 0.128337 0.638965 0.096288
H3    H     H_    0.259508 0.906752 0.646111 0.159719
H4    H     H_    0.161470 0.891456 0.542785 0.247202
H5    H     H_    0.909157 0.346277 0.394806 0.186528
H6    H     H_    0.018874 0.523635 0.705708 0.197403
H7    H     H_    0.779530 0.568056 0.706614 0.213734
H8    H     H_    0.847377 0.397972 0.816445 0.175543
H9    H     H_    0.818720 0.732543 0.671157 0.240701
H10   H     H_    0.410973 0.439864 0.180202 0.179245
H11   H     H_    0.270718 0.363597 0.104743 0.183312
H12   H     H_    0.103606 0.345057 0.003050 0.185479
H13   H     H_    0.672249 0.356585 0.725766 0.185918
H14   H     H_    0.734397 0.883110 0.443598 0.190884
N1    N     N_R   0.856940 0.500860 0.500710 -0.135866
N2    N     N_R   0.142580 0.500820 0.500710 -0.159310
O1    O     O_R   0.385310 0.683210 0.499990 -0.623231
O2    O     O_R   0.614650 0.683240 0.500000 -0.611031
O3    O     O_R   0.328390 0.499940 0.653610 -0.575662
O4    O     O_R   0.557730 0.499980 0.653620 -0.642985
O5    O     O_R   0.385350 0.316760 0.500000 -0.629387
O6    O     O_R   0.614690 0.316790 0.500010 -0.635253
O7    O     O_R   0.442270 0.500020 0.346380 -0.667804
O8    O     O_R   0.671610 0.500060 0.346390 -0.552293
Zn1   Zn    Zn3+2 0.346870 0.499980 0.499990 0.966332
Zn2   Zn    Zn3+2 0.653130 0.500020 0.500010 0.975341
F1    F     F_    0.846822 0.561794 0.176555 -0.610694
F2    F     F_    0.140665 0.121206 0.524067 -0.620053
C33   C     C_2   0.188569 0.323338 0.366056 0.500517
H15   H     H_    0.300331 0.325155 0.352621 0.114468
O9    O     O_2   0.141860 0.242594 0.318130 -0.568173
C34   C     C_2   0.071478 0.720921 0.710446 0.456945
H16   H     H_    0.182536 0.715364 0.705056 0.092682
O10   O     O_2   0.002240 0.811899 0.754514 -0.552985
C35   C     C_2   0.930151 0.552452 0.955547 0.527946
H17   H     H_    0.952697 0.559295 0.872256 0.073804
O11   O     O_2   0.015375 0.595405 0.998100 -0.495202
F3    F     F_    0.150315 0.391013 0.804887 -0.709397

loop_
_geom_bond_atom_site_label_1
_geom_bond_atom_site_label_2
_ccdc_geom_bond_type
C2    C4    A    
C6    C7    A    
O3    Zn1   S    
C25   H6    S    
C27   C29   S    
C5    C28   A    
C11   C13   A    
C1    O2    A    
C10   C30   A    
C9    F1    S    
C22   N2    A    
C31   C32   A    
C9    C29   A    
C30   C31   A    
C4    C8    A    
C34   H16   S    
C28   C35   S    
C17   C18   S    
O1    Zn1   S    
N2    Zn1   S    
C14   H14   S    
C3    C10   A    
C19   H3    S    
C13   C14   A    
C27   O8    A    
C22   C33   S    
C18   H2    S    
C11   C19   S    
C6    H8    S    
C5    C6    A    
C20   C26   S    
C8    C29   A    
C10   C12   S    
C18   F2    S    
C12   O4    A    
C32   H11   S    
O8    Zn2   S    
C23   O5    A    
C16   C23   S    
C2    C3    A    
C19   H4    S    
O7    Zn1   S    
C33   H15   S    
O4    Zn2   S    
C27   O7    A    
C26   H7    S    
N1    Zn2   S    
C20   N1    A    
C1    C13   S    
C31   H12   S    
C15   C16   A    
O2    Zn2   S    
C16   C17   A    
C7    H13   S    
C20   C24   A    
C12   O3    A    
C21   H5    S    
C24   C25   S    
C26   H9    S    
C23   O6    A    
C2    C32   A    
C18   C19   S    
O6    Zn2   S    
C33   O9    D    
C21   N1    A    
O5    Zn1   S    
C14   C15   A    
C11   C17   A    
C34   O10   D    
C3    C7    A    
C30   F3    S    
C25   C26   S    
C21   C22   A    
C1    O1    A    
C15   H1    S    
C35   H17   S    
C9    C28   A    
C8    H10   S    
C4    C5    A    
C35   O11   D    
C25   C34   S    
C24   N2    A    
