data_mof_unit_24409.cif
_audit_creation_date              2012-12-11T14:30:48-0500
_audit_creation_method            fapswitch 2.2
_symmetry_space_group_name_H-M    P1
_symmetry_Int_Tables_number       1
_space_group_crystal_system       triclinic
_cell_length_a                    17.519719
_cell_length_b                    24.528163
_cell_length_c                    14.908975
_cell_angle_alpha                 88.944117
_cell_angle_beta                  125.6612
_cell_angle_gamma                 90.831483
_cell_volume                      5204.43278491

loop_
_atom_site_label
_atom_site_type_symbol
_atom_type_description
_atom_site_fract_x
_atom_site_fract_y
_atom_site_fract_z
_atom_type_partial_charge
C1    C     C_R   0.845033 0.650551 0.908094 0.606437
C2    C     C_R   0.929463 0.506150 0.629955 0.036888
C3    C     C_1   0.451826 0.258513 0.192505 0.051038
C4    C     C_3   0.792574 0.422346 0.219805 -0.166383
C5    C     C_3   0.760825 0.417290 0.448585 -0.330818
C6    C     C_3   0.292572 0.922348 0.219802 -0.166389
C7    C     C_3   0.260824 0.917290 0.448584 -0.330821
C8    C     C_3   0.137179 0.508424 0.551082 -0.241724
C9    C     C_3   0.953091 0.596645 0.507638 -0.229891
C10   C     C_3   0.637178 0.008423 0.551080 -0.241727
C11   C     C_3   0.453092 0.096645 0.507639 -0.229899
C12   C     C_3   0.819342 0.321057 0.775344 -0.288790
C13   C     C_R   0.502935 0.997710 0.326195 0.042877
C14   C     C_3   0.172752 0.281533 0.195464 -0.230763
C15   C     C_3   0.319343 0.821057 0.775344 -0.288791
C16   C     C_3   0.672712 0.781545 0.195456 -0.230754
C17   C     C_R   0.429463 0.006150 0.629955 0.036888
C18   C     C_R   0.686137 0.500364 0.648632 0.005137
C19   C     C_R   0.323786 0.502020 0.278836 0.020663
C20   C     C_R   0.186138 0.000363 0.648631 0.005135
C21   C     C_R   0.823786 0.002020 0.278838 0.020667
C22   C     C_3   0.527656 0.450297 0.496872 0.016663
C23   C     C_3   0.500933 0.466073 0.382173 0.045064
C24   C     C_3   0.027658 0.950297 0.496868 0.016662
C25   C     C_R   0.147731 0.653234 0.088453 0.586566
C26   C     C_3   0.000933 0.966074 0.382170 0.045066
C27   C     C_3   0.449551 0.486250 0.480413 -0.200004
C28   C     C_3   0.569318 0.515410 0.430305 -0.220283
C29   C     C_3   0.949552 0.986248 0.480413 -0.200006
C30   C     C_3   0.069317 0.015413 0.430304 -0.220285
C31   C     C_3   0.423295 0.502104 0.365248 0.118274
C32   C     C_3   0.594367 0.499352 0.544742 0.111596
C33   C     C_3   0.923295 0.002104 0.365248 0.118273
C34   C     C_3   0.094368 0.999352 0.544741 0.111596
C35   C     C_3   0.489440 0.551778 0.412249 -0.140322
C36   C     C_R   0.345032 0.150551 0.908093 0.606438
C37   C     C_3   0.516423 0.535729 0.528052 -0.130630
C38   C     C_3   0.989439 0.051778 0.412252 -0.140323
C39   C     C_3   0.016424 0.035727 0.528054 -0.130626
C40   C     C_2   0.109745 0.773403 0.909257 0.092514
C41   C     C_2   0.866088 0.765067 0.082924 0.096952
C42   C     C_2   0.609744 0.273403 0.909257 0.092514
C43   C     C_2   0.366084 0.265067 0.082921 0.096958
C44   C     C_2   0.131897 0.742704 0.996795 -0.244992
C45   C     C_2   0.842292 0.735683 0.995062 -0.232218
C46   C     C_2   0.631896 0.242704 0.996795 -0.244992
C47   C     C_R   0.647731 0.153234 0.088454 0.586567
C48   C     C_2   0.342288 0.235683 0.995060 -0.232209
C49   C     C_2   0.674463 0.316895 0.926535 -0.132412
C50   C     C_2   0.298120 0.303568 0.070026 -0.131659
C51   C     C_2   0.174464 0.816894 0.926535 -0.132413
C52   C     C_2   0.798124 0.803567 0.070030 -0.131616
C53   C     C_R   0.916335 0.365477 0.095235 -0.256078
C54   C     C_R   0.069942 0.357883 0.904999 -0.247307
C55   C     C_R   0.416335 0.865476 0.095235 -0.256113
C56   C     C_R   0.569944 0.857884 0.904999 -0.247319
C57   C     C_2   0.766974 0.311278 0.004735 -0.192733
C58   C     C_R   0.832414 0.346595 0.004006 -0.013261
C59   C     C_2   0.205600 0.293857 0.999218 -0.206235
C60   C     C_2   0.266975 0.811277 0.004735 -0.192732
C61   C     C_2   0.705605 0.793858 0.999220 -0.206215
C62   C     C_2   0.890270 0.477820 0.365282 0.432012
C63   C     C_2   0.864341 0.471433 0.442956 0.418785
C64   C     C_2   0.390269 0.977820 0.365281 0.432011
C65   C     C_2   0.364340 0.971433 0.442955 0.418787
C66   C     C_2   0.980142 0.491367 0.405625 0.340354
C67   C     C_2   0.887036 0.513770 0.510790 0.394959
C68   C     C_2   0.480141 0.991367 0.405624 0.340354
C69   C     C_R   0.141816 0.330498 0.997021 -0.021469
C70   C     C_2   0.387035 0.013770 0.510790 0.394960
C71   C     C_R   0.010776 0.545163 0.279184 -0.129686
C72   C     C_R   0.949160 0.549050 0.697808 -0.122991
C73   C     C_R   0.510775 0.045163 0.279183 -0.129685
C74   C     C_R   0.449160 0.049050 0.697809 -0.122992
C75   C     C_R   0.739237 0.455527 0.704204 -0.118789
C76   C     C_R   0.268208 0.456230 0.251414 -0.135083
C77   C     C_R   0.239238 0.955527 0.704203 -0.118788
C78   C     C_R   0.768208 0.956230 0.251415 -0.135090
C79   C     C_R   0.017836 0.453951 0.283000 -0.101762
C80   C     C_R   0.332415 0.846594 0.004006 -0.013250
C81   C     C_R   0.947175 0.458667 0.692947 -0.117984
C82   C     C_R   0.517835 0.953951 0.283000 -0.101766
C83   C     C_R   0.447175 0.958667 0.692947 -0.117983
C84   C     C_R   0.736541 0.546336 0.703244 -0.107600
C85   C     C_R   0.268951 0.547186 0.252328 -0.137943
C86   C     C_R   0.236542 0.046336 0.703242 -0.107599
C87   C     C_R   0.768951 0.047186 0.252329 -0.137942
C88   C     C_R   0.824422 0.365339 0.911487 0.610565
C89   C     C_R   0.157089 0.354915 0.088988 0.583117
C90   C     C_R   0.324422 0.865339 0.911487 0.610565
C91   C     C_R   0.641821 0.830501 0.997021 -0.021461
C92   C     C_R   0.657093 0.854917 0.088987 0.583109
C93   C     C_R   0.935512 0.648827 0.090825 -0.246205
C94   C     C_R   0.058822 0.650891 0.906575 -0.260400
C95   C     C_R   0.435512 0.148826 0.090825 -0.246207
C96   C     C_R   0.558822 0.150891 0.906575 -0.260400
C97   C     C_R   0.872239 0.680315 0.999727 -0.001823
C98   C     C_R   0.116261 0.684178 0.995228 0.019158
C99   C     C_R   0.372237 0.180315 0.999727 -0.001830
C100  C     C_R   0.616261 0.184178 0.995228 0.019158
C101  C     C_3   0.828997 0.681667 0.753987 -0.313475
C102  C     C_R   0.002936 0.497710 0.326197 0.042875
C103  C     C_3   0.164191 0.674732 0.246754 -0.316933
C104  C     C_3   0.328997 0.181667 0.753987 -0.313475
C105  C     C_3   0.664190 0.174733 0.246754 -0.316935
C106  C     C_1   0.543619 0.394228 0.540399 0.050055
C107  C     C_1   0.491995 0.428975 0.300454 0.015154
C108  C     C_1   0.043623 0.894226 0.540392 0.050054
C109  C     C_1   0.991995 0.928979 0.300448 0.015156
C110  C     C_1   0.033936 0.761579 0.796161 0.057806
C111  C     C_1   0.951830 0.758513 0.192509 0.051048
C112  C     C_1   0.533935 0.261579 0.796161 0.057807
H1    H     H_    0.472084 0.593431 0.375371 0.128817
H2    H     H_    0.323820 0.337627 0.126486 0.155288
H3    H     H_    0.148499 0.849458 0.865002 0.161508
H4    H     H_    0.823825 0.837626 0.126492 0.155285
H5    H     H_    0.796345 0.278863 0.066510 0.147554
H6    H     H_    0.176424 0.259844 0.942762 0.148485
H7    H     H_    0.296346 0.778863 0.066509 0.147552
H8    H     H_    0.676428 0.759846 0.942761 0.148477
H9    H     H_    0.947539 0.353840 0.179871 0.135861
H10   H     H_    0.037086 0.348349 0.819240 0.145210
H11   H     H_    0.447540 0.853839 0.179871 0.135861
H12   H     H_    0.524217 0.564207 0.589977 0.129480
H13   H     H_    0.537089 0.848350 0.819240 0.145212
H14   H     H_    0.008514 0.586757 0.300102 0.089505
H15   H     H_    0.930622 0.591173 0.672701 0.116164
H16   H     H_    0.508513 0.086757 0.300101 0.089504
H17   H     H_    0.430622 0.091174 0.672701 0.116165
H18   H     H_    0.726207 0.414948 0.672282 0.155306
H19   H     H_    0.292760 0.414895 0.272357 0.170619
H20   H     H_    0.226208 0.914948 0.672282 0.155306
H21   H     H_    0.792761 0.914895 0.272360 0.170621
H22   H     H_    0.026154 0.412118 0.310621 0.091156
H23   H     H_    0.972082 0.093432 0.375377 0.128817
H24   H     H_    0.929724 0.417309 0.663913 0.156565
H25   H     H_    0.526153 0.912118 0.310621 0.091155
H26   H     H_    0.429724 0.917309 0.663913 0.156565
H27   H     H_    0.718480 0.587723 0.672837 0.160859
H28   H     H_    0.292930 0.588699 0.272324 0.170842
H29   H     H_    0.218481 0.087722 0.672836 0.160860
H30   H     H_    0.792930 0.088699 0.272324 0.170841
H31   H     H_    0.975662 0.659519 0.176443 0.137031
H32   H     H_    0.015473 0.661857 0.820535 0.138744
H33   H     H_    0.475660 0.159519 0.176443 0.137031
H34   H     H_    0.024218 0.064203 0.589981 0.129479
H35   H     H_    0.515473 0.161857 0.820535 0.138744
H36   H     H_    0.399278 0.474364 0.499977 0.130930
H37   H     H_    0.620934 0.526903 0.412686 0.138914
H38   H     H_    0.899281 0.974360 0.499977 0.130930
H39   H     H_    0.120933 0.026907 0.412684 0.138915
H40   H     H_    0.858824 0.645032 0.742748 0.139887
H41   H     H_    0.884106 0.712947 0.804404 0.157340
H42   H     H_    0.778169 0.699866 0.670981 0.189379
H43   H     H_    0.139193 0.634153 0.253993 0.148101
H44   H     H_    0.106302 0.704821 0.202662 0.162713
H45   H     H_    0.179789 0.759495 0.078866 0.166888
H46   H     H_    0.215123 0.689853 0.331797 0.185852
H47   H     H_    0.358824 0.145032 0.742748 0.139887
H48   H     H_    0.384106 0.212947 0.804405 0.157340
H49   H     H_    0.278169 0.199866 0.670982 0.189380
H50   H     H_    0.639192 0.134153 0.253993 0.148102
H51   H     H_    0.606301 0.204821 0.202661 0.162714
H52   H     H_    0.715122 0.189853 0.331797 0.185852
H53   H     H_    0.745499 0.408256 0.242604 0.159036
H54   H     H_    0.853157 0.394087 0.254742 0.119885
H55   H     H_    0.751934 0.420514 0.128584 0.167138
H56   H     H_    0.785256 0.749769 0.913086 0.171088
H57   H     H_    0.703437 0.429998 0.362808 0.162533
H58   H     H_    0.759368 0.442977 0.508242 0.138232
H59   H     H_    0.746277 0.374661 0.460749 0.189135
H60   H     H_    0.245505 0.908255 0.242609 0.159037
H61   H     H_    0.353156 0.894091 0.254728 0.119886
H62   H     H_    0.251924 0.920517 0.128580 0.167139
H63   H     H_    0.203436 0.929998 0.362807 0.162535
H64   H     H_    0.259367 0.942978 0.508240 0.138233
H65   H     H_    0.246277 0.874662 0.460749 0.189136
H66   H     H_    0.131299 0.551178 0.521513 0.121177
H67   H     H_    0.679789 0.259495 0.078866 0.166888
H68   H     H_    0.168728 0.481783 0.521336 0.154784
H69   H     H_    0.185462 0.508684 0.642539 0.175408
H70   H     H_    0.017800 0.578251 0.581157 0.157556
H71   H     H_    0.944344 0.637555 0.530975 0.161026
H72   H     H_    0.963875 0.602662 0.441819 0.153507
H73   H     H_    0.631298 0.051177 0.521513 0.121178
H74   H     H_    0.668727 0.981781 0.521334 0.154784
H75   H     H_    0.685461 0.008682 0.642537 0.175408
H76   H     H_    0.517801 0.078250 0.581158 0.157557
H77   H     H_    0.444346 0.137555 0.530976 0.161025
H78   H     H_    0.285251 0.249768 0.913084 0.171090
H79   H     H_    0.463876 0.102662 0.441820 0.153506
H80   H     H_    0.869203 0.289948 0.836444 0.146318
H81   H     H_    0.857919 0.353126 0.762876 0.133511
H82   H     H_    0.771375 0.300307 0.695286 0.178858
H83   H     H_    0.197491 0.251109 0.163583 0.161233
H84   H     H_    0.094677 0.280386 0.147630 0.125785
H85   H     H_    0.201685 0.269570 0.281828 0.175505
H86   H     H_    0.369204 0.789948 0.836444 0.146317
H87   H     H_    0.357920 0.853126 0.762876 0.133511
H88   H     H_    0.271376 0.800307 0.695286 0.178859
H89   H     H_    0.648499 0.349458 0.865001 0.161508
H90   H     H_    0.697385 0.751107 0.163518 0.161202
H91   H     H_    0.594635 0.780429 0.147667 0.125785
H92   H     H_    0.701676 0.769576 0.281828 0.175512
N1    N     N_R   0.892320 0.603520 0.941090 -0.099696
N2    N     N_R   0.973240 0.529450 0.794410 -0.040898
N3    N     N_R   0.526760 0.029450 0.205590 -0.040338
N4    N     N_R   0.473240 0.029450 0.794410 -0.040898
N5    N     N_R   0.819350 0.473090 0.793940 -0.048342
N6    N     N_R   0.180650 0.473090 0.206060 -0.039445
N7    N     N_R   0.319350 0.973090 0.793940 -0.048341
N8    N     N_R   0.680650 0.973090 0.206060 -0.039446
N9    N     N_R   0.027860 0.473090 0.206590 -0.032927
N10   N     N_R   0.972140 0.473090 0.793410 -0.044102
N11   N     N_R   0.527860 0.973090 0.206590 -0.032926
N12   N     N_R   0.107680 0.603520 0.058910 -0.101469
N13   N     N_R   0.472140 0.973090 0.793410 -0.044102
N14   N     N_R   0.818250 0.529450 0.792940 -0.043840
N15   N     N_R   0.181750 0.529450 0.207060 -0.048720
N16   N     N_R   0.318250 0.029450 0.792940 -0.043840
N17   N     N_R   0.681750 0.029450 0.207060 -0.048718
N18   N     N_R   0.896320 0.399020 0.944720 -0.110001
N19   N     N_R   0.103680 0.399020 0.055280 -0.092252
N20   N     N_R   0.396320 0.899020 0.944720 -0.109999
N21   N     N_R   0.603680 0.899020 0.055280 -0.092257
N22   N     N_R   0.949790 0.603520 0.054810 -0.074672
N23   N     N_R   0.392320 0.103520 0.941090 -0.099695
N24   N     N_R   0.050210 0.603520 0.945190 -0.075057
N25   N     N_R   0.449790 0.103520 0.054810 -0.074671
N26   N     N_R   0.550210 0.103520 0.945190 -0.075057
N27   N     N_1   0.555930 0.350025 0.574483 -0.050836
N28   N     N_1   0.485409 0.399829 0.236130 -0.092617
N29   N     N_1   0.055935 0.850022 0.574472 -0.050836
N30   N     N_1   0.985409 0.899835 0.236121 -0.092619
N31   N     N_1   0.973436 0.752825 0.705040 -0.107106
N32   N     N_1   0.020093 0.754062 0.280920 -0.111711
N33   N     N_1   0.473435 0.252825 0.705040 -0.107106
N34   N     N_R   0.607680 0.103520 0.058910 -0.101469
N35   N     N_1   0.520089 0.254063 0.280917 -0.111710
N36   N     N_R   0.953790 0.399020 0.058440 -0.065102
N37   N     N_R   0.046210 0.399020 0.941560 -0.073780
N38   N     N_R   0.453790 0.899020 0.058440 -0.065102
N39   N     N_R   0.546210 0.899020 0.941560 -0.073778
N40   N     N_R   0.026760 0.529450 0.205590 -0.040339
Ni1   Ni    Ni4+2 0.934100 0.565890 0.869590 0.202537
Ni2   Ni    Ni4+2 0.065900 0.565890 0.130410 0.201935
Ni3   Ni    Ni4+2 0.434100 0.065890 0.869590 0.202538
Ni4   Ni    Ni4+2 0.565900 0.065890 0.130410 0.201936
Ni5   Ni    Ni4+2 0.068420 0.436630 0.132700 0.238628
Ni6   Ni    Ni4+2 0.931580 0.436630 0.867300 0.195057
Ni7   Ni    Ni4+2 0.568420 0.936630 0.132700 0.238612
Ni8   Ni    Ni4+2 0.431580 0.936630 0.867300 0.195058
O1    O     O_3   0.780758 0.667171 0.800036 -0.643598
O2    O     O_3   0.869546 0.566195 0.464901 -0.636901
O3    O     O_3   0.549299 0.987783 0.519675 -0.644181
O4    O     O_3   0.369547 0.066195 0.464902 -0.636901
O5    O     O_3   0.765063 0.343722 0.807212 -0.634905
O6    O     O_3   0.206179 0.334223 0.195728 -0.652891
O7    O     O_3   0.265063 0.843721 0.807212 -0.634906
O8    O     O_3   0.706185 0.834223 0.195725 -0.652883
O9    O     O_3   0.210025 0.671439 0.195203 -0.650030
O10   O     O_3   0.280757 0.167170 0.800035 -0.643598
O11   O     O_3   0.710024 0.171439 0.195203 -0.650030
O12   O     O_3   0.821423 0.476735 0.252240 -0.631191
O13   O     O_3   0.849501 0.419160 0.466636 -0.646253
O14   O     O_3   0.321420 0.976737 0.252240 -0.631190
O15   O     O_3   0.349500 0.919160 0.466636 -0.646253
O16   O     O_3   0.049300 0.487784 0.519677 -0.644182

loop_
_geom_bond_atom_site_label_1
_geom_bond_atom_site_label_2
_ccdc_geom_bond_type
C8    H69   S    
N37   Ni6   S    
C56   N39   A    
C14   H83   S    
C21   C87   A    
C5    O13   S    
C18   C75   A    
C15   H88   S    
C55   N38   A    
C78   N8    A    
C12   H81   S    
C66   C102  S    
C9    O2    S    
C95   H33   S    
C80   C90   A    
C8    O16   S    
C19   C31   S    
N3    Ni4   S    
C57   C58   S    
C15   O7    S    
N34   Ni4   S    
C74   N4    A    
C50   H2    S    
C4    H53   S    
C64   O14   S    
N7    N16   A    
C3    C43   S    
N12   N24   A    
C22   C32   S    
C20   C77   A    
N5    N14   A    
C64   C68   D    
C19   C76   A    
C35   C37   S    
C61   C91   S    
C24   C26   S    
C71   N40   A    
C82   H25   S    
N1    Ni1   S    
C52   C61   D    
N20   Ni8   S    
C38   C39   S    
C16   O8    S    
C76   H19   S    
C95   C99   A    
C67   O2    S    
C21   C33   S    
C94   C98   A    
N12   Ni2   S    
C65   C70   D    
C37   H12   S    
C29   C33   S    
N4    N13   A    
C10   H73   S    
C49   C57   D    
C106  N27   T    
C30   C38   S    
C60   H7    S    
C74   H17   S    
C42   C46   D    
C50   C59   D    
C79   H22   S    
C42   C112  S    
C24   C29   S    
C14   H84   S    
C9    H70   S    
C29   H38   S    
N25   Ni4   S    
C44   C98   S    
C93   N22   A    
C56   C91   A    
C60   C80   S    
C28   C35   S    
N40   Ni2   S    
C27   H36   S    
C11   H79   S    
C7    H63   S    
C21   C78   A    
C6    O14   S    
C18   C84   A    
C5    H58   S    
C105  H51   S    
C71   H14   S    
N9    Ni5   S    
C24   C108  S    
N13   Ni8   S    
C96   N26   A    
N7    Ni8   S    
C16   H91   S    
C1    N1    A    
C43   C48   D    
N6    Ni5   S    
C48   H78   S    
C93   H31   S    
C75   H18   S    
C105  O11   S    
N5    Ni6   S    
C20   C34   S    
C109  N30   T    
N19   Ni5   S    
C54   H10   S    
C28   H37   S    
N21   Ni7   S    
C107  N28   T    
C61   H8    S    
N11   Ni7   S    
C44   H45   S    
C7    H65   S    
C36   O10   S    
C104  O10   S    
C104  H48   S    
C73   H16   S    
C16   H90   S    
C90   O7    S    
C53   N36   A    
C92   O8    S    
C1    O1    S    
N22   Ni2   S    
C55   H11   S    
N8    N17   A    
C52   H4    S    
C5    H59   S    
C12   H80   S    
C14   H85   S    
C49   H89   S    
C105  H52   S    
C32   C37   S    
C30   C34   S    
C72   H15   S    
C27   C31   S    
C34   C39   S    
N14   Ni1   S    
C28   C32   S    
N2    Ni1   S    
C84   H27   S    
C2    C67   S    
C14   O6    S    
C70   O4    S    
C91   C92   A    
C15   H86   S    
C62   C66   D    
C6    H60   S    
N24   Ni1   S    
C6    H62   S    
C47   O11   S    
C87   N17   A    
C22   C106  S    
C13   C82   A    
C24   C34   S    
N6    N15   A    
C11   H76   S    
C20   C86   A    
C11   H77   S    
C77   H20   S    
C23   C31   S    
C101  O1    S    
C54   N37   A    
C63   C67   D    
C90   N20   A    
C62   C63   S    
C9    H71   S    
C47   N34   A    
C25   O9    S    
C8    H68   S    
C26   C33   S    
C36   N23   A    
C81   N10   A    
C26   C109  S    
C101  H41   S    
C4    O12   S    
C23   C107  S    
C7    H64   S    
C29   C39   S    
N3    N11   A    
C11   O4    S    
C103  O9    S    
N15   Ni2   S    
N1    N22   A    
C79   C102  A    
C86   N16   A    
C38   H23   S    
N8    Ni7   S    
C7    O15   S    
C63   O13   S    
C85   H28   S    
C84   N14   A    
C88   O5    S    
C59   C69   S    
C6    H61   S    
N18   Ni6   S    
C103  H43   S    
N23   N25   A    
N16   Ni3   S    
C13   C73   A    
C92   N21   A    
C10   H75   S    
C59   H6    S    
C22   C27   S    
C17   C74   A    
C31   C35   S    
N26   N34   A    
N21   N39   A    
C12   O5    S    
N38   Ni7   S    
C104  H47   S    
C1    C97   A    
C65   O15   S    
C43   C50   S    
C93   C97   A    
C104  H49   S    
C66   O16   S    
C110  N31   T    
C81   H24   S    
C57   H5    S    
C2    C72   A    
C76   N6    A    
C10   O3    S    
C48   C99   S    
C46   C100  S    
C108  N29   T    
C75   N5    A    
C41   C45   D    
N39   Ni8   S    
C41   C52   S    
C22   C23   S    
C12   H82   S    
C46   H67   S    
C71   C102  A    
C25   N12   A    
C89   O6    S    
C95   N25   A    
C19   C85   A    
C58   C88   A    
C89   N19   A    
C77   N7    A    
C72   N2    A    
C53   C58   A    
C96   H35   S    
C103  H46   S    
C26   C30   S    
N17   Ni4   S    
C94   N24   A    
C69   C89   A    
C40   C51   S    
C101  H40   S    
C33   C38   S    
C4    H55   S    
C94   H32   S    
C64   C65   S    
C62   O12   S    
C85   N15   A    
N4    Ni3   S    
N10   Ni6   S    
C9    H72   S    
C53   H9    S    
C55   C80   A    
C68   O3    S    
N2    N10   A    
C30   H39   S    
C54   C69   A    
C101  H42   S    
N19   N37   A    
C83   N13   A    
N9    N40   A    
C96   C100  A    
C39   H34   S    
N18   N36   A    
C10   H74   S    
C4    H54   S    
C15   H87   S    
C35   H1    S    
C36   C99   A    
C88   N18   A    
C87   H30   S    
C73   N3    A    
C78   H21   S    
C51   H3    S    
C40   C110  S    
C111  N32   T    
C45   H56   S    
C47   C100  A    
C42   C49   S    
N23   Ni3   S    
C82   N11   A    
C8    H66   S    
C103  H44   S    
C79   N9    A    
C18   C32   S    
C56   H13   S    
C112  N33   T    
C41   C111  S    
C25   C98   A    
N20   N38   A    
C40   C44   D    
C5    H57   S    
C105  H50   S    
C2    C81   A    
C45   C97   S    
C51   C60   D    
C17   C83   A    
C16   H92   S    
C17   C70   S    
C83   H26   S    
C23   C28   S    
N26   Ni3   S    
C27   C37   S    
C86   H29   S    
C3    N35   T    
C13   C68   S    
N36   Ni5   S    
