data_mof_unit_53684.cif
_audit_creation_date              2012-10-26T18:40:33-0400
_audit_creation_method            fapswitch 2.2
_symmetry_space_group_name_H-M    P1
_symmetry_Int_Tables_number       1
_space_group_crystal_system       triclinic
_cell_length_a                    15.250104
_cell_length_b                    13.998621
_cell_length_c                    11.680732
_cell_angle_alpha                 89.996035
_cell_angle_beta                  93.297516
_cell_angle_gamma                 90.00071
_cell_volume                      2489.47900056

loop_
_atom_site_label
_atom_site_type_symbol
_atom_type_description
_atom_site_fract_x
_atom_site_fract_y
_atom_site_fract_z
_atom_type_partial_charge
C1    C     C_R   0.329962 0.499882 0.505202 0.576767
C2    C     C_R   0.500204 0.499984 0.715860 0.573584
C3    C     C_R   0.510288 0.107569 0.602832 0.192292
C4    C     C_R   0.440034 0.893092 0.428664 0.212673
C5    C     C_R   0.489719 0.107583 0.397178 0.192229
C6    C     C_R   0.560041 0.893072 0.571306 0.212242
C7    C     C_1   0.499848 0.499950 0.162443 0.033611
C8    C     C_1   0.500153 0.499937 0.837557 0.033624
C9    C     C_1   0.499935 0.499889 0.059903 -0.020665
C10   C     C_1   0.500066 0.499883 0.940097 -0.020672
C11   C     C_R   0.524406 0.207352 0.597811 0.162695
C12   C     C_R   0.670036 0.499883 0.494786 0.576732
C13   C     C_R   0.449867 0.792830 0.418696 0.169481
C14   C     C_R   0.475597 0.207363 0.402190 0.162386
C15   C     C_R   0.550156 0.792812 0.581290 0.169565
C16   C     C_R   0.088595 0.559465 0.449625 0.224520
C17   C     C_R   0.900627 0.406903 0.449651 0.225916
C18   C     C_R   0.911415 0.559497 0.550196 0.224513
C19   C     C_R   0.099356 0.406916 0.550294 0.225908
C20   C     C_R   0.178965 0.573663 0.469562 0.020008
C21   C     C_R   0.808487 0.413942 0.444483 0.015279
C22   C     C_R   0.821038 0.573680 0.530316 0.019959
C23   C     C_R   0.232750 0.497542 0.513507 -0.124159
C24   C     C_R   0.191497 0.413958 0.555502 0.015203
C25   C     C_3   0.427658 0.040912 0.737647 0.027516
C26   C     C_3   0.428869 0.012562 0.863276 -0.318474
C27   C     C_3   0.306143 0.965587 0.430412 -0.011370
C28   C     C_3   0.233398 0.012217 0.355427 -0.337077
C29   C     C_3   0.572414 0.041629 0.262057 0.026977
C30   C     C_3   0.570980 0.012242 0.136769 -0.318651
C31   C     C_3   0.693896 0.965699 0.569812 -0.011142
C32   C     C_3   0.766632 0.012150 0.644983 -0.337150
C33   C     C_2   0.572422 0.251448 0.697354 0.660278
C34   C     C_R   0.767245 0.497541 0.486447 -0.124171
C35   C     C_2   0.410804 0.749799 0.311889 0.653332
C36   C     C_2   0.427551 0.251456 0.302662 0.660205
C37   C     C_2   0.589133 0.749759 0.688128 0.653493
C38   C     C_3   0.013079 0.606075 0.284547 0.015182
C39   C     C_3   0.973592 0.692641 0.222142 -0.334006
C40   C     C_3   0.959194 0.341533 0.291848 0.007539
C41   C     C_3   0.982814 0.246554 0.238524 -0.333377
C42   C     C_3   0.986957 0.606174 0.715219 0.015179
C43   C     C_3   0.026496 0.692752 0.777529 -0.334009
C44   C     C_3   0.040785 0.341598 0.708134 0.007551
C45   C     C_R   0.048187 0.479509 0.497204 0.006945
C46   C     C_3   0.017154 0.246636 0.761508 -0.333370
C47   C     C_2   0.211883 0.671657 0.450760 0.681195
C48   C     C_2   0.757909 0.334969 0.387115 0.634291
C49   C     C_2   0.788114 0.671669 0.549126 0.681210
C50   C     C_2   0.242063 0.335000 0.612929 0.634299
C51   C     C_R   0.951809 0.479520 0.502657 0.006945
C52   C     C_R   0.500016 0.054600 0.499999 -0.024639
C53   C     C_R   0.500053 0.945912 0.499967 -0.013507
C54   C     C_R   0.499797 0.499989 0.284140 0.573576
Cu1   Cu    Cu3+1 0.500000 0.596430 0.500000 1.097091
Cu2   Cu    Cu3+1 0.500000 0.403570 0.500000 1.113750
H1    H     H_    0.401100 0.979842 0.685636 0.118294
H2    H     H_    0.258917 0.077232 0.314088 0.196180
H3    H     H_    0.599807 0.981291 0.314659 0.117235
H4    H     H_    0.616484 0.104913 0.273398 0.123110
H5    H     H_    0.549179 0.073419 0.081875 0.181868
H6    H     H_    0.637918 0.990706 0.114249 0.102053
H7    H     H_    0.525446 0.951169 0.120725 0.202666
H8    H     H_    0.671396 0.018827 0.503825 0.115026
H9    H     H_    0.721402 0.902672 0.526227 0.148270
H10   H     H_    0.791544 0.961452 0.712360 0.153516
H11   H     H_    0.821607 0.033014 0.591838 0.125953
H12   H     H_    0.382947 0.103565 0.725218 0.121391
H13   H     H_    0.741116 0.077071 0.686514 0.196116
H14   H     H_    0.580647 0.273696 0.868292 0.332996
H15   H     H_    0.398453 0.756541 0.139074 0.332226
H16   H     H_    0.419290 0.273740 0.131730 0.333020
H17   H     H_    0.601200 0.756349 0.860967 0.332191
H18   H     H_    0.962087 0.549441 0.282908 0.097346
H19   H     H_    0.070416 0.581142 0.237430 0.142198
H20   H     H_    0.022787 0.751091 0.221152 0.184056
H21   H     H_    0.953163 0.673133 0.132378 0.087461
H22   H     H_    0.915188 0.718109 0.265925 0.178311
H23   H     H_    0.449595 0.074514 0.917542 0.181945
H24   H     H_    0.016547 0.390019 0.286985 0.113791
H25   H     H_    0.901919 0.371939 0.240446 0.117324
H26   H     H_    0.926606 0.196292 0.241226 0.171360
H27   H     H_    0.998590 0.257581 0.147825 0.086328
H28   H     H_    0.040898 0.215046 0.286356 0.182621
H29   H     H_    0.037922 0.549513 0.716894 0.097320
H30   H     H_    0.929620 0.581299 0.762380 0.142283
H31   H     H_    0.977327 0.751229 0.778489 0.184023
H32   H     H_    0.046940 0.673280 0.867303 0.087472
H33   H     H_    0.084898 0.718166 0.733695 0.178342
H34   H     H_    0.362086 0.990202 0.885520 0.102109
H35   H     H_    0.983441 0.390096 0.712979 0.113784
H36   H     H_    0.098066 0.372006 0.759516 0.117323
H37   H     H_    0.073354 0.196364 0.758828 0.171377
H38   H     H_    0.001384 0.257688 0.852203 0.086321
H39   H     H_    0.959063 0.215127 0.713696 0.182620
H40   H     H_    0.211467 0.786952 0.346682 0.332132
H41   H     H_    0.736916 0.192965 0.374798 0.308552
H42   H     H_    0.788542 0.786954 0.653197 0.332155
H43   H     H_    0.263003 0.192998 0.625386 0.308757
H44   H     H_    0.475150 0.952312 0.880468 0.202268
H45   H     H_    0.328671 0.018548 0.496577 0.114785
H46   H     H_    0.278640 0.902458 0.473802 0.148369
H47   H     H_    0.208455 0.961676 0.287903 0.153569
H48   H     H_    0.178446 0.032963 0.408668 0.125975
N1    N     N_R   0.500000 0.258690 0.500000 -0.327271
N2    N     N_R   0.500000 0.741310 0.500000 -0.327986
O1    O     O_R   0.371460 0.581430 0.500010 -0.445941
O2    O     O_3   0.374922 0.938462 0.361161 -0.490534
O3    O     O_3   0.485957 0.062675 0.291452 -0.477018
O4    O     O_3   0.625090 0.938417 0.638940 -0.490739
O5    O     O_2   0.640566 0.294952 0.684062 -0.509588
O6    O     O_R   0.541640 0.240783 0.807119 -0.670399
O7    O     O_2   0.361001 0.681982 0.314062 -0.482561
O8    O     O_R   0.429093 0.790704 0.206672 -0.688115
O9    O     O_2   0.359395 0.294922 0.315973 -0.509547
O10   O     O_R   0.458318 0.240833 0.192890 -0.670658
O11   O     O_2   0.639049 0.682035 0.685993 -0.482622
O12   O     O_R   0.628540 0.418570 0.499990 -0.453627
O13   O     O_R   0.570610 0.790523 0.793337 -0.688017
O14   O     O_3   0.038011 0.631950 0.398606 -0.484731
O15   O     O_3   0.940350 0.326205 0.407350 -0.472878
O16   O     O_3   0.962011 0.632000 0.601142 -0.484754
O17   O     O_3   0.059616 0.326239 0.592636 -0.472867
O18   O     O_2   0.253747 0.713388 0.527933 -0.531470
O19   O     O_R   0.188593 0.719125 0.348083 -0.655573
O20   O     O_2   0.702839 0.352390 0.309641 -0.527489
O21   O     O_R   0.775067 0.240490 0.420168 -0.653057
O22   O     O_2   0.746229 0.713403 0.471967 -0.531315
O23   O     O_R   0.628540 0.581430 0.499990 -0.446003
O24   O     O_R   0.811425 0.719131 0.651793 -0.655602
O25   O     O_2   0.297142 0.352441 0.690384 -0.527333
O26   O     O_R   0.224877 0.240512 0.579960 -0.653064
O27   O     O_R   0.371460 0.418570 0.500010 -0.453610
O28   O     O_R   0.500010 0.581440 0.337200 -0.488917
O29   O     O_R   0.499990 0.418560 0.662800 -0.472175
O30   O     O_R   0.499990 0.581440 0.662800 -0.488959
O31   O     O_R   0.500010 0.418560 0.337200 -0.472203
O32   O     O_3   0.514055 0.062683 0.708588 -0.477067

loop_
_geom_bond_atom_site_label_1
_geom_bond_atom_site_label_2
_ccdc_geom_bond_type
Cu1   Cu2   S    
H17   O13   S    
C4    C53   A    
H41   O21   S    
C17   C51   A    
Cu2   O27   S    
C40   O15   S    
C4    O2    S    
C19   O17   S    
C43   H33   S    
H43   O26   S    
C19   C24   A    
C43   H32   S    
C39   H21   S    
C15   N2    A    
C29   O3    S    
C13   C35   S    
C16   O14   S    
C14   C36   S    
C38   C39   S    
C54   O31   A    
C45   C51   S    
Cu1   O30   S    
C41   H27   S    
C35   O8    S    
C7    C9    T    
C4    C13   A    
C15   C37   S    
C6    C15   A    
C29   H4    S    
C14   N1    A    
C46   H39   S    
C29   H3    S    
Cu1   O23   S    
C37   O13   S    
C11   N1    A    
C23   C24   A    
C40   H24   S    
C5    C52   A    
C42   H30   S    
C9    C10   S    
C44   H36   S    
C21   C48   S    
C38   O14   S    
C30   H7    S    
C6    O4    S    
C25   H12   S    
C25   H1    S    
C1    O27   A    
C31   H8    S    
C44   C46   S    
C18   C51   A    
C47   O19   S    
C38   H19   S    
C24   C50   S    
C22   C34   A    
C12   O23   A    
Cu1   N2    S    
C39   H22   S    
C11   C33   S    
C3    O32   S    
C21   C34   A    
C25   C26   S    
C41   H28   S    
C27   H45   S    
C2    O30   A    
H15   O8    S    
Cu1   O1    S    
C29   C30   S    
C28   H48   S    
C31   C32   S    
C46   H38   S    
C20   C23   A    
C16   C20   A    
H42   O24   S    
C42   H29   S    
C39   H20   S    
C5    C14   A    
C44   H35   S    
C50   O26   S    
C18   O16   S    
C32   H11   S    
C33   O5    D    
C17   O15   S    
C40   C41   S    
C1    O1    A    
C1    C23   S    
C22   C49   S    
C12   O12   A    
C42   C43   S    
C6    C53   A    
C12   C34   S    
C36   O10   S    
Cu2   O29   S    
C52   C53   S    
C42   O16   S    
C32   H10   S    
C38   H18   S    
C33   O6    S    
C31   H9    S    
C49   O22   D    
C27   H46   S    
C18   C22   A    
Cu2   O12   S    
C40   H25   S    
C2    C8    S    
C26   H23   S    
C13   N2    A    
C16   C45   A    
C3    C52   A    
C19   C45   A    
C32   H13   S    
C28   H2    S    
C26   H34   S    
Cu1   O28   S    
C49   O24   S    
H16   O10   S    
C44   O17   S    
C2    O29   A    
C43   H31   S    
C30   H6    S    
C25   O32   S    
C48   O21   S    
Cu2   O31   S    
C28   H47   S    
C47   O18   D    
C46   H37   S    
C5    O3    S    
C27   O2    S    
C41   H26   S    
C31   O4    S    
H40   O19   S    
C35   O7    D    
H14   O6    S    
C17   C21   A    
Cu2   N1    S    
C20   C47   S    
C3    C11   A    
C50   O25   D    
C48   O20   D    
C37   O11   D    
C8    C10   T    
C30   H5    S    
C27   C28   S    
C7    C54   S    
C36   O9    D    
C26   H44   S    
C54   O28   A    
