data_mof_unit_64882.cif
_audit_creation_date              2012-12-10T18:12:15-0500
_audit_creation_method            fapswitch 2.2
_symmetry_space_group_name_H-M    P1
_symmetry_Int_Tables_number       1
_space_group_crystal_system       triclinic
_cell_length_a                    18.327862
_cell_length_b                    18.328436
_cell_length_c                    43.19157
_cell_angle_alpha                 90.07137
_cell_angle_beta                  89.984335
_cell_angle_gamma                 89.991886
_cell_volume                      14508.9454144

loop_
_atom_site_label
_atom_site_type_symbol
_atom_type_description
_atom_site_fract_x
_atom_site_fract_y
_atom_site_fract_z
_atom_type_partial_charge
C1    C     C_R   0.033189 0.442062 0.884726 0.477181
C2    C     C_R   0.466922 0.058004 0.615270 0.477537
C3    C     C_R   0.255940 0.690623 0.270152 -0.181195
C4    C     C_R   0.691611 0.745022 0.729277 -0.182866
C5    C     C_R   0.308391 0.254980 0.270722 -0.182871
C6    C     C_R   0.255084 0.691377 0.729355 -0.197116
C7    C     C_R   0.744915 0.308624 0.270644 -0.197120
C8    C     C_R   0.309423 0.744101 0.270141 -0.185520
C9    C     C_R   0.690577 0.255898 0.729858 -0.185524
C10   C     C_R   0.745441 0.692055 0.270927 -0.188029
C11   C     C_R   0.254561 0.307948 0.729074 -0.188032
C12   C     C_R   0.691403 0.255176 0.270632 -0.199042
C13   C     C_R   0.060248 0.528511 0.384818 0.471129
C14   C     C_R   0.308595 0.744825 0.729367 -0.199039
C15   C     C_R   0.254893 0.308447 0.270718 -0.196718
C16   C     C_R   0.745109 0.691555 0.729280 -0.196721
C17   C     C_R   0.807909 0.754341 0.228993 -0.195480
C18   C     C_R   0.192087 0.245655 0.771005 -0.195473
C19   C     C_R   0.243971 0.809447 0.229915 -0.184977
C20   C     C_R   0.756028 0.190553 0.770086 -0.184968
C21   C     C_R   0.191836 0.245234 0.229140 -0.184295
C22   C     C_R   0.808162 0.754764 0.770861 -0.184299
C23   C     C_R   0.755324 0.191155 0.229500 -0.197920
C24   C     C_R   0.939762 0.471468 0.615182 0.471124
C25   C     C_R   0.244678 0.808843 0.770500 -0.197938
C26   C     C_R   0.809501 0.244035 0.770080 -0.186259
C27   C     C_R   0.190498 0.755965 0.229921 -0.186261
C28   C     C_R   0.245529 0.192122 0.770991 -0.184140
C29   C     C_R   0.754467 0.807874 0.229006 -0.184150
C30   C     C_R   0.191184 0.755382 0.770497 -0.197813
C31   C     C_R   0.808817 0.244616 0.229503 -0.197811
C32   C     C_R   0.754645 0.808217 0.770867 -0.196785
C33   C     C_R   0.245352 0.191781 0.229134 -0.196729
C34   C     C_R   0.196314 0.303818 0.750034 0.007639
C35   C     C_R   0.471450 0.060221 0.384838 0.472224
C36   C     C_R   0.803685 0.696182 0.249966 0.007647
C37   C     C_R   0.696279 0.196219 0.749983 0.006004
C38   C     C_R   0.303721 0.803781 0.250017 0.006010
C39   C     C_R   0.803684 0.696188 0.750054 0.011103
C40   C     C_R   0.196316 0.303811 0.249946 0.011094
C41   C     C_R   0.303683 0.803808 0.749951 0.015801
C42   C     C_R   0.696317 0.196192 0.250049 0.015795
C43   C     C_R   0.196219 0.696268 0.250031 0.006053
C44   C     C_R   0.803781 0.303732 0.749969 0.006052
C45   C     C_R   0.696253 0.803769 0.249986 0.007490
C46   C     C_R   0.528554 0.939778 0.615162 0.472227
C47   C     C_R   0.303746 0.196231 0.750014 0.007470
C48   C     C_R   0.803852 0.303650 0.250057 0.012923
C49   C     C_R   0.196148 0.696349 0.749943 0.012922
C50   C     C_R   0.303858 0.196351 0.249946 0.008169
C51   C     C_R   0.696141 0.803649 0.750054 0.008196
C52   C     C_3   0.138764 0.394638 0.866279 -0.292832
C53   C     C_3   0.861223 0.605320 0.133728 -0.292865
C54   C     C_3   0.606492 0.861995 0.866327 -0.292619
C55   C     C_3   0.393898 0.138235 0.133699 -0.292757
C56   C     C_3   0.976607 0.680825 0.872503 -0.262753
C57   C     C_R   0.941697 0.467537 0.384781 0.478217
C58   C     C_3   0.023451 0.319175 0.127492 -0.262712
C59   C     C_3   0.319126 0.022010 0.872416 -0.262505
C60   C     C_3   0.680859 0.977362 0.127555 -0.262562
C61   C     C_3   0.638562 0.894445 0.366242 -0.294037
C62   C     C_3   0.361448 0.105564 0.633754 -0.294035
C63   C     C_3   0.180652 0.520749 0.372175 -0.253876
C64   C     C_3   0.819358 0.479204 0.627828 -0.253883
C65   C     C_3   0.477204 0.180872 0.372488 -0.262560
C66   C     C_3   0.522804 0.819124 0.627507 -0.262561
C67   C     C_3   0.892539 0.362421 0.366699 -0.302146
C68   C     C_R   0.058296 0.532475 0.615219 0.478221
C69   C     C_3   0.107400 0.637606 0.633310 -0.302152
C70   C     C_R   0.001507 0.500384 0.933446 -0.032128
C71   C     C_R   0.998510 0.499618 0.066554 -0.032135
C72   C     C_R   0.499702 0.998522 0.933454 -0.032136
C73   C     C_R   0.966807 0.557932 0.115273 0.477181
C74   C     C_R   0.500306 0.001443 0.066553 -0.032185
C75   C     C_R   0.501535 0.000388 0.433448 -0.032311
C76   C     C_R   0.498479 0.999614 0.566552 -0.032307
C77   C     C_R   0.000181 0.499064 0.433459 -0.032275
C78   C     C_R   0.999822 0.500931 0.566541 -0.032279
C79   C     C_R   0.032409 0.442131 0.917066 -0.280040
C80   C     C_R   0.967594 0.557864 0.082933 -0.280029
C81   C     C_R   0.558173 0.968034 0.917085 -0.280163
C82   C     C_R   0.441902 0.032066 0.082918 -0.280107
C83   C     C_R   0.970616 0.558792 0.917241 -0.286484
C84   C     C_R   0.558244 0.967251 0.884744 0.477285
C85   C     C_R   0.029410 0.441215 0.082760 -0.286485
C86   C     C_R   0.441087 0.029017 0.917240 -0.286433
C87   C     C_R   0.558850 0.970813 0.082767 -0.286487
C88   C     C_R   0.532303 0.942065 0.417068 -0.280173
C89   C     C_R   0.467712 0.057938 0.582931 -0.280171
C90   C     C_R   0.058869 0.529375 0.417221 -0.286191
C91   C     C_R   0.941141 0.470605 0.582779 -0.286187
C92   C     C_R   0.470794 0.058874 0.417244 -0.286152
C93   C     C_R   0.529216 0.941126 0.582756 -0.286157
C94   C     C_R   0.941760 0.468462 0.417122 -0.279033
C95   C     C_R   0.441833 0.032861 0.115258 0.477245
C96   C     C_R   0.058235 0.531548 0.582878 -0.279019
C97   C     C_R   0.001017 0.500503 0.868338 -0.246657
C98   C     C_R   0.998988 0.499496 0.131662 -0.246649
C99   C     C_R   0.499572 0.999011 0.868344 -0.246915
C100  C     C_R   0.500428 0.000965 0.131660 -0.246793
C101  C     C_R   0.501044 0.000511 0.368339 -0.246877
C102  C     C_R   0.498960 0.999489 0.631660 -0.246876
C103  C     C_R   0.000396 0.499168 0.368349 -0.247321
C104  C     C_R   0.999606 0.500828 0.631651 -0.247318
C105  C     C_R   0.018365 0.563721 0.984045 -0.196737
C106  C     C_R   0.971268 0.560137 0.884834 0.472153
C107  C     C_R   0.981655 0.436280 0.015956 -0.196732
C108  C     C_R   0.436428 0.981197 0.984002 -0.196771
C109  C     C_R   0.563585 0.018757 0.016009 -0.196782
C110  C     C_R   0.982512 0.436368 0.983722 -0.184736
C111  C     C_R   0.017508 0.563634 0.016278 -0.184738
C112  C     C_R   0.563543 0.017913 0.983776 -0.184754
C113  C     C_R   0.436467 0.982052 0.016235 -0.184729
C114  C     C_R   0.518545 0.063673 0.484047 -0.196849
C115  C     C_R   0.481473 0.936328 0.515952 -0.196849
C116  C     C_R   0.979183 0.437008 0.483982 -0.196629
C117  C     C_R   0.028752 0.439869 0.115167 0.472152
C118  C     C_R   0.020818 0.562987 0.516018 -0.196627
C119  C     C_R   0.482349 0.936415 0.483719 -0.184690
C120  C     C_R   0.517668 0.063586 0.516281 -0.184691
C121  C     C_R   0.020632 0.562657 0.483783 -0.185184
C122  C     C_R   0.979371 0.437338 0.516216 -0.185186
C123  C     C_R   0.499134 0.999907 0.532472 0.173687
C124  C     C_R   0.500883 0.000095 0.467528 0.173687
C125  C     C_R   0.000162 0.500343 0.532469 0.173560
C126  C     C_R   0.999840 0.499652 0.467531 0.173556
C127  C     C_R   0.999154 0.499908 0.032474 0.173964
C128  C     C_R   0.439738 0.028355 0.884835 0.472238
C129  C     C_R   0.000865 0.500094 0.967527 0.173968
C130  C     C_R   0.500052 0.000826 0.032475 0.173973
C131  C     C_R   0.499958 0.999135 0.967533 0.174009
C132  C     C_R   0.499941 0.000021 0.834224 0.864160
C133  C     C_R   0.500058 0.999973 0.165778 0.864357
C134  C     C_R   0.999981 0.500088 0.834221 0.864681
C135  C     C_R   0.000020 0.499912 0.165779 0.864688
C136  C     C_R   0.000045 0.500035 0.334225 0.864077
C137  C     C_R   0.999955 0.499964 0.665775 0.864090
C138  C     C_R   0.499987 0.000089 0.334222 0.864531
C139  C     C_R   0.560192 0.971468 0.115173 0.472248
C140  C     C_R   0.500013 0.999911 0.665778 0.864532
C141  C     C_R   0.640100 0.140078 0.749999 0.785365
C142  C     C_R   0.359900 0.859922 0.250001 0.785368
C143  C     C_R   0.859893 0.640090 0.750016 0.785716
C144  C     C_R   0.140106 0.359910 0.249984 0.785722
C145  C     C_R   0.359888 0.859907 0.749987 0.772782
C146  C     C_R   0.640112 0.140093 0.250013 0.772788
C147  C     C_R   0.140125 0.359945 0.750012 0.777891
C148  C     C_R   0.859875 0.640055 0.249987 0.777889
C149  C     C_R   0.640107 0.859931 0.249999 0.783995
C150  C     C_R   0.533088 0.941998 0.384729 0.477538
C151  C     C_R   0.359893 0.140068 0.750001 0.783973
C152  C     C_R   0.859936 0.359863 0.250017 0.772294
C153  C     C_R   0.140064 0.640137 0.749983 0.772293
C154  C     C_R   0.359943 0.140135 0.249985 0.784778
C155  C     C_R   0.640057 0.859865 0.750014 0.784758
C156  C     C_R   0.140082 0.640092 0.250012 0.791165
C157  C     C_R   0.859918 0.359908 0.749988 0.791168
C158  C     C_R   0.307992 0.254411 0.729056 -0.195914
C159  C     C_R   0.692011 0.745591 0.270946 -0.195917
C160  C     C_R   0.744061 0.309376 0.729847 -0.181196
H1    H     H_    0.033654 0.613228 0.972010 0.131852
H2    H     H_    0.466046 0.886862 0.527984 0.132342
H3    H     H_    0.797675 0.476905 0.603817 0.142285
H4    H     H_    0.453457 0.222888 0.357011 0.185937
H5    H     H_    0.535143 0.172981 0.365407 0.152679
H6    H     H_    0.474225 0.202261 0.396548 0.139564
H7    H     H_    0.464863 0.827008 0.634587 0.152681
H8    H     H_    0.546551 0.777104 0.642983 0.185933
H9    H     H_    0.525787 0.797743 0.603447 0.139561
H10   H     H_    0.943381 0.349292 0.353704 0.136782
H11   H     H_    0.846095 0.339261 0.353473 0.192441
H12   H     H_    0.893223 0.335748 0.389834 0.149252
H13   H     H_    0.963954 0.387490 0.471894 0.133071
H14   H     H_    0.153834 0.660785 0.646537 0.192443
H15   H     H_    0.056554 0.650698 0.646309 0.136769
H16   H     H_    0.106694 0.664292 0.610178 0.149260
H17   H     H_    0.036047 0.612506 0.528106 0.133069
H18   H     H_    0.467499 0.887053 0.471437 0.140555
H19   H     H_    0.532519 0.112948 0.528562 0.140553
H20   H     H_    0.035789 0.611923 0.471548 0.140320
H21   H     H_    0.964216 0.388071 0.528452 0.140315
H22   H     H_    0.352431 0.258571 0.712614 0.169006
H23   H     H_    0.647574 0.741434 0.287389 0.169006
H24   H     H_    0.738591 0.355003 0.714101 0.163374
H25   H     H_    0.966368 0.386774 0.027991 0.131858
H26   H     H_    0.261410 0.644995 0.285898 0.163380
H27   H     H_    0.646909 0.740468 0.712989 0.161881
H28   H     H_    0.353095 0.259536 0.287009 0.161880
H29   H     H_    0.259902 0.646311 0.713236 0.167046
H30   H     H_    0.740096 0.353691 0.286763 0.167040
H31   H     H_    0.355103 0.738658 0.285875 0.166874
H32   H     H_    0.644898 0.261341 0.714124 0.166874
H33   H     H_    0.741167 0.647644 0.287349 0.167976
H34   H     H_    0.258839 0.352361 0.712654 0.167974
H35   H     H_    0.646344 0.260070 0.286735 0.158995
H36   H     H_    0.387039 0.965575 0.971930 0.131845
H37   H     H_    0.353653 0.739932 0.713264 0.158997
H38   H     H_    0.259390 0.353215 0.287001 0.158032
H39   H     H_    0.740614 0.646789 0.712996 0.158031
H40   H     H_    0.852346 0.758494 0.212550 0.167803
H41   H     H_    0.147648 0.241499 0.787446 0.167815
H42   H     H_    0.238480 0.855087 0.214179 0.167765
H43   H     H_    0.761519 0.144915 0.785821 0.167780
H44   H     H_    0.147132 0.240681 0.212852 0.163284
H45   H     H_    0.852864 0.759314 0.787150 0.163279
H46   H     H_    0.760177 0.146062 0.213397 0.157123
H47   H     H_    0.612974 0.034368 0.028084 0.131883
H48   H     H_    0.239826 0.853936 0.786604 0.157102
H49   H     H_    0.855181 0.238589 0.785814 0.167835
H50   H     H_    0.144817 0.761412 0.214187 0.167829
H51   H     H_    0.241273 0.147720 0.787420 0.163722
H52   H     H_    0.758720 0.852274 0.212576 0.163659
H53   H     H_    0.146126 0.760278 0.786600 0.157282
H54   H     H_    0.853876 0.239719 0.213401 0.157289
H55   H     H_    0.759104 0.852955 0.787167 0.167725
H56   H     H_    0.240891 0.147040 0.212836 0.167771
H57   H     H_    0.056862 0.396782 0.929339 0.163839
H58   H     H_    0.967786 0.386964 0.971444 0.140302
H59   H     H_    0.943132 0.603208 0.070661 0.163841
H60   H     H_    0.603693 0.943901 0.929366 0.163774
H61   H     H_    0.396439 0.056298 0.070633 0.163838
H62   H     H_    0.944214 0.602701 0.929767 0.161040
H63   H     H_    0.055824 0.397313 0.070234 0.161044
H64   H     H_    0.396989 0.055106 0.929758 0.161124
H65   H     H_    0.602882 0.944619 0.070246 0.161094
H66   H     H_    0.556654 0.896661 0.429340 0.164183
H67   H     H_    0.443364 0.103343 0.570659 0.164181
H68   H     H_    0.103886 0.553847 0.429716 0.158997
H69   H     H_    0.032232 0.613038 0.028558 0.140300
H70   H     H_    0.896129 0.446123 0.570284 0.158994
H71   H     H_    0.444507 0.102854 0.429770 0.160919
H72   H     H_    0.555505 0.897148 0.570230 0.160915
H73   H     H_    0.895463 0.445914 0.429434 0.164846
H74   H     H_    0.104525 0.554110 0.570567 0.164848
H75   H     H_    0.150629 0.445509 0.853131 0.133669
H76   H     H_    0.162471 0.348428 0.853055 0.195039
H77   H     H_    0.165982 0.396168 0.889304 0.153856
H78   H     H_    0.837502 0.651534 0.146944 0.195029
H79   H     H_    0.849388 0.554460 0.146888 0.133684
H80   H     H_    0.612861 0.032979 0.971535 0.140289
H81   H     H_    0.833996 0.603749 0.110706 0.153843
H82   H     H_    0.652853 0.838623 0.853100 0.194919
H83   H     H_    0.555674 0.849666 0.853191 0.133724
H84   H     H_    0.605263 0.834848 0.889358 0.153733
H85   H     H_    0.444728 0.150380 0.146857 0.133696
H86   H     H_    0.347586 0.161735 0.146915 0.194948
H87   H     H_    0.395264 0.165413 0.110675 0.153774
H88   H     H_    0.952766 0.722748 0.857007 0.187174
H89   H     H_    0.034601 0.673143 0.865462 0.151295
H90   H     H_    0.973455 0.702210 0.896559 0.139649
H91   H     H_    0.387149 0.966997 0.028479 0.140323
H92   H     H_    0.965449 0.326832 0.134527 0.151283
H93   H     H_    0.047299 0.277257 0.142990 0.187180
H94   H     H_    0.026626 0.297796 0.103436 0.139655
H95   H     H_    0.327311 0.964152 0.865256 0.151297
H96   H     H_    0.276971 0.045624 0.856962 0.187140
H97   H     H_    0.297746 0.024741 0.896474 0.139475
H98   H     H_    0.722899 0.953700 0.143052 0.187155
H99   H     H_    0.672908 0.035310 0.134629 0.151220
H100  H     H_    0.702254 0.974340 0.103506 0.139584
H101  H     H_    0.650437 0.945273 0.353065 0.133199
H102  H     H_    0.533971 0.113140 0.472015 0.132341
H103  H     H_    0.662192 0.848184 0.353026 0.194358
H104  H     H_    0.665843 0.896010 0.389253 0.153248
H105  H     H_    0.337820 0.151826 0.646970 0.194359
H106  H     H_    0.349566 0.054735 0.646929 0.133202
H107  H     H_    0.334171 0.104005 0.610742 0.153249
H108  H     H_    0.222933 0.543909 0.356653 0.186658
H109  H     H_    0.171659 0.463047 0.364968 0.152343
H110  H     H_    0.202333 0.523046 0.396186 0.142284
H111  H     H_    0.828342 0.536905 0.635036 0.152354
H112  H     H_    0.777084 0.456034 0.643351 0.186661
O1    O     O_3   0.500000 0.000000 0.750000 -0.493770
O2    O     O_R   0.439140 0.000000 0.180550 -0.595467
O3    O     O_R   0.000000 0.560860 0.819450 -0.615781
O4    O     O_R   0.000000 0.439140 0.180550 -0.615782
O5    O     O_R   0.939140 0.500000 0.319450 -0.594876
O6    O     O_R   0.060860 0.500000 0.680550 -0.594885
O7    O     O_R   0.500000 0.939140 0.319450 -0.595279
O8    O     O_R   0.500000 0.060860 0.680550 -0.595276
O9    O     O_R   0.060860 0.500000 0.319450 -0.615713
O10   O     O_R   0.939140 0.500000 0.680550 -0.615733
O11   O     O_R   0.500000 0.060860 0.319450 -0.615628
O12   O     O_3   0.500000 1.000000 0.250000 -0.493769
O13   O     O_R   0.500000 0.939140 0.680550 -0.615619
O14   O     O_R   0.646030 0.085480 0.768310 -0.645480
O15   O     O_R   0.353970 0.914520 0.231690 -0.645505
O16   O     O_R   0.914520 0.646030 0.768310 -0.641114
O17   O     O_R   0.085480 0.353970 0.231690 -0.641113
O18   O     O_R   0.353970 0.914520 0.768310 -0.655458
O19   O     O_R   0.646030 0.085480 0.231690 -0.655447
O20   O     O_R   0.085480 0.353970 0.768310 -0.643126
O21   O     O_R   0.914520 0.646030 0.231690 -0.643127
O22   O     O_R   0.646030 0.914520 0.231690 -0.642458
O23   O     O_3   0.000000 0.500000 0.750000 -0.493741
O24   O     O_R   0.353970 0.085480 0.768310 -0.642442
O25   O     O_R   0.914520 0.353970 0.231690 -0.656879
O26   O     O_R   0.085480 0.646030 0.768310 -0.656880
O27   O     O_R   0.353970 0.085480 0.231690 -0.643819
O28   O     O_R   0.646030 0.914520 0.768310 -0.643849
O29   O     O_R   0.085480 0.646030 0.231690 -0.646117
O30   O     O_R   0.914520 0.353970 0.768310 -0.646113
O31   O     O_R   0.146030 0.585480 0.268310 -0.641379
O32   O     O_R   0.853970 0.414520 0.731690 -0.641382
O33   O     O_R   0.414520 0.146030 0.268310 -0.642433
O34   O     O_3   0.000000 0.500000 0.250000 -0.493744
O35   O     O_R   0.585480 0.853970 0.731690 -0.642426
O36   O     O_R   0.853970 0.414520 0.268310 -0.642677
O37   O     O_R   0.146030 0.585480 0.731690 -0.642675
O38   O     O_R   0.585480 0.853970 0.268310 -0.643747
O39   O     O_R   0.414520 0.146030 0.731690 -0.643749
O40   O     O_R   0.146030 0.414520 0.731690 -0.646596
O41   O     O_R   0.853970 0.585480 0.268310 -0.646592
O42   O     O_R   0.414520 0.853970 0.731690 -0.655389
O43   O     O_R   0.585480 0.146030 0.268310 -0.655393
O44   O     O_R   0.853970 0.585480 0.731690 -0.656327
O45   O     O_R   0.439140 1.000000 0.819450 -0.615312
O46   O     O_R   0.146030 0.414520 0.268310 -0.656325
O47   O     O_R   0.585480 0.146030 0.731690 -0.645302
O48   O     O_R   0.414520 0.853970 0.268310 -0.645299
O49   O     O_3   0.063049 0.383075 0.869285 -0.573237
O50   O     O_3   0.936932 0.616912 0.130714 -0.573250
O51   O     O_3   0.617444 0.937811 0.869315 -0.573122
O52   O     O_3   0.382710 0.062458 0.130687 -0.573161
O53   O     O_3   0.936002 0.615873 0.869227 -0.581400
O54   O     O_3   0.064029 0.384142 0.130775 -0.581398
O55   O     O_3   0.383720 0.063211 0.869237 -0.581127
O56   O     O_R   0.560860 0.000000 0.180550 -0.615386
O57   O     O_3   0.616096 0.936449 0.130780 -0.581213
O58   O     O_3   0.562844 0.882956 0.369290 -0.572286
O59   O     O_3   0.437167 0.117048 0.630709 -0.572286
O60   O     O_3   0.116566 0.562827 0.369196 -0.582389
O61   O     O_3   0.883453 0.437138 0.630805 -0.582400
O62   O     O_3   0.436350 0.116069 0.369237 -0.581610
O63   O     O_3   0.563651 0.883929 0.630764 -0.581606
O64   O     O_3   0.882340 0.438408 0.369376 -0.571326
O65   O     O_3   0.117641 0.561627 0.630624 -0.571335
O66   O     O_R   0.000000 0.439140 0.819450 -0.595357
O67   O     O_R   0.000000 0.560860 0.180550 -0.595369
O68   O     O_R   0.560860 1.000000 0.819450 -0.595399
Zn1   Zn    Zn3+2 0.500000 0.086800 0.724180 0.993418
Zn2   Zn    Zn3+2 0.000000 0.413200 0.775820 0.993135
Zn3   Zn    Zn3+2 0.413200 0.000000 0.224180 0.993426
Zn4   Zn    Zn3+2 0.586800 1.000000 0.775820 0.993403
Zn5   Zn    Zn3+2 0.000000 0.413200 0.224180 0.968274
Zn6   Zn    Zn3+2 0.000000 0.586800 0.775820 0.968267
Zn7   Zn    Zn3+2 0.586800 0.000000 0.224180 0.968000
Zn8   Zn    Zn3+2 0.413200 1.000000 0.775820 0.967995
Zn9   Zn    Zn3+2 0.500000 0.913200 0.275820 0.993427
Zn10  Zn    Zn3+2 0.913200 0.500000 0.724180 0.975265
Zn11  Zn    Zn3+2 0.086800 0.500000 0.275820 0.975276
Zn12  Zn    Zn3+2 0.500000 0.913200 0.724180 0.968317
Zn13  Zn    Zn3+2 0.500000 0.086800 0.275820 0.968311
Zn14  Zn    Zn3+2 0.086800 0.500000 0.724180 0.986379
Zn15  Zn    Zn3+2 0.913200 0.500000 0.275820 0.986379
Zn16  Zn    Zn3+2 0.000000 0.586800 0.224180 0.993126

loop_
_geom_bond_atom_site_label_1
_geom_bond_atom_site_label_2
_ccdc_geom_bond_type
O10   Zn10  S    
C28   C47   A    
O40   Zn14  S    
C31   H54   S    
C56   H88   S    
C54   H82   S    
C90   H68   S    
C63   H110  S    
O48   Zn9   S    
C62   H105  S    
C21   C33   A    
C60   H98   S    
C108  C131  A    
C12   C42   A    
C32   H55   S    
C36   C148  S    
C117  O54   S    
C78   C96   A    
C147  O40   A    
C140  O13   A    
C13   C103  A    
O23   Zn6   S    
O45   Zn8   S    
C143  O16   A    
O35   Zn12  S    
C44   C157  S    
C7    C12   A    
C8    C38   A    
C153  O37   A    
C121  H20   S    
C115  C123  A    
C91   H70   S    
C59   H95   S    
O68   Zn4   S    
C3    C8    A    
C10   H33   S    
C25   C41   A    
C33   C50   A    
C81   H60   S    
C155  O28   A    
C70   C129  S    
C149  O22   A    
C29   C45   A    
O12   Zn9   S    
C23   C31   A    
C108  C113  A    
C55   H85   S    
O34   Zn5   S    
C1    O49   S    
C56   H89   S    
C55   O52   S    
O24   Zn8   S    
C85   C117  A    
C152  O25   A    
C116  C122  A    
C30   C49   A    
C155  O35   A    
C137  O10   A    
C31   C48   A    
C1    C79   A    
C107  C110  A    
C43   C156  S    
C52   H76   S    
C29   H52   S    
C49   C153  S    
C70   C79   A    
C20   H43   S    
O29   Zn16  S    
C99   C128  A    
C142  O48   A    
C7    C48   A    
C60   H100  S    
C114  H102  S    
C107  C127  A    
C30   H53   S    
C58   H94   S    
C18   H41   S    
C112  C131  A    
O18   Zn8   S    
C5    C15   A    
C145  O18   A    
C61   H101  S    
O31   Zn11  S    
C69   H15   S    
C5    H28   S    
C24   C104  A    
C78   C125  S    
O30   Zn2   S    
C151  O39   A    
O1    Zn4   S    
C140  O8    A    
C26   C44   A    
C28   H51   S    
C148  O21   A    
C51   C155  S    
O34   Zn15  S    
O32   Zn10  S    
C66   H7    S    
C120  H19   S    
C53   H81   S    
O34   Zn11  S    
C79   H57   S    
C2    C102  A    
C77   C94   A    
C110  C129  A    
O42   Zn12  S    
C65   O62   S    
C64   H112  S    
C88   H66   S    
C112  H80   S    
C135  O67   A    
C7    H30   S    
C17   C36   A    
C74   C87   A    
C25   H48   S    
C143  O44   A    
C142  O15   A    
O46   Zn11  S    
O47   Zn1   S    
C134  O3    A    
O1    Zn8   S    
C73   C98   A    
C14   H37   S    
O15   Zn3   S    
C113  C130  A    
C67   O64   S    
C4    C51   A    
C75   C124  S    
C18   C28   A    
C61   H103  S    
O56   Zn7   S    
O23   Zn14  S    
C9    C160  A    
C98   C135  S    
C59   O55   S    
C4    C16   A    
C103  C136  S    
O23   Zn10  S    
C100  C139  A    
C6    C14   A    
C18   C34   A    
C146  O19   A    
C145  O42   A    
C128  O55   S    
C14   C41   A    
C68   O65   S    
C52   H77   S    
C115  C119  A    
C57   C94   A    
C111  H69   S    
C105  H1    S    
C108  H36   S    
C139  O57   S    
C82   C95   A    
C95   O52   S    
C63   H108  S    
C67   H12   S    
C149  O38   A    
O36   Zn15  S    
O2    Zn3   S    
C113  H91   S    
C66   O63   S    
O67   Zn16  S    
O27   Zn3   S    
C54   H83   S    
C122  C125  A    
C40   C144  S    
C63   H109  S    
C62   H106  S    
C20   C37   A    
C21   C40   A    
O43   Zn13  S    
C22   C39   A    
C6    H29   S    
C150  O58   S    
O33   Zn13  S    
C11   C158  A    
C58   O54   S    
C54   O51   S    
O28   Zn4   S    
O19   Zn7   S    
C153  O26   A    
O25   Zn5   S    
C3    H26   S    
O6    Zn14  S    
C13   C90   A    
C17   C29   A    
C141  O14   A    
C66   H9    S    
C45   C159  A    
C13   O60   S    
C157  O30   A    
C53   H79   S    
C80   H59   S    
C73   O50   S    
C68   C96   A    
C37   C141  S    
C99   C132  S    
O1    Zn1   S    
O5    Zn15  S    
O41   Zn15  S    
C65   H5    S    
C101  C150  A    
C104  C137  S    
C109  H47   S    
C122  H21   S    
C55   H86   S    
C56   H90   S    
C152  O36   A    
C118  C125  A    
C61   O58   S    
C133  O56   A    
O8    Zn1   S    
C35   O62   S    
C72   C81   A    
C120  C123  A    
C156  O29   A    
C35   C92   A    
C105  C111  A    
C71   C127  S    
C74   C82   A    
C64   H3    S    
C147  O20   A    
C67   H10   S    
C57   C103  A    
C77   C90   A    
C84   O51   S    
C151  O24   A    
C24   O61   S    
C69   O65   S    
C15   H38   S    
C95   C100  A    
C92   H71   S    
O20   Zn2   S    
C86   C128  A    
C27   H50   S    
C52   O49   S    
O7    Zn9   S    
C2    C89   A    
C32   C51   A    
C53   O50   S    
C19   C38   A    
C76   C93   A    
C34   C147  S    
O1    Zn12  S    
C102  C140  S    
C70   C83   A    
C85   H63   S    
C22   C32   A    
C97   C106  A    
C116  H13   S    
C93   H72   S    
C47   C151  S    
C56   O53   S    
C48   C152  S    
C46   O63   S    
C144  O17   A    
C12   H35   S    
C5    C50   A    
C63   O60   S    
C157  O32   A    
C42   C146  S    
C4    H27   S    
C72   C131  S    
C154  O33   A    
C25   C30   A    
O11   Zn13  S    
C59   H96   S    
C84   C99   A    
C88   C150  A    
C68   C104  A    
C87   C139  A    
C35   C101  A    
C141  O47   A    
O13   Zn12  S    
C72   C86   A    
C101  C138  S    
C94   H73   S    
O4    Zn5   S    
O34   Zn16  S    
C83   C106  A    
C66   H8    S    
C65   H6    S    
C15   C40   A    
C2    O59   S    
C16   C39   A    
C27   C43   A    
C41   C145  S    
C96   H74   S    
C59   H97   S    
C76   C89   A    
C10   C36   A    
C10   C159  A    
O21   Zn16  S    
C114  C120  A    
C77   C126  S    
C52   H75   S    
O12   Zn13  S    
C138  O7    A    
C58   H92   S    
C11   H34   S    
C82   H61   S    
C119  C124  A    
C46   C102  A    
C3    C43   A    
C23   C42   A    
C58   H93   S    
C60   H99   S    
C62   O59   S    
C8    H31   S    
C17   H40   S    
C135  O4    A    
C64   O61   S    
O38   Zn9   S    
C148  O41   A    
C71   C85   A    
C83   H62   S    
C87   H65   S    
C156  O31   A    
C134  O66   A    
C119  H18   S    
C26   H49   S    
C9    H32   S    
C19   C27   A    
C114  C124  A    
C116  C126  A    
C38   C142  S    
C21   H44   S    
C86   H64   S    
C97   C134  S    
C89   H67   S    
C71   C80   A    
C33   H56   S    
O16   Zn6   S    
C137  O6    A    
C109  C112  A    
C1    C97   A    
C105  C129  A    
C67   H11   S    
O66   Zn2   S    
O22   Zn7   S    
C19   H42   S    
C22   H45   S    
O26   Zn6   S    
C118  C121  A    
C54   H84   S    
O39   Zn1   S    
C136  O9    A    
C64   H111  S    
O17   Zn5   S    
C62   H107  S    
O12   Zn3   S    
C9    C37   A    
C138  O11   A    
C158  H22   S    
C16   H39   S    
C144  O46   A    
C75   C92   A    
C69   H16   S    
C39   C143  S    
C154  O27   A    
C74   C130  S    
C23   H46   S    
C111  C127  A    
O14   Zn4   S    
C24   C91   A    
C60   O57   S    
C81   C84   A    
C100  C133  S    
C98   C117  A    
C133  O2    A    
C76   C123  S    
C132  O45   A    
C11   C34   A    
C146  O43   A    
C61   H104  S    
C53   H78   S    
O9    Zn11  S    
C78   C91   A    
C107  H25   S    
C132  O68   A    
C115  H2    S    
C136  O5    A    
C121  C126  A    
O3    Zn6   S    
C57   O64   S    
C46   C93   A    
C20   C26   A    
C50   C154  S    
C106  O53   S    
C44   C160  A    
C65   H4    S    
C73   C80   A    
O12   Zn7   S    
C45   C149  S    
C6    C49   A    
C110  H58   S    
C118  H17   S    
C75   C88   A    
C69   H14   S    
C109  C130  A    
O37   Zn14  S    
C55   H87   S    
O23   Zn2   S    
C159  H23   S    
C160  H24   S    
C47   C158  A    
O44   Zn10  S    
