data_mof_unit_23337.cif
_audit_creation_date              2012-12-10T17:19:25-0500
_audit_creation_method            fapswitch 2.2
_symmetry_space_group_name_H-M    P1
_symmetry_Int_Tables_number       1
_space_group_crystal_system       triclinic
_cell_length_a                    14.995236
_cell_length_b                    10.827624
_cell_length_c                    9.714892
_cell_angle_alpha                 89.106763
_cell_angle_beta                  90.045988
_cell_angle_gamma                 94.820404
_cell_volume                      1571.56659562

loop_
_atom_site_label
_atom_site_type_symbol
_atom_type_description
_atom_site_fract_x
_atom_site_fract_y
_atom_site_fract_z
_atom_type_partial_charge
C1    C     C_R   0.501256 0.262259 0.502504 0.762245
C2    C     C_R   0.912608 0.611237 0.499809 0.053235
C3    C     C_R   0.944138 0.271744 0.499594 -0.209832
C4    C     C_R   0.036673 0.274399 0.500266 -0.222040
C5    C     C_R   0.088616 0.387365 0.499420 0.152967
C6    C     C_R   0.047577 0.500579 0.497497 0.017659
C7    C     C_R   0.100839 0.615078 0.493629 0.051672
C8    C     C_R   0.059756 0.728364 0.488031 0.166965
C9    C     C_R   0.965517 0.726460 0.502967 0.192592
C10   C     C_R   0.181395 0.388294 0.500126 -0.259468
C11   C     C_R   0.233510 0.500439 0.499413 -0.047780
C12   C     C_R   0.329566 0.500069 0.499935 0.786430
C13   C     C_R   0.194531 0.612791 0.496414 -0.228931
C14   C     C_R   0.484251 0.101603 0.767477 -0.189892
C15   C     C_R   0.448288 0.029855 0.878910 0.216375
C16   C     C_R   0.404973 0.913337 0.854870 -0.151351
C17   C     C_R   0.408307 0.862501 0.724779 -0.230907
C18   C     C_R   0.455876 0.927739 0.616980 0.088574
C19   C     C_R   0.480508 0.055107 0.631511 0.063401
C20   C     C_R   0.503208 0.126972 0.509752 -0.103380
C21   C     C_R   0.520473 0.066773 0.387365 -0.209119
C22   C     C_R   0.514665 0.938915 0.383222 -0.217005
C23   C     C_R   0.493131 0.735833 0.498969 0.767517
C24   C     C_R   0.483409 0.868562 0.497709 -0.094547
C25   C     C_R   0.635813 0.637621 0.143459 -0.170984
C26   C     C_R   0.719391 0.662742 0.081970 0.140501
C27   C     C_R   0.727630 0.638183 0.941835 0.152123
C28   C     C_R   0.648117 0.627904 0.863569 0.197946
C29   C     C_R   0.569554 0.565896 0.926302 0.081836
C30   C     C_R   0.567174 0.567322 0.074391 0.072800
C31   C     C_R   0.434660 0.433373 0.074884 0.247140
C32   C     C_R   0.435999 0.431053 0.926804 0.242118
C33   C     C_R   0.670528 0.498524 0.499952 0.797584
C34   C     C_R   0.818966 0.606169 0.498587 -0.321592
C35   C     C_R   0.766971 0.493605 0.499567 -0.037940
C36   C     C_R   0.806643 0.380122 0.500022 0.126931
C37   C     C_R   0.900983 0.382567 0.498860 0.130084
C38   C     C_R   0.953667 0.498374 0.497824 -0.032855
Cu1   Cu    Cu3+1 0.499990 0.499990 0.640660 0.922697
Cu2   Cu    Cu3+1 0.500010 0.500010 0.359340 0.924409
H1    H     H_    0.627221 0.669408 0.245859 0.201896
N1    N     N_R   0.500860 0.501210 0.147910 -0.197473
N2    N     N_R   0.500890 0.501290 0.852040 -0.200039
O1    O     O_R   0.499990 0.319640 0.618810 -0.604929
O2    O     O_R   0.500000 0.319660 0.381240 -0.582461
O3    O     O_R   0.370250 0.499960 0.618800 -0.585609
O4    O     O_R   0.370260 0.499980 0.381230 -0.579756
O5    O     O_R   0.500000 0.680340 0.618760 -0.582972
O6    O     O_R   0.500010 0.680360 0.381190 -0.597573
O7    O     O_R   0.629740 0.500020 0.618770 -0.568585
O8    O     O_R   0.629750 0.500040 0.381200 -0.579152
H2    H     H_    0.784415 0.689930 0.498104 0.142337
H3    H     H_    0.520349 0.188569 0.792013 0.184888
C39   C     C_3   0.457261 0.075025 0.023777 -0.915638
H4    H     H_    0.493247 0.168812 0.028413 0.237247
H5    H     H_    0.390017 0.078234 0.070660 0.237326
H6    H     H_    0.495599 0.009979 0.084401 0.235346
H7    H     H_    0.372955 0.859034 0.938451 0.149021
H8    H     H_    0.375707 0.770608 0.710466 0.172026
H9    H     H_    0.535878 0.895070 0.290730 0.157857
C40   C     C_3   0.355405 0.366860 0.150566 -0.762952
H10   H     H_    0.319623 0.289240 0.096255 0.183285
H11   H     H_    0.375326 0.321390 0.245936 0.264134
H12   H     H_    0.304623 0.433460 0.169396 0.234868
C41   C     C_3   0.796855 0.720564 0.164013 -0.836222
H13   H     H_    0.775258 0.746668 0.267765 0.214764
H14   H     H_    0.849296 0.654583 0.175082 0.249915
H15   H     H_    0.825541 0.806823 0.111936 0.231142
C42   C     C_3   0.817371 0.656203 0.871562 -0.850866
H16   H     H_    0.865568 0.598946 0.924109 0.240881
H17   H     H_    0.811630 0.625806 0.763877 0.249206
H18   H     H_    0.843481 0.755183 0.872652 0.229832
C43   C     C_3   0.640899 0.743135 0.775858 -0.747271
H19   H     H_    0.653764 0.725338 0.666140 0.231210
H20   H     H_    0.576518 0.782785 0.795570 0.244425
H21   H     H_    0.691420 0.819805 0.803997 0.193799
C44   C     C_3   0.749684 0.257512 0.502023 -0.874820
H22   H     H_    0.764873 0.202932 0.595588 0.229018
H23   H     H_    0.677347 0.268174 0.503594 0.227387
H24   H     H_    0.763264 0.204313 0.408622 0.229534
C45   C     C_3   0.364564 0.347843 0.855166 -0.784004
H25   H     H_    0.376500 0.330548 0.747545 0.277380
H26   H     H_    0.361846 0.252571 0.897712 0.201877
H27   H     H_    0.298258 0.385255 0.866079 0.219258
H28   H     H_    0.907305 0.181502 0.500205 0.157988
H29   H     H_    0.067738 0.187487 0.501352 0.141592
H30   H     H_    0.213375 0.301984 0.501587 0.122904
H31   H     H_    0.238505 0.697320 0.498495 0.136881
C46   C     C_3   0.116224 0.849243 0.459532 -0.885613
H32   H     H_    0.165551 0.836676 0.376821 0.228719
H33   H     H_    0.076744 0.923708 0.418811 0.238377
H34   H     H_    0.151885 0.880745 0.554541 0.232922
C47   C     C_3   0.921544 0.845459 0.529032 -0.895566
H35   H     H_    0.871726 0.830902 0.613399 0.227233
H36   H     H_    0.968975 0.921592 0.566259 0.239244
H37   H     H_    0.888112 0.876026 0.433925 0.231936
H38   H     H_    0.541859 0.118924 0.295541 0.175665

loop_
_geom_bond_atom_site_label_1
_geom_bond_atom_site_label_2
_ccdc_geom_bond_type
Cu2   O4    S    
C47   H35   S    
C31   N1    A    
C3    H28   S    
C43   H19   S    
C31   C40   S    
C35   C36   A    
C45   H25   S    
C7    C8    A    
C44   H22   S    
C32   C45   S    
C26   C27   A    
C37   C38   A    
C18   C24   A    
C28   C29   A    
C18   C19   A    
C36   C44   S    
C22   H9    S    
C5    C6    A    
C23   O6    A    
C4    H29   S    
C15   C16   A    
C40   H11   S    
C34   C35   A    
C42   H17   S    
C19   C20   A    
C8    C9    A    
C41   H14   S    
C23   C24   S    
C6    C38   A    
C46   H33   S    
C27   C42   S    
C2    C34   A    
Cu2   N1    S    
C47   H36   S    
C21   C22   A    
C29   N2    A    
C43   H20   S    
C40   H10   S    
C12   O4    A    
C28   C43   S    
C45   H26   S    
C44   H23   S    
Cu2   O2    S    
C39   H5    S    
C10   H30   S    
C15   C39   S    
C12   O3    A    
C25   H1    S    
Cu1   Cu2   S    
C16   C17   A    
Cu1   N2    S    
C33   O7    A    
C40   H12   S    
C29   C30   A    
C21   H38   S    
C2    C38   A    
C1    O1    A    
C31   C32   A    
C41   H15   S    
Cu1   O7    S    
C17   C18   A    
C16   H7    S    
C46   H34   S    
Cu1   O1    S    
C17   H8    S    
Cu1   O3    S    
C47   H37   S    
C43   H21   S    
C22   C24   A    
C3    C4    A    
C9    C47   S    
C45   H27   S    
C44   H24   S    
C25   C30   A    
C39   H4    S    
C36   C37   A    
C1    C20   S    
C23   O5    A    
C26   C41   S    
C14   C19   A    
C42   H18   S    
C4    C5    A    
C11   C12   S    
C6    C7    A    
C33   O8    A    
Cu2   O8    S    
C34   H2    S    
C25   C26   A    
C5    C10   A    
C11   C13   A    
C1    O2    A    
C13   H31   S    
C33   C35   S    
C32   N2    A    
C42   H16   S    
C10   C11   A    
C7    C13   A    
C14   H3    S    
C20   C21   A    
C3    C37   A    
C41   H13   S    
C27   C28   A    
C14   C15   A    
C30   N1    A    
C8    C46   S    
C46   H32   S    
C2    C9    A    
Cu2   O6    S    
Cu1   O5    S    
C39   H6    S    
