data_mof_unit_5649.cif
_audit_creation_date              2012-12-10T16:57:09-0500
_audit_creation_method            fapswitch 2.2
_symmetry_space_group_name_H-M    P1
_symmetry_Int_Tables_number       1
_space_group_crystal_system       triclinic
_cell_length_a                    7.758159
_cell_length_b                    8.610034
_cell_length_c                    16.506228
_cell_angle_alpha                 91.570317
_cell_angle_beta                  80.718751
_cell_angle_gamma                 93.740063
_cell_volume                      1085.67175164

loop_
_atom_site_label
_atom_site_type_symbol
_atom_type_description
_atom_site_fract_x
_atom_site_fract_y
_atom_site_fract_z
_atom_type_partial_charge
C1    C     C_R   0.545377 0.794168 0.503352 0.887316
C2    C     C_R   0.394622 0.561379 0.222562 -0.202043
C3    C     C_R   0.631629 0.720354 0.833873 -0.173024
C4    C     C_R   0.413807 0.617360 0.143424 -0.143476
C5    C     C_R   0.476785 0.717636 0.890980 0.209372
C6    C     C_R   0.581909 0.651100 0.098841 0.205755
C7    C     C_R   0.320588 0.651603 0.869165 -0.178275
C8    C     C_R   0.729622 0.621896 0.133296 -0.182790
C9    C     C_R   0.321460 0.579285 0.792704 -0.215216
C10   C     C_R   0.710455 0.565207 0.212366 -0.182437
C11   C     C_2   0.481472 0.752939 0.977690 -0.243291
C12   C     C_R   0.453802 0.205892 0.507398 0.890520
C13   C     C_2   0.607523 0.695058 0.012501 -0.226633
C14   C     C_3   0.796564 0.032813 0.579816 -0.216128
C15   C     C_3   0.230873 0.975679 0.635837 -0.336411
C16   C     C_2   0.570953 0.956804 0.513145 0.167325
C17   C     C_2   0.429359 0.044875 0.524345 0.195330
C18   C     C_R   0.479438 0.512019 0.654534 0.807776
C19   C     C_R   0.523381 0.502081 0.345015 0.864037
C20   C     C_R   0.478920 0.572361 0.737812 -0.018218
C21   C     C_R   0.542711 0.536839 0.257939 -0.038052
C22   C     C_R   0.633159 0.646274 0.758232 -0.229074
H1    H     H_    0.754711 0.649099 0.715327 0.142600
H2    H     H_    0.752741 0.774296 0.849008 0.125583
H3    H     H_    0.022790 0.379941 0.439709 0.205294
H4    H     H_    0.977224 0.620048 0.560324 0.192267
H5    H     H_    0.805680 0.916378 0.605902 0.135985
H6    H     H_    0.707736 0.103939 0.623560 0.122065
H7    H     H_    0.928204 0.093993 0.572270 0.230298
H8    H     H_    0.236362 0.093976 0.664608 0.150755
H9    H     H_    0.325964 0.902151 0.658097 0.156211
H10   H     H_    0.098422 0.920437 0.656267 0.176091
H11   H     H_    0.263896 0.539417 0.256363 0.156196
H12   H     H_    0.827098 0.547755 0.238424 0.157986
H13   H     H_    0.200040 0.527336 0.776880 0.148226
H14   H     H_    0.724734 0.655591 0.974441 0.147365
H15   H     H_    0.363457 0.792063 0.014961 0.145985
H16   H     H_    0.200187 0.648425 0.912897 0.119488
H17   H     H_    0.860013 0.643004 0.098912 0.120197
H18   H     H_    0.296537 0.630004 0.117247 0.120629
N1    N     N_2   0.953500 0.457650 0.478520 -0.163204
N2    N     N_2   0.046500 0.542350 0.521480 -0.161541
O1    O     O_R   0.388470 0.738640 0.505270 -0.571340
O2    O     O_3   0.259389 0.984374 0.549363 -0.583227
O3    O     O_R   0.611530 0.261360 0.494730 -0.577227
O4    O     O_R   0.679650 0.711510 0.491500 -0.596314
O5    O     O_R   0.320350 0.288490 0.508500 -0.600940
O6    O     O_R   0.337210 0.515200 0.623500 -0.625469
O7    O     O_R   0.662790 0.484800 0.376500 -0.613010
O8    O     O_R   0.628380 0.488060 0.609730 -0.637460
O9    O     O_R   0.371620 0.511940 0.390270 -0.620961
O10   O     O_3   0.742874 0.018332 0.502137 -0.578916
Zn1   Zn    Zn3+2 0.305580 0.518120 0.509190 0.967244
Zn2   Zn    Zn3+2 0.694420 0.481880 0.490810 0.966780

loop_
_geom_bond_atom_site_label_1
_geom_bond_atom_site_label_2
_ccdc_geom_bond_type
C12   C17   S    
O3    Zn2   S    
C2    C4    A    
C15   H9    S    
C8    H17   S    
C14   H5    S    
C5    C7    A    
N1    N2    D    
C19   O7    A    
C9    C20   A    
O5    Zn1   S    
C7    C9    A    
O4    Zn2   S    
C2    C21   A    
O1    Zn1   S    
C17   O2    S    
C15   H10   S    
C10   H12   S    
C1    C16   S    
C6    C13   S    
C11   C13   D    
H4    N2    S    
C3    H2    S    
O8    Zn2   S    
C15   H8    S    
C12   O5    A    
C2    H11   S    
C4    C6    A    
C19   C21   S    
C7    H16   S    
C20   C22   A    
C15   O2    S    
C5    C11   S    
C18   C20   S    
N2    Zn1   S    
O6    Zn1   S    
N1    Zn2   S    
C9    H13   S    
C1    O4    A    
C14   H7    S    
O7    Zn2   S    
C19   O9    A    
C18   O8    A    
C13   H14   S    
C8    C10   A    
H3    N1    S    
C16   O10   S    
C11   H15   S    
C22   H1    S    
C16   C17   D    
C3    C22   A    
C6    C8    A    
C3    C5    A    
C14   H6    S    
C10   C21   A    
C1    O1    A    
C14   O10   S    
C4    H18   S    
C12   O3    A    
O9    Zn1   S    
C18   O6    A    
