data_mof_unit_20569.cif
_audit_creation_date              2012-12-10T18:07:40-0500
_audit_creation_method            fapswitch 2.2
_symmetry_space_group_name_H-M    P1
_symmetry_Int_Tables_number       1
_space_group_crystal_system       triclinic
_cell_length_a                    11.513244
_cell_length_b                    12.792079
_cell_length_c                    12.995983
_cell_angle_alpha                 82.59774
_cell_angle_beta                  92.901309
_cell_angle_gamma                 102.116208
_cell_volume                      1855.24496124

loop_
_atom_site_label
_atom_site_type_symbol
_atom_type_description
_atom_site_fract_x
_atom_site_fract_y
_atom_site_fract_z
_atom_type_partial_charge
C1    C     C_R   0.486824 0.439635 0.690998 0.950184
C2    C     C_R   0.724635 0.559958 0.934439 0.348604
C3    C     C_R   0.662430 0.494786 0.862407 0.364572
C4    C     C_R   0.717499 0.501283 0.499670 0.940245
C5    C     C_R   0.491532 0.532472 0.128563 -0.158952
C6    C     C_R   0.666924 0.653889 0.182665 -0.203109
C7    C     C_R   0.467402 0.399539 0.799637 -0.112562
C8    C     C_R   0.277491 0.080737 0.413175 0.319391
C9    C     C_R   0.649515 0.804844 0.625029 0.520929
C10   C     C_R   0.675984 0.906853 0.656273 -0.231076
C11   C     C_R   0.613770 0.983397 0.613339 -0.225523
C12   C     C_R   0.553254 0.592405 0.202754 -0.039403
C13   C     C_R   0.526110 0.960122 0.535887 0.033792
C14   C     C_R   0.493787 0.852373 0.510371 0.117053
C15   C     C_R   0.464233 0.039832 0.488194 -0.069852
C16   C     C_R   0.516822 0.559736 0.309084 0.844138
C17   C     C_R   0.348954 0.005756 0.446167 0.041185
C18   C     C_R   0.311333 0.899072 0.429648 -0.202077
C19   C     C_R   0.389433 0.828662 0.445014 -0.035667
C20   C     C_R   0.512080 0.152038 0.478119 0.039014
C21   C     C_R   0.324861 0.188681 0.416869 -0.027762
C22   C     C_R   0.282487 0.498763 0.500095 0.881075
C23   C     C_R   0.361920 0.325326 0.824269 -0.246539
C24   C     C_1   0.838761 0.503177 0.499703 -0.076210
C25   C     C_1   0.940896 0.501813 0.499544 0.067925
C26   C     C_1   0.059147 0.498722 0.499353 0.046087
C27   C     C_1   0.161255 0.497159 0.499462 -0.137688
C28   C     C_R   0.721923 0.647691 0.091251 -0.084249
C29   C     C_1   0.638235 0.193174 0.487976 0.258534
C30   C     C_1   0.362756 0.751637 0.371616 0.299971
C31   C     C_1   0.367987 0.308802 0.110478 0.271285
C32   C     C_R   0.328366 0.297376 0.926626 0.426137
C33   C     C_R   0.393797 0.352429 0.004292 -0.077298
C34   C     C_R   0.494082 0.437024 0.977229 -0.061981
C35   C     C_R   0.541751 0.444905 0.878282 -0.091183
C36   C     C_R   0.550019 0.513268 0.043488 0.047754
C37   C     C_R   0.666044 0.575160 0.022032 -0.027409
Cl1   Cl    Cl    0.128960 0.044358 0.368339 -0.560153
Cl2   Cl    Cl    0.733773 0.713964 0.683275 -0.495491
Cl3   Cl    Cl    0.876067 0.620753 0.914316 -0.467142
Cl4   Cl    Cl    0.201039 0.195368 0.954400 -0.518435
Cl5   Cl    Cl    0.742934 0.458303 0.764862 -0.515069
H1    H     H_    0.716367 0.700164 0.240747 0.165565
H2    H     H_    0.227161 0.874533 0.389067 0.208870
H3    H     H_    0.631344 0.059159 0.645402 0.183500
H4    H     H_    0.744197 0.926606 0.715247 0.209124
H5    H     H_    0.810393 0.695602 0.078429 0.204133
H6    H     H_    0.399365 0.496305 0.142609 0.145352
H7    H     H_    0.305347 0.289106 0.763614 0.191555
H8    H     H_    0.269404 0.246898 0.396058 0.191059
N1    N     N_R   0.440320 0.222190 0.444690 -0.152188
N2    N     N_R   0.559060 0.776980 0.554780 -0.168017
N3    N     N_1   0.739848 0.224505 0.495462 -0.158577
N4    N     N_1   0.333250 0.694031 0.309010 -0.210886
N5    N     N_1   0.346940 0.273130 0.195289 -0.162365
O1    O     O_R   0.471500 0.366730 0.627160 -0.606214
O2    O     O_R   0.509620 0.544830 0.662520 -0.565419
O3    O     O_R   0.646490 0.410960 0.482310 -0.613824
O4    O     O_R   0.684610 0.589050 0.517670 -0.550068
O5    O     O_R   0.490380 0.455170 0.337480 -0.602557
O6    O     O_R   0.528500 0.633270 0.372840 -0.621362
O7    O     O_R   0.315390 0.410950 0.482330 -0.624534
O8    O     O_R   0.353510 0.589040 0.517690 -0.617197
Zn1   Zn    Zn3+2 0.474550 0.381080 0.476390 0.980679
Zn2   Zn    Zn3+2 0.525450 0.618920 0.523610 1.020328

loop_
_geom_bond_atom_site_label_1
_geom_bond_atom_site_label_2
_ccdc_geom_bond_type
C10   H4    S    
C32   Cl4   S    
O1    Zn1   S    
C3    Cl5   S    
C34   C35   A    
C1    O2    A    
C22   O7    A    
C11   C13   A    
C9    C10   A    
C8    C17   A    
C3    C35   A    
O5    Zn1   S    
C23   C32   A    
C31   C33   S    
C2    C3    A    
C25   C26   S    
C19   C30   S    
C28   H5    S    
C13   C14   A    
O4    Zn2   S    
C6    C12   A    
C30   N4    T    
C2    C37   A    
C26   C27   T    
C15   C20   A    
C9    N2    A    
C8    Cl1   S    
C28   C37   A    
C4    C24   S    
C7    C23   A    
C4    O4    A    
C21   H8    S    
C1    O1    A    
C33   C34   A    
C20   N1    A    
C34   C36   A    
C20   C29   S    
C13   C15   A    
O3    Zn1   S    
C22   C27   S    
O8    Zn2   S    
C5    H6    S    
C6    C28   A    
C23   H7    S    
C11   H3    S    
C16   O6    A    
N1    Zn1   S    
C5    C36   A    
O6    Zn2   S    
C18   H2    S    
C21   N1    A    
C24   C25   T    
C5    C12   A    
C17   C18   A    
C18   C19   A    
C10   C11   A    
C4    O3    A    
C15   C17   A    
C6    H1    S    
C36   C37   A    
O7    Zn1   S    
C12   C16   S    
C31   N5    T    
C22   O8    A    
C1    C7    S    
C16   O5    A    
C7    C35   A    
C14   C19   A    
C9    Cl2   S    
C14   N2    A    
N2    Zn2   S    
C2    Cl3   S    
C32   C33   A    
O2    Zn2   S    
C29   N3    T    
C8    C21   A    
