data_mof_unit_46370.cif
_audit_creation_date              2012-10-26T18:26:38-0400
_audit_creation_method            fapswitch 2.2
_symmetry_space_group_name_H-M    P1
_symmetry_Int_Tables_number       1
_space_group_crystal_system       triclinic
_cell_length_a                    15.867334
_cell_length_b                    8.690386
_cell_length_c                    7.451868
_cell_angle_alpha                 102.996693
_cell_angle_beta                  94.016176
_cell_angle_gamma                 92.245933
_cell_volume                      997.183837635

loop_
_atom_site_label
_atom_site_type_symbol
_atom_type_description
_atom_site_fract_x
_atom_site_fract_y
_atom_site_fract_z
_atom_type_partial_charge
C1    C     C_R   0.497479 0.199739 0.453271 0.549332
C2    C     C_3   0.976599 0.644474 0.568691 0.239350
C3    C     C_1   0.250847 0.500938 0.507782 0.003324
C4    C     C_1   0.749153 0.499062 0.492218 0.003326
C5    C     C_3   0.032522 0.548137 0.672728 0.090021
C6    C     C_3   0.967478 0.451863 0.327271 0.090024
C7    C     C_3   0.083953 0.502101 0.503633 0.047008
C8    C     C_3   0.916047 0.497899 0.496367 0.047013
C9    C     C_1   0.175468 0.501583 0.507844 0.016631
C10   C     C_1   0.824532 0.498417 0.492156 0.016639
C11   C     C_R   0.502521 0.800261 0.546729 0.549332
C12   C     C_R   0.340085 0.499922 0.502573 0.549950
C13   C     C_R   0.659915 0.500078 0.497427 0.549950
C14   C     C_2   0.496271 0.031837 0.427020 -0.147266
C15   C     C_2   0.503729 0.968163 0.572980 -0.147266
C16   C     C_3   0.971963 0.399325 0.603212 -0.117319
C17   C     C_3   0.028036 0.600675 0.396787 -0.117320
C18   C     C_3   0.023401 0.355526 0.431309 0.239350
Cu1   Cu    Cu3+1 0.509330 0.517380 0.684380 0.982237
Cu2   Cu    Cu3+1 0.490670 0.482620 0.315620 0.982237
H1    H     H_    0.949493 0.317416 0.686774 0.131540
H2    H     H_    0.894307 0.292632 0.131245 0.235219
H3    H     H_    0.019253 0.634188 0.945196 0.257601
H4    H     H_    0.105710 0.707347 0.868745 0.235214
H5    H     H_    0.050507 0.682584 0.313225 0.131540
H6    H     H_    0.489238 0.960257 0.286347 0.137078
H7    H     H_    0.510762 0.039743 0.713653 0.137078
H8    H     H_    0.434462 0.377580 0.948764 0.244020
H9    H     H_    0.565538 0.622420 0.051236 0.244020
H10   H     H_    0.997198 0.134783 0.328525 0.326162
H11   H     H_    0.002802 0.865217 0.671485 0.326163
H12   H     H_    0.980748 0.365852 0.054796 0.257604
N1    N     N_2   0.476600 0.456420 0.038510 -0.254222
N2    N     N_2   0.523400 0.543580 0.961490 -0.254222
N3    N     N_3   0.930853 0.396718 0.137786 -0.613404
N4    N     N_3   0.069147 0.603282 0.862214 -0.613409
O1    O     O_R   0.506070 0.286130 0.619780 -0.507431
O2    O     O_3   0.950396 0.795378 0.644533 -0.683146
O3    O     O_R   0.493930 0.713870 0.380220 -0.507432
O4    O     O_R   0.490300 0.256770 0.308360 -0.496907
O5    O     O_R   0.509700 0.743230 0.691640 -0.496908
O6    O     O_R   0.386960 0.514660 0.655680 -0.500458
O7    O     O_R   0.613040 0.485340 0.344320 -0.500457
O8    O     O_R   0.371190 0.485310 0.344260 -0.489326
O9    O     O_R   0.628810 0.514690 0.655740 -0.489326
O10   O     O_3   0.049603 0.204622 0.355466 -0.683142

loop_
_geom_bond_atom_site_label_1
_geom_bond_atom_site_label_2
_ccdc_geom_bond_type
C11   O3    A    
Cu1   O9    S    
C16   H1    S    
C3    C9    T    
C1    C14   S    
C2    O2    S    
C15   H7    S    
Cu1   Cu2   S    
H11   O2    S    
C1    O1    A    
C7    C18   S    
C17   H5    S    
C5    N4    S    
N1    N2    D    
C8    C16   S    
C14   H6    S    
C2    C17   S    
C13   O9    A    
H2    N3    S    
Cu1   O6    S    
H4    N4    S    
C12   O6    A    
C6    C18   S    
Cu2   N1    S    
C18   O10   S    
C8    C10   S    
Cu2   O8    S    
H8    N1    S    
C11   O5    A    
Cu2   O4    S    
C2    C5    S    
C4    C10   T    
C6    C17   S    
H12   N3    S    
C7    C9    S    
C13   O7    A    
Cu2   O7    S    
C6    N3    S    
C16   C18   S    
H3    N4    S    
C4    C13   S    
C5    C7    S    
Cu2   O3    S    
C14   C15   D    
C12   O8    A    
C5    C16   S    
C6    C8    S    
C3    C12   S    
Cu1   O1    S    
C1    O4    A    
C11   C15   S    
H9    N2    S    
H10   O10   S    
C2    C8    S    
Cu1   O5    S    
C7    C17   S    
Cu1   N2    S    
