data_mof_unit_62439.cif
_audit_creation_date              2012-10-26T19:10:24-0400
_audit_creation_method            fapswitch 2.2
_symmetry_space_group_name_H-M    P1
_symmetry_Int_Tables_number       1
_space_group_crystal_system       triclinic
_cell_length_a                    10.984071
_cell_length_b                    9.586531
_cell_length_c                    19.400529
_cell_angle_alpha                 89.690148
_cell_angle_beta                  88.584704
_cell_angle_gamma                 89.952891
_cell_volume                      2042.20540434

loop_
_atom_site_label
_atom_site_type_symbol
_atom_type_description
_atom_site_fract_x
_atom_site_fract_y
_atom_site_fract_z
_atom_type_partial_charge
Br1   Br    Br    0.853456 0.720009 0.390870 -0.268417
Br2   Br    Br    0.871904 0.266746 0.599415 -0.359093
Br3   Br    Br    0.120319 0.774414 0.427913 -0.351825
Br4   Br    Br    0.167636 0.521359 0.346435 -0.287755
Br5   Br    Br    0.888069 0.426989 0.350218 -0.219028
Br6   Br    Br    0.689757 0.175414 0.393007 -0.249407
Br7   Br    Br    0.598076 0.878397 0.360939 -0.269179
Br8   Br    Br    0.386815 0.796270 0.136759 -0.284601
Br9   Br    Br    0.524108 0.217574 0.125104 -0.267950
Br10  Br    Br    0.136674 0.755560 0.592572 -0.372653
Br11  Br    Br    0.108650 0.228374 0.418559 -0.374749
Br12  Br    Br    0.831439 0.604500 0.640630 -0.330057
C1    C     C_R   0.260173 0.499855 0.500337 0.635164
C2    C     C_3   0.070440 0.342388 0.500995 0.322050
C3    C     C_3   0.927285 0.599756 0.554157 0.062342
C4    C     C_3   0.928705 0.348051 0.510807 0.062969
C5    C     C_3   0.076017 0.575342 0.430417 0.227746
C6    C     C_3   0.122122 0.499392 0.498709 0.034973
C7    C     C_3   0.878348 0.499696 0.497305 -0.092884
C8    C     C_R   0.492994 0.500053 0.367600 0.647300
C9    C     C_3   0.932911 0.552584 0.424828 0.219466
C10   C     C_3   0.617110 0.080558 0.472915 0.120590
C11   C     C_3   0.606135 0.917688 0.461042 0.117726
C12   C     C_R   0.454839 0.510735 0.071367 0.390374
C13   C     C_3   0.481081 0.080295 0.573380 0.498595
C14   C     C_3   0.501368 0.914176 0.573230 0.587928
C15   C     C_3   0.402088 0.082825 0.459034 -0.129506
C16   C     C_3   0.390446 0.918816 0.469139 -0.111558
C17   C     C_R   0.739726 0.499846 0.498279 0.626153
C18   C     C_R   0.496642 0.499875 0.632730 0.653481
C19   C     C_R   0.432557 0.621696 0.257628 0.255736
C20   C     C_R   0.490791 0.375943 0.252422 0.237807
C21   C     C_R   0.427542 0.625872 0.184924 0.139375
C22   C     C_R   0.484066 0.380299 0.179921 0.134194
C23   C     C_R   0.518365 0.619249 0.819741 0.190153
C24   C     C_R   0.455096 0.505721 0.146661 -0.011338
C25   C     C_R   0.475059 0.499987 0.291224 0.075058
C26   C     C_R   0.460867 0.507885 0.931894 0.425911
C27   C     C_R   0.416721 0.393771 0.819222 0.197890
C28   C     C_R   0.533490 0.613939 0.747227 0.191184
C29   C     C_R   0.428419 0.390234 0.746224 0.199120
C30   C     C_R   0.486140 0.501019 0.709837 0.059999
C31   C     C_R   0.465969 0.506001 0.855675 0.055840
C32   C     C_3   0.065700 0.574733 0.566074 0.318592
Cu1   Cu    Cu3+1 0.499860 0.642410 0.500030 1.149978
Cu2   Cu    Cu3+1 0.499860 0.357590 0.500030 1.076326
H1    H     H_    0.692097 0.096353 0.508853 0.089106
H2    H     H_    0.488900 0.172251 0.257383 0.388343
H3    H     H_    0.629213 0.181526 0.600858 0.353123
H4    H     H_    0.678993 0.936122 0.589257 0.305051
H5    H     H_    0.343542 0.205953 0.590986 0.417772
H6    H     H_    0.415871 0.880148 0.661218 0.385606
H7    H     H_    0.539680 0.819875 0.826941 0.358215
H8    H     H_    0.290787 0.252243 0.827932 0.365684
H9    H     H_    0.658752 0.757087 0.743231 0.380113
H10   H     H_    0.392458 0.193520 0.737152 0.376338
H11   H     H_    0.070794 0.539983 0.666640 0.391956
H12   H     H_    0.691781 0.869123 0.477828 0.171679
H13   H     H_    0.101064 0.168878 0.552125 0.387061
H14   H     H_    0.314044 0.130149 0.473514 0.207326
H15   H     H_    0.308368 0.897975 0.501777 0.233465
H16   H     H_    0.418230 0.108350 0.403602 0.218625
H17   H     H_    0.372152 0.868281 0.419273 0.226229
H18   H     H_    0.916020 0.707970 0.534519 0.180904
H19   H     H_    0.888313 0.276107 0.473344 0.200805
H20   H     H_    0.340815 0.795604 0.269735 0.390634
N1    N     N_R   0.360761 0.456184 0.036503 -0.135365
N2    N     N_R   0.551928 0.563610 0.035733 -0.132338
N3    N     N_R   0.363591 0.455204 0.967881 -0.114757
N4    N     N_R   0.554795 0.562205 0.967198 -0.108469
N5    N     N_3   0.500250 0.143650 0.501520 -0.329966
N6    N     N_3   0.500250 0.856350 0.501520 -0.286073
O1    O     O_R   0.317570 0.620260 0.500040 -0.472321
O2    O     O_3   0.511324 0.251957 0.286536 -0.599634
O3    O     O_3   0.558074 0.136643 0.623291 -0.614262
O4    O     O_3   0.611213 0.875112 0.604766 -0.582175
O5    O     O_3   0.360263 0.105533 0.596578 -0.608434
O6    O     O_3   0.405331 0.853403 0.612311 -0.551849
O7    O     O_3   0.550038 0.736335 0.856529 -0.629137
O8    O     O_3   0.357426 0.289224 0.856027 -0.630907
O9    O     O_3   0.598377 0.715693 0.712237 -0.598283
O10   O     O_3   0.383250 0.280067 0.709628 -0.621390
O11   O     O_3   0.081358 0.485938 0.623487 -0.553805
O12   O     O_R   0.317570 0.379740 0.500040 -0.503774
O13   O     O_3   0.122348 0.269064 0.556302 -0.568223
O14   O     O_R   0.499870 0.620300 0.400170 -0.437270
O15   O     O_R   0.499870 0.379700 0.400170 -0.437966
O16   O     O_R   0.682190 0.620260 0.500020 -0.477887
O17   O     O_R   0.682190 0.379740 0.500020 -0.492613
O18   O     O_R   0.499890 0.620220 0.599880 -0.385304
O19   O     O_R   0.499890 0.379780 0.599880 -0.475181
O20   O     O_3   0.390021 0.731124 0.297515 -0.614671

loop_
_geom_bond_atom_site_label_1
_geom_bond_atom_site_label_2
_ccdc_geom_bond_type
C11   H12   S    
C26   N4    A    
Br1   C9    S    
C14   N6    S    
C29   C30   A    
C2    C6    S    
C18   O18   A    
C32   O11   S    
C23   C31   A    
C17   O17   A    
Cu1   O14   S    
C27   C29   A    
Cu2   O17   S    
Cu1   Cu2   S    
C3    C7    S    
C1    O12   A    
C12   C24   S    
C1    C6    S    
C13   O5    S    
H7    O7    S    
C3    C32   S    
C6    C32   S    
C15   H14   S    
C20   O2    S    
Br11  C2    S    
Br6   C10   S    
C8    O15   A    
C21   C24   A    
Cu1   O1    S    
C17   O16   A    
C12   N1    A    
C8    O14   A    
C14   O4    S    
C3    H18   S    
H3    O3    S    
C13   N5    S    
H9    O9    S    
Br2   C4    S    
C16   H15   S    
C28   C30   A    
C10   H1    S    
C26   N3    A    
Cu1   N6    S    
C16   N6    S    
H6    O6    S    
C28   O9    S    
H8    O8    S    
Br10  C32   S    
H2    O2    S    
Cu1   O16   S    
H11   O11   S    
H20   O20   S    
Cu2   O19   S    
C13   C14   S    
C5    C9    S    
C19   C25   A    
C13   O3    S    
C20   C22   A    
H13   O13   S    
C15   H16   S    
H4    O4    S    
Br12  C3    S    
C19   C21   A    
C5    C6    S    
C14   O6    S    
C20   C25   A    
Cu1   O18   S    
Cu2   N5    S    
Cu2   O12   S    
Br4   C5    S    
C1    O1    A    
Br9   C22   S    
C2    C4    S    
C7    C17   S    
C10   N5    S    
C15   N5    S    
Cu2   O15   S    
C7    C9    S    
C11   N6    S    
C2    O13   S    
C18   O19   A    
C27   C31   A    
H10   O10   S    
C27   O8    S    
C23   C28   A    
C26   C31   S    
C8    C25   S    
H5    O5    S    
C4    C7    S    
Br7   C11   S    
C29   O10   S    
C23   O7    S    
Br3   C5    S    
C22   C24   A    
Br8   C21   S    
C12   N2    A    
C16   H17   S    
Br5   C9    S    
N2    N4    A    
C19   O20   S    
C15   C16   S    
C10   C11   S    
C18   C30   S    
C4    H19   S    
N1    N3    A    
