data_mof_unit_37957.cif
_audit_creation_date              2012-10-26T18:25:42-0400
_audit_creation_method            fapswitch 2.2
_symmetry_space_group_name_H-M    P1
_symmetry_Int_Tables_number       1
_space_group_crystal_system       triclinic
_cell_length_a                    7.451639
_cell_length_b                    8.684389
_cell_length_c                    11.179237
_cell_angle_alpha                 88.637499
_cell_angle_beta                  73.24142
_cell_angle_gamma                 102.804142
_cell_volume                      672.505036586

loop_
_atom_site_label
_atom_site_type_symbol
_atom_type_description
_atom_site_fract_x
_atom_site_fract_y
_atom_site_fract_z
_atom_type_partial_charge
C1    C     C_R   0.452080 0.199618 0.503861 0.551414
C2    C     C_2   0.574884 0.968284 0.494187 -0.160886
C3    C     C_3   0.135004 0.375725 0.171804 -0.269992
C4    C     C_3   0.865007 0.624239 0.828206 -0.270003
C5    C     C_R   0.547920 0.800381 0.496139 0.551415
C6    C     C_R   0.424957 0.490225 0.741210 0.547717
C7    C     C_R   0.575042 0.509772 0.258790 0.547721
C8    C     C_2   0.387592 0.489869 0.875150 -0.097621
C9    C     C_2   0.612407 0.510125 0.124850 -0.097621
C10   C     C_2   0.524593 0.492506 0.932306 0.130142
C11   C     C_2   0.475407 0.507482 0.067694 0.130135
C12   C     C_2   0.425116 0.031715 0.505813 -0.160886
Cu1   Cu    Cu3+1 0.688910 0.517800 0.485820 0.924555
Cu2   Cu    Cu3+1 0.311090 0.482200 0.514180 0.924554
H1    H     H_    0.757707 0.504693 0.072497 0.106106
H2    H     H_    0.006901 0.390635 0.145461 0.144766
H3    H     H_    0.729270 0.386127 0.810888 0.258854
H4    H     H_    0.908099 0.652149 0.725072 0.189558
H5    H     H_    0.993114 0.609298 0.854529 0.144779
H6    H     H_    0.816479 0.726118 0.874492 0.133536
H7    H     H_    0.242295 0.495308 0.927503 0.106103
H8    H     H_    0.280762 0.959930 0.516860 0.127553
H9    H     H_    0.719238 0.040070 0.483139 0.127552
H10   H     H_    0.916969 0.370710 0.595742 0.233993
H11   H     H_    0.083031 0.629289 0.404258 0.233992
H12   H     H_    0.270712 0.613851 0.189107 0.258853
H13   H     H_    0.091893 0.347841 0.274942 0.189556
H14   H     H_    0.183561 0.273843 0.125542 0.133545
N1    N     N_2   0.027170 0.455360 0.535550 -0.275777
N2    N     N_2   0.972830 0.544640 0.464450 -0.275777
N3    N     N_2   0.284940 0.521437 0.133744 -0.529301
N4    N     N_2   0.715054 0.478536 0.866257 -0.529301
O1    O     O_R   0.622710 0.286400 0.490790 -0.509609
O2    O     O_R   0.377290 0.713600 0.509210 -0.509607
O3    O     O_R   0.303660 0.256330 0.514730 -0.499777
O4    O     O_R   0.696340 0.743670 0.485270 -0.499776
O5    O     O_R   0.600900 0.509520 0.671740 -0.492876
O6    O     O_R   0.399100 0.490480 0.328260 -0.492876
O7    O     O_R   0.281840 0.479450 0.695690 -0.512358
O8    O     O_R   0.718160 0.520550 0.304310 -0.512354

loop_
_geom_bond_atom_site_label_1
_geom_bond_atom_site_label_2
_ccdc_geom_bond_type
Cu2   O2    S    
C7    O8    A    
Cu1   O1    S    
N1    N2    D    
C12   H8    S    
Cu2   O6    S    
Cu1   O5    S    
C11   N3    S    
C2    C12   D    
C5    O2    A    
C3    H13   S    
C8    H7    S    
C9    H1    S    
C6    O5    A    
C4    H4    S    
H12   N3    S    
Cu1   Cu2   S    
C3    N3    S    
C9    C11   D    
C4    N4    S    
C1    C12   S    
C3    H14   S    
C7    O6    A    
C2    C5    S    
C10   C11   S    
Cu2   N1    S    
C1    O1    A    
C4    H6    S    
C5    O4    A    
C10   N4    S    
Cu1   N2    S    
Cu2   O3    S    
C1    O3    A    
Cu1   O4    S    
C8    C10   D    
C2    H9    S    
C7    C9    S    
H3    N4    S    
H10   N1    S    
H11   N2    S    
Cu1   O8    S    
C6    C8    S    
Cu2   O7    S    
C6    O7    A    
C4    H5    S    
C3    H2    S    
