data_mof_unit_25090.cif
_audit_creation_date              2012-12-10T19:24:02-0500
_audit_creation_method            fapswitch 2.2
_symmetry_space_group_name_H-M    P1
_symmetry_Int_Tables_number       1
_space_group_crystal_system       triclinic
_cell_length_a                    10.483315
_cell_length_b                    10.475351
_cell_length_c                    9.798508
_cell_angle_alpha                 90.864501
_cell_angle_beta                  89.488504
_cell_angle_gamma                 89.941669
_cell_volume                      1075.870845

loop_
_atom_site_label
_atom_site_type_symbol
_atom_type_description
_atom_site_fract_x
_atom_site_fract_y
_atom_site_fract_z
_atom_type_partial_charge
C1    C     C_R   0.500344 0.257642 0.499025 0.852063
C2    C     C_R   0.499655 0.742358 0.500975 0.852063
C3    C     C_3   0.494429 0.962484 0.630663 -0.141235
C4    C     C_3   0.505571 0.037516 0.369337 -0.141235
C5    C     C_3   0.456586 0.395766 0.045372 0.337359
C6    C     C_3   0.543413 0.604234 0.954628 0.337359
C7    C     C_3   0.570604 0.407816 0.948733 -0.130829
C8    C     C_3   0.429396 0.592184 0.051267 -0.130829
C9    C     C_3   0.384918 0.485490 0.952000 -0.176549
C10   C     C_3   0.615082 0.514510 0.048000 -0.176549
C11   C     C_R   0.257632 0.499922 0.500610 0.848110
C12   C     C_R   0.742368 0.500078 0.499390 0.848110
C13   C     C_3   0.038812 0.499289 0.630474 -0.137983
C14   C     C_3   0.961188 0.500711 0.369526 -0.137983
C15   C     C_3   0.956934 0.394577 0.561904 -0.182999
C16   C     C_3   0.043066 0.605422 0.438096 -0.182999
C17   C     C_3   0.877577 0.500054 0.498176 0.039997
C18   C     C_3   0.122423 0.499946 0.501824 0.039997
C19   C     C_3   0.956746 0.604766 0.566580 -0.184977
C20   C     C_3   0.043254 0.395234 0.433420 -0.184977
C21   C     C_3   0.602326 0.043487 0.568047 -0.187546
C22   C     C_3   0.397673 0.956513 0.431953 -0.187545
C23   C     C_3   0.607417 0.955848 0.440022 -0.184102
C24   C     C_3   0.392583 0.044152 0.559978 -0.184103
C25   C     C_3   0.499559 0.877557 0.502522 0.040822
C26   C     C_3   0.500441 0.122443 0.497478 0.040822
H1    H     H_    0.916892 0.308873 0.611951 0.122628
H2    H     H_    0.083108 0.691127 0.388049 0.122628
H3    H     H_    0.074467 0.498689 0.736830 0.131747
H4    H     H_    0.925533 0.501311 0.263170 0.131747
H5    H     H_    0.916513 0.689911 0.620456 0.123965
H6    H     H_    0.083486 0.310088 0.379544 0.123965
H7    H     H_    0.694713 0.914863 0.391501 0.128670
H8    H     H_    0.305287 0.085137 0.608499 0.128670
H9    H     H_    0.685567 0.083825 0.623077 0.123969
H10   H     H_    0.314433 0.916175 0.376923 0.123969
H11   H     H_    0.489251 0.928227 0.737179 0.168463
H12   H     H_    0.510749 0.071773 0.262821 0.168463
H13   H     H_    0.628740 0.330269 0.900984 0.128750
H14   H     H_    0.371259 0.669731 0.099016 0.128750
H15   H     H_    0.288940 0.471149 0.907363 0.131390
H16   H     H_    0.711060 0.528850 0.092637 0.131390
N1    N     N_3   0.499910 0.500030 0.863290 -0.106852
N2    N     N_3   0.500090 0.499970 0.136710 -0.106852
O1    O     O_R   0.500010 0.313960 0.616610 -0.619300
O2    O     O_R   0.499990 0.686040 0.383390 -0.619300
O3    O     O_R   0.500060 0.313950 0.383350 -0.615854
O4    O     O_R   0.499940 0.686050 0.616650 -0.615854
O5    O     O_R   0.313930 0.499970 0.616610 -0.624593
O6    O     O_R   0.686070 0.500030 0.383390 -0.624593
O7    O     O_R   0.313980 0.499960 0.383350 -0.631035
O8    O     O_R   0.686020 0.500040 0.616650 -0.631035
Zn1   Zn    Zn3+2 0.499970 0.500010 0.655740 0.934258
Zn2   Zn    Zn3+2 0.500030 0.499990 0.344260 0.934258
N3    N     N_2   0.406277 0.279093 0.101530 -0.291434
H17   H     H_    0.330709 0.294988 0.167689 0.236099
C27   C     C_3   0.382045 0.178505 0.002512 -0.866825
H18   H     H_    0.347030 0.092343 0.055757 0.237501
H19   H     H_    0.471224 0.152544 0.946616 0.254050
H20   H     H_    0.308572 0.209318 0.928829 0.242270
N4    N     N_2   0.593723 0.720907 0.898470 -0.291434
H21   H     H_    0.669291 0.705011 0.832311 0.236099
C28   C     C_3   0.617954 0.821495 0.997488 -0.866825
H22   H     H_    0.652970 0.907657 0.944243 0.237501
H23   H     H_    0.691427 0.790682 0.071171 0.242270
H24   H     H_    0.528776 0.847456 0.053384 0.254050

loop_
_geom_bond_atom_site_label_1
_geom_bond_atom_site_label_2
_ccdc_geom_bond_type
C16   H2    S    
C7    C10   S    
C21   C26   S    
C28   H23   S    
C11   C18   S    
C10   H16   S    
N3    H17   S    
C19   H5    S    
C2    O2    A    
O6    Zn2   S    
C13   C18   S    
C6    N4    S    
C13   H3    S    
C24   C26   S    
C27   H19   S    
N4    C28   S    
N1    Zn1   S    
C8    C9    S    
C23   H7    S    
C22   C25   S    
C12   C17   S    
C7    N1    S    
C18   C20   S    
C28   H24   S    
O1    Zn1   S    
C14   C17   S    
C3    C24   S    
C15   C20   S    
C14   H4    S    
C12   O8    A    
C21   C23   S    
O4    Zn1   S    
C4    C26   S    
C9    N1    S    
C13   C19   S    
C10   N2    S    
C14   C20   S    
C3    C25   S    
C5    C7    S    
C4    C23   S    
C1    O3    A    
C27   H20   S    
C6    C8    S    
C2    O4    A    
C24   H8    S    
C5    C9    S    
C11   O5    A    
C4    C22   S    
C15   H1    S    
O2    Zn2   S    
O3    Zn2   S    
C5    N2    S    
C4    H12   S    
C6    N1    S    
C13   C15   S    
C1    C26   S    
C14   C16   S    
C3    C21   S    
O8    Zn1   S    
C20   H6    S    
C15   C17   S    
C5    N3    S    
C8    N2    S    
C6    C10   S    
C12   O6    A    
C21   H9    S    
C22   H10   S    
C9    H15   S    
O7    Zn2   S    
N3    C27   S    
C1    O1    A    
C27   H18   S    
C16   C19   S    
O5    Zn1   S    
C17   C19   S    
C2    C25   S    
C22   C24   S    
C23   C25   S    
N4    H21   S    
C11   O7    A    
C28   H22   S    
N2    Zn2   S    
C3    H11   S    
C16   C18   S    
C7    H13   S    
C8    H14   S    
