data_mof_unit_39685.cif
_audit_creation_date              2012-12-10T17:48:51-0500
_audit_creation_method            fapswitch 2.2
_symmetry_space_group_name_H-M    P1
_symmetry_Int_Tables_number       1
_space_group_crystal_system       triclinic
_cell_length_a                    10.72241
_cell_length_b                    14.716287
_cell_length_c                    14.739732
_cell_angle_alpha                 65.048973
_cell_angle_beta                  103.555974
_cell_angle_gamma                 102.977029
_cell_volume                      2029.07282212

loop_
_atom_site_label
_atom_site_type_symbol
_atom_type_description
_atom_site_fract_x
_atom_site_fract_y
_atom_site_fract_z
_atom_type_partial_charge
C1    C     C_R   0.479147 0.119652 0.312334 0.796559
C2    C     C_3   0.877775 0.998027 0.501036 0.058754
C3    C     C_3   0.959074 0.990295 0.605447 -0.347469
C4    C     C_3   0.931164 0.097317 0.417822 -0.500084
C5    C     C_R   0.476443 0.187184 0.205120 -0.053989
C6    C     C_R   0.540275 0.812666 0.795328 -0.057924
C7    C     C_R   0.474610 0.216328 0.030743 -0.126405
C8    C     C_R   0.466557 0.149608 0.130558 -0.228547
C9    C     C_R   0.492363 0.291635 0.178703 -0.197552
C10   C     C_R   0.507397 0.360699 0.079795 0.004289
C11   C     C_R   0.495356 0.321501 0.004633 0.029514
C12   C     C_R   0.259970 0.999895 0.500326 0.789821
C13   C     C_R   0.532474 0.467274 0.053633 0.065719
C14   C     C_R   0.531994 0.533535 0.950136 -0.025683
C15   C     C_R   0.522251 0.491522 0.877783 -0.268711
C16   C     C_R   0.505000 0.387626 0.904678 0.603419
C17   C     C_R   0.561031 0.509776 0.127677 -0.186920
C18   C     C_R   0.580876 0.613726 0.100633 -0.230094
C19   C     C_R   0.570492 0.679216 0.999126 0.165668
C20   C     C_R   0.543858 0.639868 0.922727 0.126186
C21   C     C_R   0.585724 0.784010 0.973143 -0.199896
C22   C     C_R   0.571705 0.850469 0.871781 -0.197642
C23   C     C_R   0.522753 0.880311 0.687703 0.798271
C24   C     C_R   0.525842 0.708270 0.821223 -0.227505
C25   C     C_R   0.719486 0.286553 0.665609 -0.228386
C26   C     C_R   0.685495 0.204832 0.636386 -0.063814
C27   C     C_R   0.517036 0.284394 0.509857 0.750598
C28   C     C_R   0.552326 0.373510 0.531628 -0.199246
C29   C     C_R   0.652532 0.370586 0.614663 -0.027870
C30   C     C_R   0.490971 0.463417 0.477051 0.090988
C31   C     C_R   0.521352 0.543412 0.513583 -0.024254
C32   C     C_R   0.617608 0.533885 0.599453 -0.254969
C33   C     C_R   0.683755 0.450582 0.647344 0.700303
C34   C     C_R   0.740009 0.999128 0.500709 0.781732
C35   C     C_R   0.404460 0.478331 0.385099 -0.150618
C36   C     C_R   0.339169 0.561989 0.336762 -0.228060
C37   C     C_R   0.361811 0.637201 0.374823 0.169042
C38   C     C_R   0.455595 0.630990 0.461919 0.011076
C39   C     C_R   0.294152 0.720637 0.324071 -0.311883
C40   C     C_R   0.321852 0.799128 0.357855 0.069494
C41   C     C_R   0.480347 0.714418 0.491611 0.032335
C42   C     C_3   0.036348 0.908281 0.478066 -0.386586
C43   C     C_3   0.893456 0.906732 0.479405 0.480111
C44   C     C_3   0.102829 0.989419 0.605663 -0.379936
C45   C     C_3   0.075611 0.098483 0.418434 -0.371718
C46   C     C_3   0.121795 0.999175 0.500676 0.058583
Cu1   Cu    Cu3+1 0.465900 0.918260 0.475680 0.953802
Cu2   Cu    Cu3+1 0.534100 0.081740 0.524320 0.983584
H1    H     H_    0.068771 0.835790 0.535311 0.218886
H2    H     H_    0.920431 0.164249 0.430740 0.210335
H3    H     H_    0.163489 0.053085 0.624489 0.190223
H4    H     H_    0.951096 0.055693 0.622062 0.168969
H5    H     H_    0.496564 0.681784 0.760596 0.153395
H6    H     H_    0.583653 0.931056 0.853356 0.159971
H7    H     H_    0.602709 0.642973 0.159791 0.146569
H8    H     H_    0.466238 0.185373 0.974309 0.188434
H9    H     H_    0.454152 0.068901 0.149487 0.155871
H10   H     H_    0.491260 0.317166 0.236932 0.167844
H11   H     H_    0.046824 0.913937 0.402364 0.125659
H12   H     H_    0.531856 0.537097 0.799633 0.169139
H13   H     H_    0.572851 0.465006 0.207947 0.139946
H14   H     H_    0.607613 0.814490 0.031332 0.136609
H15   H     H_    0.553226 0.718251 0.554415 0.154345
H16   H     H_    0.271847 0.864661 0.317441 0.125816
H17   H     H_    0.271991 0.568894 0.267336 0.149993
H18   H     H_    0.797539 0.283541 0.728194 0.208040
H19   H     H_    0.737279 0.140180 0.675630 0.150425
H20   H     H_    0.836419 0.911259 0.404384 0.077112
H21   H     H_    0.645883 0.590697 0.631161 0.173422
H22   H     H_    0.388385 0.428934 0.345485 0.204519
H23   H     H_    0.221901 0.725985 0.257516 0.142211
H24   H     H_    0.134310 0.917790 0.665523 0.169456
H25   H     H_    0.921667 0.920270 0.666784 0.198259
H26   H     H_    0.134034 0.164958 0.433331 0.229371
H27   H     H_    0.089536 0.107142 0.342549 0.162836
H28   H     H_    0.874855 0.103977 0.342061 0.160523
N1    N     N_R   0.585360 0.204570 0.560800 -0.210289
N2    N     N_R   0.414550 0.795430 0.439160 -0.185894
O1    O     O_R   0.455060 0.022100 0.338110 -0.600789
O2    O     O_R   0.512640 0.160150 0.379180 -0.541294
O3    O     O_R   0.288900 0.930980 0.479450 -0.597948
O4    O     O_R   0.346480 0.069030 0.520520 -0.524288
O5    O     O_R   0.487360 0.839850 0.620820 -0.585725
O6    O     O_R   0.544940 0.977900 0.661890 -0.592629
O7    O     O_R   0.653520 0.930970 0.479480 -0.553864
O8    O     O_R   0.711100 0.069020 0.520550 -0.600832
F1    F     F_    0.496814 0.351820 0.831930 -0.667989
F2    F     F_    0.777530 0.447416 0.728230 -0.650626
F3    F     F_    0.409506 0.271832 0.444416 -0.700165
F4    F     F_    0.847721 0.815849 0.552549 -0.669929

loop_
_geom_bond_atom_site_label_1
_geom_bond_atom_site_label_2
_ccdc_geom_bond_type
C15   H12   S    
C19   C20   A    
Cu1   O1    S    
C7    C8    A    
C22   H6    S    
C45   C46   S    
C7    C11   A    
C23   O5    A    
C30   C35   A    
C1    C5    S    
C26   H19   S    
Cu1   O7    S    
C28   C29   A    
C19   C21   A    
C33   F2    S    
C9    H10   S    
C42   C46   S    
C30   C31   A    
C15   C16   A    
C6    C22   A    
C29   C33   A    
C18   C19   A    
C34   O8    A    
C20   C24   A    
C17   H13   S    
Cu1   Cu2   S    
C35   H22   S    
C43   H20   S    
C16   F1    S    
C44   H24   S    
Cu1   O5    S    
C9    C10   A    
C2    C34   S    
C21   C22   A    
C7    H8    S    
C44   C46   S    
C4    C45   S    
C25   C29   A    
C3    C44   S    
C26   N1    A    
C23   O6    A    
C43   F4    S    
C14   C20   A    
C38   C41   A    
C12   C46   S    
C41   N2    A    
C36   H17   S    
C25   C26   A    
Cu2   O6    S    
C4    H2    S    
C45   H26   S    
C34   O7    A    
Cu2   N1    S    
C2    C4    S    
C5    C9    A    
C37   C38   A    
C8    H9    S    
C11   C16   A    
C31   C32   A    
C2    C43   S    
C6    C24   A    
C17   C18   A    
C12   O4    A    
C21   H14   S    
C18   H7    S    
C44   H3    S    
C1    O1    A    
C40   N2    A    
C42   C43   S    
C41   H15   S    
C39   C40   A    
C36   C37   A    
C25   H18   S    
C27   N1    A    
C10   C13   A    
C42   H11   S    
C5    C8    A    
C3    H4    S    
C32   H21   S    
C40   H16   S    
C31   C38   A    
C13   C17   A    
C45   H27   S    
C32   C33   A    
Cu2   O2    S    
C28   C30   A    
C2    C3    S    
C24   H5    S    
C37   C39   A    
C6    C23   S    
Cu2   O4    S    
C12   O3    A    
C27   F3    S    
Cu2   O8    S    
Cu1   O3    S    
C3    H25   S    
C4    H28   S    
C10   C11   A    
C42   H1    S    
C27   C28   A    
C1    O2    A    
C39   H23   S    
C14   C15   A    
C35   C36   A    
Cu1   N2    S    
C13   C14   A    
