data_mof_unit_51080.cif
_audit_creation_date              2012-12-11T14:11:05-0500
_audit_creation_method            fapswitch 2.2
_symmetry_space_group_name_H-M    P1
_symmetry_Int_Tables_number       1
_space_group_crystal_system       triclinic
_cell_length_a                    19.607579
_cell_length_b                    17.327608
_cell_length_c                    15.575647
_cell_angle_alpha                 90.000089
_cell_angle_beta                  53.171476
_cell_angle_gamma                 90.001035
_cell_volume                      4235.78296068

loop_
_atom_site_label
_atom_site_type_symbol
_atom_type_description
_atom_site_fract_x
_atom_site_fract_y
_atom_site_fract_z
_atom_type_partial_charge
C1    C     C_R   0.371915 0.195716 0.996684 -0.114853
C2    C     C_3   0.754949 0.781413 0.427572 -0.207072
C3    C     C_3   0.696992 0.251953 0.446228 -0.185722
C4    C     C_3   0.302916 0.748089 0.553787 -0.185696
C5    C     C_3   0.802969 0.751934 0.553785 -0.185735
C6    C     C_3   0.197131 0.248113 0.446191 -0.185733
C7    C     C_3   0.254854 0.718631 0.427611 -0.207060
C8    C     C_3   0.745023 0.281423 0.572433 -0.207081
C9    C     C_2   0.192287 0.742298 0.094305 -0.093748
C10   C     C_2   0.807768 0.257705 0.905597 -0.093793
C11   C     C_2   0.709653 0.686800 0.053263 -0.100372
C12   C     C_R   0.628025 0.804265 0.003399 -0.114910
C13   C     C_2   0.290295 0.313193 0.946836 -0.100319
C14   C     C_2   0.790358 0.186784 0.946748 -0.100381
C15   C     C_2   0.209689 0.813219 0.053143 -0.100349
C16   C     C_2   0.307570 0.242226 0.905856 -0.093888
C17   C     C_2   0.692319 0.757748 0.094304 -0.093864
C18   C     C_R   0.392137 0.803011 0.212200 0.159844
C19   C     C_R   0.607808 0.197005 0.787821 0.159853
C20   C     C_R   0.636389 0.815554 0.777741 0.214523
C21   C     C_R   0.363663 0.184478 0.222251 0.214470
C22   C     C_R   0.863595 0.315561 0.222262 0.214554
C23   C     C_R   0.663641 0.170514 0.945227 -0.105546
C24   C     C_R   0.136365 0.684463 0.777745 0.214540
C25   C     C_R   0.107864 0.303013 0.787799 0.159819
C26   C     C_R   0.892180 0.697000 0.212184 0.159820
C27   C     C_R   0.329619 0.909729 0.949660 0.222338
C28   C     C_R   0.670438 0.090251 0.050226 0.222307
C29   C     C_R   0.628403 0.886740 0.110087 0.237493
C30   C     C_R   0.371514 0.113239 0.890005 0.237166
C31   C     C_R   0.871620 0.386731 0.889888 0.237504
C32   C     C_R   0.128444 0.613256 0.110040 0.237218
C33   C     C_R   0.170402 0.409741 0.050299 0.222361
C34   C     C_R   0.336325 0.829538 0.054811 -0.105523
C35   C     C_R   0.829551 0.590244 0.949796 0.222323
C36   C     C_R   0.366046 0.087191 0.316904 -0.109024
C37   C     C_R   0.633998 0.912841 0.683096 -0.108905
C38   C     C_R   0.608104 0.102780 0.688856 -0.136535
C39   C     C_R   0.391804 0.897252 0.311180 -0.136426
C40   C     C_R   0.891872 0.602772 0.311153 -0.136533
C41   C     C_R   0.108202 0.397255 0.688817 -0.136438
C42   C     C_R   0.133972 0.587178 0.683097 -0.109030
C43   C     C_R   0.865993 0.412846 0.316903 -0.108921
C44   C     C_R   0.346263 0.185513 0.932972 0.044827
C45   C     C_R   0.836357 0.670503 0.054788 -0.105592
C46   C     C_R   0.653641 0.814460 0.067153 0.044778
C47   C     C_R   0.715255 0.146264 0.972032 0.031796
C48   C     C_R   0.284746 0.853775 0.027936 0.031745
C49   C     C_R   0.784741 0.646258 0.027988 0.031822
C50   C     C_R   0.215262 0.353783 0.972027 0.031790
C51   C     C_R   0.153667 0.685547 0.067111 0.044825
C52   C     C_R   0.846398 0.314441 0.932800 0.044780
C53   C     C_R   0.370448 0.822131 0.311028 0.057882
C54   C     C_R   0.629432 0.177910 0.689015 0.057933
C55   C     C_R   0.675511 0.846951 0.676539 0.008348
C56   C     C_R   0.163678 0.329554 0.945162 -0.105596
C57   C     C_R   0.324564 0.153096 0.323452 0.008436
C58   C     C_R   0.824470 0.346962 0.323462 0.008339
C59   C     C_R   0.175471 0.653075 0.676545 0.008412
C60   C     C_R   0.129559 0.322136 0.688970 0.057909
C61   C     C_R   0.870536 0.677899 0.310997 0.057939
C62   C     C_3   0.211037 0.157816 0.534184 -0.202287
C63   C     C_3   0.789074 0.842236 0.465788 -0.202260
C64   C     C_3   0.731674 0.191339 0.484004 -0.207404
C65   C     C_3   0.268221 0.808708 0.516033 -0.207339
C66   C     C_3   0.768283 0.691324 0.516007 -0.207411
C67   C     C_R   0.128034 0.695734 0.003375 -0.114842
C68   C     C_3   0.231817 0.308727 0.483965 -0.207353
C69   C     C_3   0.288987 0.657800 0.465804 -0.202286
C70   C     C_3   0.710903 0.342251 0.534218 -0.202274
C71   C     C_3   0.697491 0.746736 0.540587 0.296629
C72   C     C_3   0.302614 0.253321 0.459381 0.296653
C73   C     C_3   0.360610 0.713572 0.439819 0.313213
C74   C     C_3   0.639284 0.286473 0.560195 0.313187
C75   C     C_3   0.139423 0.213590 0.560154 0.313215
C76   C     C_3   0.860685 0.786454 0.439819 0.313189
C77   C     C_3   0.802474 0.246745 0.459419 0.296618
C78   C     C_R   0.872000 0.304255 0.996571 -0.114910
C79   C     C_3   0.197416 0.753305 0.540630 0.296632
C80   C     C_3   0.731873 0.806285 0.577903 0.030458
C81   C     C_3   0.268231 0.193770 0.422072 0.030406
C82   C     C_3   0.325716 0.773401 0.403538 0.037836
C83   C     C_3   0.674166 0.226649 0.596498 0.037866
C84   C     C_3   0.174307 0.273414 0.596456 0.037832
C85   C     C_3   0.825799 0.726634 0.403513 0.037868
C86   C     C_3   0.768096 0.306300 0.422103 0.030468
C87   C     C_3   0.231808 0.693747 0.577921 0.030408
C88   C     C_3   0.245162 0.218642 0.572396 -0.207053
H1    H     H_    0.203817 0.095085 0.552159 0.173063
H2    H     H_    0.735665 0.792362 0.374630 0.187090
H3    H     H_    0.678061 0.241374 0.392852 0.191559
H4    H     H_    0.321856 0.758663 0.607155 0.191622
H5    H     H_    0.821896 0.741351 0.607165 0.191548
H6    H     H_    0.178205 0.258693 0.392810 0.191593
H7    H     H_    0.235557 0.707693 0.374680 0.187087
H8    H     H_    0.764312 0.292369 0.625371 0.187076
H9    H     H_    0.220131 0.719997 0.131846 0.160333
H10   H     H_    0.779905 0.280023 0.868090 0.160351
H11   H     H_    0.678422 0.664176 0.020281 0.174840
H12   H     H_    0.796301 0.904967 0.447810 0.173067
H13   H     H_    0.321533 0.335819 0.979812 0.174778
H14   H     H_    0.821530 0.164177 0.979824 0.174820
H15   H     H_    0.178544 0.835821 0.020022 0.174746
H16   H     H_    0.279597 0.219867 0.868511 0.160334
H17   H     H_    0.720265 0.780103 0.131685 0.160353
H18   H     H_    0.379768 0.250408 0.020900 0.170819
H19   H     H_    0.620111 0.749563 0.979258 0.170856
H20   H     H_    0.677212 0.214702 0.888985 0.140507
H21   H     H_    0.322716 0.785376 0.111102 0.140470
H22   H     H_    0.822782 0.714679 0.111046 0.140512
H23   H     H_    0.740326 0.128946 0.463782 0.172781
H24   H     H_    0.177292 0.285413 0.888846 0.140471
H25   H     H_    0.120095 0.750432 0.979251 0.170837
H26   H     H_    0.879952 0.249553 0.020674 0.170863
H27   H     H_    0.357207 0.054299 0.381770 0.127440
H28   H     H_    0.642859 0.945749 0.618228 0.127422
H29   H     H_    0.608860 0.073532 0.627043 0.144950
H30   H     H_    0.391010 0.926505 0.373018 0.144911
H31   H     H_    0.891105 0.573523 0.372974 0.144946
H32   H     H_    0.109004 0.426509 0.626974 0.144911
H33   H     H_    0.142815 0.554286 0.618230 0.127434
H34   H     H_    0.259573 0.871100 0.536258 0.172788
H35   H     H_    0.857131 0.445754 0.381771 0.127421
H36   H     H_    0.759625 0.628931 0.536229 0.172774
H37   H     H_    0.240469 0.371120 0.463746 0.172774
H38   H     H_    0.296202 0.595069 0.447825 0.173060
H39   H     H_    0.703684 0.404982 0.552194 0.173059
H40   H     H_    0.264445 0.207699 0.625340 0.187104
I1    I     I_    0.418581 0.689423 0.148255 -0.338260
I2    I     I_    0.697184 0.068166 0.160594 -0.284200
I3    I     I_    0.580219 0.900799 0.273439 -0.326159
I4    I     I_    0.419536 0.099164 0.726734 -0.326143
I5    I     I_    0.919812 0.400817 0.726536 -0.326206
I6    I     I_    0.080402 0.599137 0.273315 -0.326217
I7    I     I_    0.196667 0.431283 0.161263 -0.284119
I8    I     I_    0.802743 0.568119 0.839490 -0.284174
I9    I     I_    0.567435 0.717161 0.613568 -0.273628
I10   I     I_    0.432671 0.282898 0.386393 -0.273779
I11   I     I_    0.490642 0.680954 0.358424 -0.293043
I12   I     I_    0.581320 0.310582 0.851807 -0.338229
I13   I     I_    0.509242 0.319056 0.641585 -0.293139
I14   I     I_    0.009393 0.180973 0.641518 -0.293078
I15   I     I_    0.990726 0.819035 0.358446 -0.293228
I16   I     I_    0.932526 0.217158 0.386438 -0.273679
I17   I     I_    0.067358 0.782887 0.613639 -0.273814
I18   I     I_    0.630842 0.695412 0.809635 -0.317393
I19   I     I_    0.369298 0.304618 0.190311 -0.317308
I20   I     I_    0.869108 0.195419 0.190384 -0.317445
I21   I     I_    0.130786 0.804605 0.809659 -0.317380
I22   I     I_    0.081421 0.189422 0.851741 -0.338337
I23   I     I_    0.918663 0.810583 0.148209 -0.338319
I24   I     I_    0.303498 0.931154 0.838524 -0.284121
N1    N     N_R   0.408680 0.130810 0.995780 -0.068337
N2    N     N_R   0.578590 0.132790 0.846380 -0.072452
N3    N     N_R   0.578590 0.867210 0.846380 -0.067428
N4    N     N_R   0.421410 0.132790 0.153620 -0.067446
N5    N     N_R   0.921410 0.367210 0.153620 -0.067428
N6    N     N_R   0.078590 0.632790 0.846380 -0.067445
N7    N     N_R   0.078590 0.367210 0.846380 -0.072463
N8    N     N_R   0.921410 0.632790 0.153620 -0.072454
N9    N     N_R   0.403840 0.921910 0.935760 -0.071682
N10   N     N_R   0.596160 0.078090 0.064240 -0.071683
N11   N     N_R   0.596160 0.921910 0.064240 -0.082614
N12   N     N_R   0.591320 0.869190 0.004220 -0.068342
N13   N     N_R   0.403840 0.078090 0.935760 -0.082619
N14   N     N_R   0.903840 0.421910 0.935760 -0.082608
N15   N     N_R   0.096160 0.578090 0.064240 -0.082610
N16   N     N_R   0.096160 0.421910 0.064240 -0.071674
N17   N     N_R   0.903840 0.578090 0.935760 -0.071678
N18   N     N_R   0.426250 0.076100 0.213650 -0.053608
N19   N     N_R   0.573750 0.923900 0.786350 -0.053583
N20   N     N_R   0.573750 0.076100 0.786350 -0.057811
N21   N     N_R   0.426250 0.923900 0.213650 -0.057806
N22   N     N_R   0.926250 0.576100 0.213650 -0.057806
N23   N     N_R   0.591320 0.130810 0.004220 -0.055857
N24   N     N_R   0.073750 0.423900 0.786350 -0.057803
N25   N     N_R   0.073750 0.576100 0.786350 -0.053603
N26   N     N_R   0.926250 0.423900 0.213650 -0.053582
N27   N     N_R   0.408680 0.869190 0.995780 -0.055831
N28   N     N_R   0.908680 0.630810 0.995780 -0.055857
N29   N     N_R   0.091320 0.369190 0.004220 -0.055829
N30   N     N_R   0.091320 0.630810 0.004220 -0.068348
N31   N     N_R   0.908680 0.369190 0.995780 -0.068346
N32   N     N_R   0.421410 0.867210 0.153620 -0.072463
Ni1   Ni    Ni4+2 0.500000 0.131570 0.000000 0.262675
Ni2   Ni    Ni4+2 0.500000 0.868430 0.000000 0.262695
Ni3   Ni    Ni4+2 1.000000 0.631570 0.000000 0.262654
Ni4   Ni    Ni4+2 1.000000 0.368430 0.000000 0.262681
Ni5   Ni    Ni4+2 0.488900 0.000000 0.862310 0.264089
Ni6   Ni    Ni4+2 0.511100 0.000000 0.137690 0.264059
Ni7   Ni    Ni4+2 0.988900 0.500000 0.862310 0.264067
Ni8   Ni    Ni4+2 0.011100 0.500000 0.137690 0.264095

loop_
_geom_bond_atom_site_label_1
_geom_bond_atom_site_label_2
_ccdc_geom_bond_type
C27   C48   A    
C70   H39   S    
C32   I6    S    
C28   C47   A    
C27   I24   S    
N25   Ni7   S    
C20   N3    A    
C8    C83   S    
C64   C77   S    
C29   N11   A    
C62   C81   S    
N11   N12   A    
C9    C51   S    
N5    Ni4   S    
C74   C83   S    
C39   N21   A    
C10   C52   S    
N6    Ni3   S    
C66   C85   S    
C79   C87   S    
C28   N10   A    
C6    C75   S    
C71   I9    S    
N27   Ni2   S    
C39   C53   A    
C3    C64   S    
N15   Ni8   S    
C65   C79   S    
C21   I19   S    
C3    H3    S    
C26   I23   S    
C67   N30   A    
N6    N25   A    
N14   Ni7   S    
N12   Ni2   S    
C4    C65   S    
C24   N6    A    
C75   C84   S    
C14   H14   S    
N15   N30   A    
C12   N12   A    
C56   N29   A    
C42   N25   A    
C62   H1    S    
N21   Ni6   S    
C8    C70   S    
N19   Ni5   S    
C2    C85   S    
C11   H11   S    
C78   N31   A    
C10   H10   S    
C3    C74   S    
C70   C74   S    
C71   C80   S    
C45   N28   A    
C38   H29   S    
C16   H16   S    
N21   N32   A    
C19   I12   S    
C6    H6    S    
C8    H8    S    
C35   C49   A    
N13   Ni5   S    
C26   N8    A    
C25   C60   A    
C18   N32   A    
N9    N27   A    
C69   H38   S    
C16   C44   S    
N17   N28   A    
C72   C81   S    
C18   C53   A    
C31   I5    S    
C1    H18   S    
N5    N26   A    
C20   I18   S    
C6    C68   S    
C6    C81   S    
C3    C86   S    
C30   C44   A    
C34   N27   A    
C78   H26   S    
C15   C48   S    
C20   C55   A    
C52   C78   A    
C58   C86   S    
C54   C83   S    
C72   C88   S    
N29   Ni4   S    
C63   C80   S    
N2    Ni1   S    
C23   C47   A    
C68   C84   S    
C17   C46   S    
C30   N13   A    
C79   I17   S    
C36   C57   A    
C10   C14   D    
C4    C87   S    
C25   N7    A    
N24   Ni7   S    
N10   N23   A    
C73   I11   S    
C33   C50   A    
N4    Ni1   S    
C62   C88   S    
C50   C56   A    
C40   C61   A    
C1    N1    A    
C25   I22   S    
C12   C46   A    
N7    Ni4   S    
C35   I8    S    
C43   N26   A    
C64   C83   S    
C21   C57   A    
C63   H12   S    
C11   C49   S    
N28   Ni3   S    
C17   H17   S    
N23   Ni1   S    
N26   Ni8   S    
C33   I7    S    
C1    C44   A    
C66   C71   S    
C38   C54   A    
C31   N14   A    
C45   C49   A    
C68   C72   S    
C40   H31   S    
N2    N20   A    
C51   C67   A    
C65   H34   S    
C5    C80   S    
C69   C73   S    
C4    C73   S    
C61   C85   S    
C19   C54   A    
N9    Ni5   S    
C74   I13   S    
C22   I20   S    
C77   C86   S    
N7    N24   A    
C8    C77   S    
C35   N17   A    
C66   H36   S    
C62   C75   S    
C13   C16   D    
C33   N16   A    
C34   C48   A    
N17   Ni7   S    
C13   H13   S    
C2    C71   S    
C70   C86   S    
C43   H35   S    
C73   C82   S    
N10   Ni6   S    
C2    C63   S    
C7    C79   S    
C22   C58   A    
C32   C51   A    
C19   N2    A    
C11   C17   D    
C9    H9    S    
N1    N13   A    
C45   H22   S    
N8    N22   A    
C26   C61   A    
N14   N31   A    
C84   C88   S    
C41   C60   A    
C5    C66   S    
C64   H23   S    
N3    Ni2   S    
C69   C87   S    
C42   C59   A    
C37   N19   A    
C12   H19   S    
C5    H5    S    
C38   N20   A    
C14   C47   S    
C22   N5    A    
C37   H28   S    
N20   Ni5   S    
C39   H30   S    
C7    H7    S    
N18   Ni6   S    
C36   N18   A    
N16   Ni8   S    
C31   C52   A    
C29   C46   A    
C5    C76   S    
C7    C69   S    
C9    C15   D    
C77   I16   S    
C88   H40   S    
N31   Ni4   S    
C27   N9    A    
C75   I14   S    
C40   N22   A    
C55   C80   S    
C60   C84   S    
C65   C82   S    
C29   I3    S    
N1    Ni1   S    
C24   C59   A    
C30   I4    S    
C23   H20   S    
C76   C85   S    
N4    N18   A    
C21   N4    A    
N32   Ni2   S    
N11   Ni6   S    
C28   I2    S    
N30   Ni3   S    
C41   H32   S    
C67   H25   S    
C72   I10   S    
C57   C81   S    
C59   C87   S    
C24   I21   S    
C41   N24   A    
C13   C50   S    
C37   C55   A    
C76   I15   S    
N3    N19   A    
C7    C82   S    
C23   N23   A    
C2    H2    S    
N16   N29   A    
C63   C76   S    
C32   N15   A    
C34   H21   S    
C43   C58   A    
C53   C82   S    
C18   I1    S    
N8    Ni3   S    
C15   H15   S    
C36   H27   S    
C68   H37   S    
C56   H24   S    
C42   H33   S    
N22   Ni8   S    
C4    H4    S    
