data_mof_unit_60791.cif
_audit_creation_date              2013-03-05T16:46:36-0500
_audit_creation_method            fapswitch 2.2
_symmetry_space_group_name_H-M    P1
_symmetry_Int_Tables_number       1
_space_group_crystal_system       triclinic
_cell_length_a                    26.458487
_cell_length_b                    33.005528
_cell_length_c                    21.167276
_cell_angle_alpha                 89.999842
_cell_angle_beta                  128.750128
_cell_angle_gamma                 90.000039
_cell_volume                      14416.0461528

loop_
_atom_site_label
_atom_site_type_symbol
_atom_site_description
_atom_site_fract_x
_atom_site_fract_y
_atom_site_fract_z
_atom_type_partial_charge
Zn1   Zn    Zn3+2 0.574840 0.281480 0.562930 1.017392
Zn2   Zn    Zn3+2 0.425160 0.718520 0.437070 1.017784
Zn3   Zn    Zn3+2 0.425160 0.281480 0.437070 1.017354
Zn4   Zn    Zn3+2 0.574840 0.718520 0.562930 1.017826
Zn5   Zn    Zn3+2 0.074840 0.781480 0.562930 1.017772
Zn6   Zn    Zn3+2 0.925160 0.218520 0.437070 1.017403
Zn7   Zn    Zn3+2 0.925160 0.781480 0.437070 1.017827
Zn8   Zn    Zn3+2 0.074840 0.218520 0.562930 1.017355
Zn9   Zn    Zn3+2 0.511910 0.218550 0.437070 1.041179
Zn10  Zn    Zn3+2 0.488090 0.781450 0.562930 1.045135
Zn11  Zn    Zn3+2 0.488090 0.218550 0.562930 1.041209
Zn12  Zn    Zn3+2 0.511910 0.781450 0.437070 1.045053
Zn13  Zn    Zn3+2 0.011910 0.718550 0.437070 1.045134
Zn14  Zn    Zn3+2 0.988090 0.281450 0.562930 1.041173
Zn15  Zn    Zn3+2 0.988090 0.718550 0.562930 1.045035
Zn16  Zn    Zn3+2 0.011910 0.281450 0.437070 1.041208
O1    O     O_3   0.500000 0.250010 0.500000 -0.471982
O2    O     O_3   0.500000 0.749990 0.500000 -0.471619
O3    O     O_3   1.000000 0.750010 0.500000 -0.471615
O4    O     O_3   0.000000 0.249990 0.500000 -0.471984
O5    O     O_R   0.491650 0.166000 0.544070 -0.614267
O6    O     O_R   0.508350 0.834000 0.455930 -0.614776
O7    O     O_R   0.508350 0.166000 0.455930 -0.614272
O8    O     O_R   0.491650 0.834000 0.544070 -0.614778
O9    O     O_R   0.991650 0.666000 0.544070 -0.614769
O10   O     O_R   0.008350 0.334000 0.455930 -0.614268
O11   O     O_R   0.008350 0.666000 0.455930 -0.614777
O12   O     O_R   0.991650 0.334000 0.544070 -0.614271
O13   O     O_R   0.552380 0.334020 0.544040 -0.622760
O14   O     O_R   0.447620 0.665980 0.455960 -0.623309
O15   O     O_R   0.447620 0.334020 0.455960 -0.622845
O16   O     O_R   0.552380 0.665980 0.544040 -0.623247
O17   O     O_R   0.052380 0.834020 0.544040 -0.623319
O18   O     O_R   0.947620 0.165980 0.455960 -0.622749
O19   O     O_R   0.947620 0.834020 0.455960 -0.623240
O20   O     O_R   0.052380 0.165980 0.544040 -0.622850
O21   O     O_R   0.593780 0.227990 0.455960 -0.576600
O22   O     O_R   0.406220 0.772010 0.544040 -0.580206
O23   O     O_R   0.406220 0.227990 0.544040 -0.576623
O24   O     O_R   0.593780 0.772010 0.455960 -0.580184
O25   O     O_R   0.093780 0.727990 0.455960 -0.580208
O26   O     O_R   0.906220 0.272010 0.544040 -0.576603
O27   O     O_R   0.906220 0.727990 0.544040 -0.580200
O28   O     O_R   0.093780 0.272010 0.455960 -0.576623
O29   O     O_R   0.362170 0.272040 0.455960 -0.666392
O30   O     O_R   0.637830 0.727960 0.544040 -0.665293
O31   O     O_R   0.637830 0.272040 0.544040 -0.666415
O32   O     O_R   0.362170 0.727960 0.455960 -0.665294
O33   O     O_R   0.862170 0.772040 0.455960 -0.665291
O34   O     O_R   0.137830 0.227960 0.544040 -0.666393
O35   O     O_R   0.137830 0.772040 0.544040 -0.665291
O36   O     O_R   0.862170 0.227960 0.455960 -0.666420
O37   O     O_R   0.446360 0.228000 0.332000 -0.621834
O38   O     O_R   0.553640 0.772000 0.668000 -0.620047
O39   O     O_R   0.553640 0.228000 0.668000 -0.621851
O40   O     O_R   0.446360 0.772000 0.332000 -0.620056
O41   O     O_R   0.946360 0.728000 0.332000 -0.620053
O42   O     O_R   0.053640 0.272000 0.668000 -0.621837
O43   O     O_R   0.053640 0.728000 0.668000 -0.620065
O44   O     O_R   0.946360 0.272000 0.332000 -0.621855
O45   O     O_R   0.385640 0.272040 0.331990 -0.613135
O46   O     O_R   0.614360 0.727960 0.668010 -0.618228
O47   O     O_R   0.614360 0.272040 0.668010 -0.613083
O48   O     O_R   0.385640 0.727960 0.331990 -0.618290
O49   O     O_R   0.885640 0.772040 0.331990 -0.618211
O50   O     O_R   0.114360 0.227960 0.668010 -0.613133
O51   O     O_R   0.114360 0.772040 0.668010 -0.618289
O52   O     O_R   0.885640 0.227960 0.331990 -0.613072
C1    C     C_R   0.500000 0.145596 0.500000 0.806705
C2    C     C_R   0.500000 0.854404 0.500000 0.808143
C3    C     C_R   1.000000 0.645596 0.500000 0.808145
C4    C     C_R   0.000000 0.354404 0.500000 0.806708
C5    C     C_R   0.500000 0.354446 0.500000 0.832843
C6    C     C_R   0.500001 0.645555 0.499999 0.835093
C7    C     C_R   0.999999 0.854445 0.500002 0.835043
C8    C     C_R   1.000000 0.145554 0.500000 0.832855
C9    C     C_R   0.641093 0.250182 0.499873 0.951891
C10   C     C_R   0.359036 0.749740 0.500344 0.976136
C11   C     C_R   0.358907 0.250183 0.500129 0.952020
C12   C     C_R   0.640964 0.749739 0.499656 0.975732
C13   C     C_R   0.140964 0.750261 0.499656 0.976122
C14   C     C_R   0.858906 0.249818 0.500126 0.951885
C15   C     C_R   0.859036 0.750261 0.500345 0.975640
C16   C     C_R   0.141092 0.249817 0.499871 0.952021
C17   C     C_R   0.395568 0.250036 0.291152 0.811019
C18   C     C_R   0.604425 0.749961 0.708848 0.812281
C19   C     C_R   0.604432 0.250036 0.708848 0.811054
C20   C     C_R   0.395574 0.749961 0.291152 0.812217
C21   C     C_R   0.895574 0.750039 0.291152 0.812284
C22   C     C_R   0.104432 0.249964 0.708848 0.811017
C23   C     C_R   0.104426 0.750039 0.708848 0.812208
C24   C     C_R   0.895568 0.249964 0.291152 0.811058
C25   C     C_1   0.649529 0.250053 0.798990 -0.125908
C26   C     C_1   0.350482 0.749947 0.201009 -0.131410
C27   C     C_1   0.350470 0.250053 0.201009 -0.125980
C28   C     C_1   0.649518 0.749947 0.798991 -0.131348
C29   C     C_1   0.149518 0.750053 0.798991 -0.131409
C30   C     C_1   0.850470 0.249947 0.201009 -0.125897
C31   C     C_1   0.850482 0.750053 0.201009 -0.131341
C32   C     C_1   0.149530 0.249947 0.798990 -0.125978
C33   C     C_1   0.686995 0.250044 0.873925 0.027188
C34   C     C_1   0.313017 0.749958 0.126075 0.023429
C35   C     C_1   0.313005 0.250044 0.126075 0.027135
C36   C     C_1   0.686983 0.749958 0.873925 0.023495
C37   C     C_1   0.186983 0.750042 0.873925 0.023427
C38   C     C_1   0.813005 0.249956 0.126075 0.027195
C39   C     C_1   0.813017 0.750042 0.126075 0.023500
C40   C     C_1   0.186995 0.249956 0.873925 0.027136
C41   C     C_1   0.731278 0.250015 0.962533 0.038953
C42   C     C_1   0.268726 0.749986 0.037466 0.036224
C43   C     C_1   0.268722 0.250015 0.037466 0.038913
C44   C     C_1   0.731274 0.749986 0.962533 0.036280
C45   C     C_1   0.231274 0.750014 0.962533 0.036224
C46   C     C_1   0.768722 0.249985 0.037467 0.038955
C47   C     C_1   0.768726 0.750014 0.037466 0.036282
C48   C     C_1   0.231278 0.249985 0.962533 0.038913
C49   C     C_1   0.500003 0.399505 0.499999 -0.055322
C50   C     C_1   0.500004 0.600500 0.499995 -0.121929
C51   C     C_1   0.999996 0.899500 0.500007 -0.121818
C52   C     C_1   0.999997 0.100495 0.500002 -0.055282
C53   C     C_1   0.500006 0.436972 0.499999 0.073747
C54   C     C_1   0.500008 0.563031 0.499996 0.082321
C55   C     C_1   0.999992 0.936968 0.500007 0.082351
C56   C     C_1   0.999993 0.063028 0.500002 0.073731
C57   C     C_1   0.500010 0.481265 0.499999 0.123053
C58   C     C_1   0.500011 0.518728 0.499998 0.172135
C59   C     C_1   0.999988 0.981272 0.500004 0.172029
C60   C     C_1   0.999989 0.018735 0.500003 0.122990
C61   C     C_R   0.337844 0.384467 0.476698 0.257653
C62   C     C_R   0.631461 0.617463 0.468267 0.252451
C63   C     C_R   0.662322 0.384456 0.523628 0.257681
C64   C     C_R   0.368885 0.617531 0.532231 0.252443
C65   C     C_R   0.868462 0.882558 0.531632 0.252440
C66   C     C_R   0.162162 0.115533 0.523318 0.257656
C67   C     C_R   0.131132 0.882474 0.467791 0.252442
C68   C     C_R   0.837651 0.115547 0.476309 0.257690
C69   C     C_R   0.324109 0.350178 0.504018 0.422352
C70   C     C_R   0.650242 0.655069 0.456317 0.414316
C71   C     C_R   0.676042 0.350194 0.496229 0.422403
C72   C     C_R   0.350044 0.655154 0.544036 0.414218
C73   C     C_R   0.849697 0.844956 0.543622 0.414323
C74   C     C_R   0.175896 0.149821 0.495993 0.422351
C75   C     C_R   0.149968 0.844851 0.455978 0.414218
C76   C     C_R   0.823935 0.149802 0.503727 0.422391
C77   C     C_R   0.277197 0.322070 0.447525 -0.089370
C78   C     C_R   0.707498 0.673974 0.521666 -0.090463
C79   C     C_R   0.722890 0.322039 0.552651 -0.089353
C80   C     C_R   0.292662 0.673946 0.478667 -0.090448
C81   C     C_R   0.792474 0.826021 0.478279 -0.090498
C82   C     C_R   0.222806 0.177931 0.552482 -0.089371
C83   C     C_R   0.207344 0.826053 0.521344 -0.090455
C84   C     C_R   0.777095 0.177966 0.447321 -0.089354
C85   C     C_R   0.243501 0.328048 0.364692 -0.247605
C86   C     C_R   0.746182 0.655595 0.597887 -0.253241
C87   C     C_R   0.756546 0.327945 0.635495 -0.247624
C88   C     C_R   0.253908 0.655432 0.402580 -0.253224
C89   C     C_R   0.753808 0.844363 0.402022 -0.253193
C90   C     C_R   0.256502 0.171956 0.635316 -0.247597
C91   C     C_R   0.246095 0.844559 0.597440 -0.253206
C92   C     C_R   0.743442 0.172073 0.364475 -0.247592
H1    H     H_    0.207214 0.306236 0.321667 0.210531
H2    H     H_    0.790579 0.670249 0.647698 0.219285
H3    H     H_    0.792782 0.306096 0.678466 0.210485
H4    H     H_    0.209412 0.669997 0.352758 0.219418
H5    H     H_    0.709439 0.829684 0.352214 0.219243
H6    H     H_    0.292787 0.193770 0.678338 0.210530
H7    H     H_    0.290585 0.829990 0.647261 0.219410
H8    H     H_    0.707211 0.193928 0.321517 0.210481
C93   C     C_R   0.255874 0.361602 0.336248 0.403507
C94   C     C_R   0.730197 0.617819 0.610335 0.398168
C95   C     C_R   0.744179 0.361467 0.664014 0.403543
C96   C     C_R   0.269947 0.617631 0.390300 0.398091
C97   C     C_R   0.769781 0.882132 0.389527 0.398200
C98   C     C_R   0.244129 0.138404 0.663764 0.403508
C99   C     C_R   0.230059 0.882358 0.609730 0.398098
C100  C     C_R   0.755807 0.138559 0.335937 0.403548
C101  C     C_R   0.303729 0.390037 0.392230 0.103619
C102  C     C_R   0.672216 0.598373 0.545536 0.098373
C103  C     C_R   0.696382 0.389946 0.608101 0.103721
C104  C     C_R   0.328059 0.598303 0.455110 0.098330
C105  C     C_R   0.827726 0.901609 0.454323 0.098383
C106  C     C_R   0.196276 0.109967 0.607786 0.103624
C107  C     C_R   0.171954 0.901694 0.544921 0.098324
C108  C     C_R   0.803598 0.110073 0.391833 0.103747
C109  C     C_R   0.210358 0.284876 0.475338 0.406436
C110  C     C_R   0.782578 0.713509 0.510282 0.384044
C111  C     C_R   0.789683 0.284862 0.524745 0.406551
C112  C     C_R   0.217514 0.713498 0.489907 0.383642
C113  C     C_R   0.717414 0.786490 0.489703 0.384109
C114  C     C_R   0.289642 0.215124 0.524663 0.406439
C115  C     C_R   0.282487 0.786502 0.510096 0.383654
C116  C     C_R   0.710316 0.215139 0.475252 0.406561
C117  C     C_R   0.196856 0.249612 0.499935 -0.165994
C118  C     C_R   0.803519 0.750525 0.500737 -0.144284
C119  C     C_R   0.803141 0.249613 0.500058 -0.166138
C120  C     C_R   0.196476 0.750526 0.499253 -0.144032
C121  C     C_R   0.696478 0.749475 0.499256 -0.144241
C122  C     C_R   0.303144 0.250388 0.500065 -0.165990
C123  C     C_R   0.303524 0.749474 0.500748 -0.144021
C124  C     C_R   0.696858 0.250387 0.499939 -0.166122
C125  C     C_R   0.236574 0.214773 0.525226 -0.052625
C126  C     C_R   0.770878 0.787083 0.489686 -0.052579
C127  C     C_R   0.763380 0.214789 0.474682 -0.052621
C128  C     C_R   0.229022 0.787098 0.510112 -0.052558
C129  C     C_R   0.729112 0.712916 0.510294 -0.052595
C130  C     C_R   0.263427 0.285227 0.474775 -0.052627
C131  C     C_R   0.270979 0.712902 0.489891 -0.052560
C132  C     C_R   0.736617 0.285212 0.525311 -0.052627
C133  C     C_1   0.500000 0.100519 0.500000 -0.129238
C134  C     C_1   0.500000 0.899481 0.500000 -0.128868
C135  C     C_1   1.000000 0.600519 0.500000 -0.128872
C136  C     C_1   0.000000 0.399481 0.500000 -0.129238
C137  C     C_1   0.500000 0.063045 0.500000 0.022151
C138  C     C_1   0.500000 0.936955 0.500000 0.021991
C139  C     C_1   0.000000 0.563045 0.500000 0.021991
C140  C     C_1   0.000000 0.436955 0.500000 0.022151
C141  C     C_1   0.500000 0.018736 0.500000 0.035491
C142  C     C_1   0.500000 0.981263 0.500000 0.035426
C143  C     C_1   0.000000 0.518737 0.500000 0.035426
C144  C     C_1   0.000000 0.481264 0.500000 0.035490
N1    N     N_R   0.317978 0.424002 0.363579 0.185002
O53   O     O_R   0.301245 0.460325 0.367827 -0.299245
O54   O     O_R   0.343689 0.418359 0.328273 -0.370097
N2    N     N_R   0.655329 0.559462 0.557770 0.192045
O55   O     O_R   0.645672 0.528841 0.512655 -0.334598
O56   O     O_R   0.651740 0.554189 0.615785 -0.354204
N3    N     N_R   0.682119 0.423867 0.636825 0.184978
O57   O     O_R   0.698964 0.460201 0.632820 -0.299219
O58   O     O_R   0.656285 0.418168 0.671968 -0.370042
N4    N     N_R   0.345012 0.559375 0.443034 0.192081
O59   O     O_R   0.354946 0.528836 0.488459 -0.334722
O60   O     O_R   0.348361 0.553997 0.384840 -0.353982
N5    N     N_R   0.844595 0.940514 0.442044 0.192030
O61   O     O_R   0.854160 0.971161 0.487060 -0.334533
O62   O     O_R   0.848261 0.945756 0.384087 -0.354306
N6    N     N_R   0.182026 0.076005 0.636441 0.185001
O63   O     O_R   0.198762 0.039681 0.632203 -0.299241
O64   O     O_R   0.156315 0.081652 0.671746 -0.370099
N7    N     N_R   0.155005 0.940620 0.557007 0.192081
O65   O     O_R   0.145091 0.971165 0.511603 -0.334697
O66   O     O_R   0.151641 0.945992 0.615190 -0.354009
N8    N     N_R   0.817865 0.076163 0.363091 0.184969
O67   O     O_R   0.801000 0.039826 0.367045 -0.299210
O68   O     O_R   0.843708 0.081878 0.327964 -0.370025
O69   O     O_3   0.385240 0.411171 0.533935 -0.741186
H9    H     H_    0.392374 0.432554 0.507617 0.388543
O70   O     O_3   0.573234 0.600638 0.403749 -0.746569
H10   H     H_    0.560235 0.578951 0.423140 0.374726
O71   O     O_3   0.614991 0.411208 0.466457 -0.741319
H11   H     H_    0.607886 0.432580 0.492823 0.388514
O72   O     O_3   0.427234 0.600824 0.596740 -0.746556
H12   H     H_    0.440231 0.579116 0.577385 0.374764
O73   O     O_3   0.926654 0.899415 0.596152 -0.746560
H13   H     H_    0.939650 0.921100 0.576753 0.374728
O74   O     O_3   0.114769 0.088828 0.466084 -0.741186
H14   H     H_    0.107636 0.067445 0.492405 0.388545
O75   O     O_3   0.072790 0.899187 0.403283 -0.746543
H15   H     H_    0.059793 0.920895 0.422640 0.374770
O76   O     O_3   0.884974 0.088786 0.533464 -0.741357
H16   H     H_    0.892065 0.067414 0.507085 0.388505
O77   O     O_3   0.355893 0.342849 0.585292 -0.747641
H17   H     H_    0.387480 0.364717 0.618570 0.393251
O78   O     O_3   0.613830 0.674368 0.381913 -0.757872
H18   H     H_    0.575401 0.657841 0.341049 0.389669
O79   O     O_3   0.644300 0.342938 0.414943 -0.747602
H19   H     H_    0.612756 0.364833 0.381719 0.393241
O80   O     O_3   0.386518 0.674579 0.618312 -0.758007
H20   H     H_    0.425039 0.658124 0.659204 0.389621
O81   O     O_3   0.886094 0.825689 0.618059 -0.757817
H21   H     H_    0.924498 0.842237 0.658916 0.389686
O82   O     O_3   0.144113 0.157146 0.414718 -0.747639
H22   H     H_    0.112529 0.135277 0.381443 0.393253
O83   O     O_3   0.113497 0.825434 0.381694 -0.757996
H23   H     H_    0.074981 0.841893 0.340804 0.389626
O84   O     O_3   0.855675 0.157045 0.585017 -0.747600
H24   H     H_    0.887214 0.135145 0.618229 0.393240
O85   O     O_3   0.219557 0.365489 0.253343 -0.706967
H25   H     H_    0.227087 0.392401 0.240083 0.386027
O86   O     O_3   0.773651 0.600659 0.686111 -0.694093
H26   H     H_    0.765235 0.571253 0.682960 0.393869
O87   O     O_3   0.780437 0.365276 0.746924 -0.707021
H27   H     H_    0.772905 0.392166 0.760255 0.386004
O88   O     O_3   0.226419 0.600330 0.314683 -0.693960
H28   H     H_    0.234896 0.570923 0.318042 0.393912
O89   O     O_3   0.726348 0.899251 0.313706 -0.694139
H29   H     H_    0.734754 0.928655 0.316794 0.393864
O90   O     O_3   0.280445 0.134521 0.746670 -0.706967
H30   H     H_    0.272916 0.107609 0.759933 0.386026
O91   O     O_3   0.273583 0.899651 0.685357 -0.693972
H31   H     H_    0.265108 0.929057 0.682012 0.393911
O92   O     O_3   0.719554 0.134765 0.253025 -0.707025
H32   H     H_    0.727083 0.107879 0.239678 0.386002
O93   O     O_3   0.171344 0.318591 0.454188 -0.729107
H33   H     H_    0.188533 0.342569 0.445339 0.352577
O94   O     O_3   0.814541 0.678485 0.516891 -0.740006
H34   H     H_    0.788789 0.654214 0.507515 0.352038
O95   O     O_3   0.828739 0.318564 0.545980 -0.729049
H35   H     H_    0.811601 0.342531 0.554936 0.352578
O96   O     O_3   0.185649 0.678467 0.483493 -0.740161
H36   H     H_    0.211547 0.654218 0.493192 0.352036
O97   O     O_3   0.685446 0.821513 0.483083 -0.739998
H37   H     H_    0.711171 0.845788 0.492393 0.352050
O98   O     O_3   0.328656 0.181409 0.545813 -0.729106
H38   H     H_    0.311466 0.157431 0.554660 0.352578
O99   O     O_3   0.314353 0.821533 0.516512 -0.740159
H39   H     H_    0.288459 0.845783 0.506822 0.352038
O100  O     O_3   0.671260 0.181436 0.454017 -0.729045
H40   H     H_    0.688403 0.157468 0.445072 0.352583

loop_
_geom_bond_atom_site_label_1
_geom_bond_atom_site_label_2
_geom_bond_distance
_ccdc_geom_bond_type
C122  C130  1.417367 A    
O92   H32   0.988668 S    
Zn5   O51   1.796175 S    
C61   O69   1.383929 S    
O97   H37   0.987986 S    
O49   C21   1.275964 A    
C90   H6    1.083918 S    
C94   C102  1.418651 A    
C99   C107  1.418629 A    
C119  C127  1.417388 A    
O82   H22   0.989249 S    
C117  C125  1.417370 A    
C86   C94   1.393697 A    
C112  O96   1.386658 S    
C90   C98   1.393877 A    
O84   H24   0.989251 S    
N8    O68   1.300931 A    
C120  C128  1.415478 A    
C79   C87   1.396845 A    
Zn16  O28   1.965937 S    
C106  N6    1.432767 S    
Zn4   O2    1.863400 S    
C75   C83   1.405164 A    
C124  C132  1.417386 A    
O69   H9    0.987767 S    
O33   C15   1.226274 A    
O72   H12   0.987850 S    
C65   O73   1.383123 S    
O22   C10   1.228339 A    
C133  C137  1.236843 T    
C85   H1    1.083919 S    
Zn12  O24   1.965937 S    
N3    O57   1.300472 A    
C78   C86   1.396916 A    
Zn16  O4    1.864760 S    
Zn1   O13   1.795185 S    
C72   O80   1.383782 S    
O43   C23   1.275862 A    
N4    O60   1.301287 A    
C110  O94   1.386684 S    
C14   C119  1.474584 S    
Zn4   O16   1.795186 S    
O45   C17   1.275910 A    
C21   C31   1.488080 S    
Zn7   O3    1.863403 S    
C28   C36   1.237021 T    
C62   C70   1.417349 A    
Zn8   O34   1.966931 S    
O11   C3    1.276919 A    
C36   C44   1.462744 S    
C113  C121  1.407330 A    
C100  C108  1.417707 A    
C137  C141  1.462439 S    
Zn7   O49   1.796178 S    
C62   O70   1.383118 S    
C51   C55   1.236668 T    
C30   C38   1.237020 T    
Zn10  O22   1.965938 S    
C87   H3    1.083919 S    
C40   C48   1.462750 S    
Zn6   O4    1.863406 S    
Zn10  O2    1.864762 S    
C12   C121  1.474159 S    
O52   C24   1.275907 A    
Zn11  O5    1.795441 S    
Zn3   O1    1.863403 S    
C1    C133  1.487793 S    
C116  C124  1.409343 A    
C61   C69   1.417884 A    
C26   C34   1.237021 T    
C116  O100  1.387718 S    
C108  N8    1.432763 S    
Zn5   O35   1.966932 S    
O37   C17   1.275919 A    
C82   C125  1.485683 S    
Zn6   O36   1.966925 S    
C112  C131  1.414953 A    
O27   C15   1.228350 A    
C67   C107  1.423719 A    
C98   C106  1.417716 A    
O8    C2    1.276919 A    
O46   C18   1.275964 A    
O71   H11   0.987770 S    
C8    C52   1.487196 S    
C37   C45   1.462744 S    
C66   O74   1.383931 S    
O16   C6    1.275473 A    
O77   H17   0.989250 S    
O14   C6    1.275485 A    
O40   C20   1.275866 A    
Zn13  O41   1.795244 S    
C114  O98   1.387716 S    
Zn12  O6    1.795444 S    
N6    O63   1.300474 A    
O75   H15   0.987846 S    
C50   C54   1.236668 T    
C80   C131  1.486391 S    
O17   C7    1.275488 A    
C91   H7    1.083979 S    
Zn5   O17   1.795185 S    
C84   C127  1.485699 S    
O9    C3    1.276922 A    
N5    O61   1.301244 A    
O35   C13   1.226275 A    
O76   H16   0.987770 S    
C67   C75   1.417358 A    
C71   O79   1.383552 S    
C11   C122  1.474579 S    
O85   H25   0.988659 S    
C95   C103  1.417711 A    
C66   C106  1.423017 A    
C78   C129  1.486362 S    
C93   C101  1.417716 A    
C27   C35   1.237020 T    
O44   C24   1.275922 A    
C6    C50   1.487077 S    
C20   C26   1.488080 S    
C32   C40   1.237020 T    
C138  C142  1.462435 S    
C89   H5    1.083990 S    
O38   C18   1.275866 A    
Zn9   O7    1.795439 S    
Zn10  O8    1.795442 S    
C141  C142  1.236803 T    
C88   C96   1.393682 A    
O5    C1    1.276922 A    
C83   C91   1.396922 A    
Zn11  O23   1.965939 S    
C53   C57   1.461914 S    
O93   H33   0.987374 S    
C55   C59   1.462257 S    
O91   H31   0.988644 S    
N7    O66   1.301291 A    
C41   C46   1.236999 T    
C64   C104  1.423718 A    
C65   C105  1.423733 A    
N3    O58   1.300931 A    
C2    C134  1.487790 S    
C109  O93   1.387716 S    
C109  C130  1.411644 A    
C110  C118  1.407325 A    
C140  C144  1.462439 S    
O80   H20   0.989232 S    
C113  C126  1.414925 A    
Zn1   O1    1.863402 S    
Zn2   O14   1.795186 S    
C29   C37   1.237021 T    
C76   C84   1.404702 A    
O30   C12   1.226279 A    
C17   C27   1.488075 S    
C70   C78   1.405149 A    
C19   C25   1.488075 S    
O39   C19   1.275919 A    
C79   C132  1.485700 S    
C9    C124  1.474580 S    
C63   C71   1.417890 A    
C113  O97   1.386691 S    
O88   H28   0.988644 S    
C101  N1    1.432766 S    
C111  O95   1.387722 S    
C81   C126  1.486340 S    
O6    C2    1.276919 A    
C63   O71   1.383931 S    
C64   O72   1.383106 S    
O18   C8    1.275502 A    
C69   O77   1.383554 S    
O10   C4    1.276920 A    
C121  C129  1.415485 A    
N7    O65   1.301249 A    
C83   C128  1.486387 S    
N2    O55   1.301244 A    
Zn13  O25   1.965937 S    
O34   C16   1.225967 A    
O78   H18   0.989250 S    
O50   C22   1.275911 A    
C92   H8    1.083920 S    
Zn15  O3    1.864758 S    
O41   C21   1.275864 A    
C69   C77   1.404695 A    
C33   C41   1.462750 S    
C118  C126  1.415478 A    
Zn4   O46   1.796177 S    
C35   C43   1.462750 S    
Zn8   O20   1.795186 S    
C74   O82   1.383552 S    
C62   C102  1.423725 A    
C96   O88   1.380855 S    
O86   H26   0.988635 S    
C43   C48   1.236998 T    
C73   O81   1.383792 S    
C56   C60   1.461914 S    
O47   C19   1.275908 A    
C96   C104  1.418629 A    
C97   C105  1.418656 A    
O81   H21   0.989256 S    
O12   C4    1.276921 A    
C86   H2    1.083986 S    
Zn16  O10   1.795441 S    
Zn14  O42   1.795246 S    
C67   O75   1.383111 S    
Zn13  O3    1.864762 S    
C24   C30   1.488075 S    
O100  H40   0.987375 S    
C99   O91   1.380855 S    
Zn14  O4    1.864764 S    
C123  C131  1.415477 A    
O94   H34   0.987988 S    
Zn1   O31   1.966932 S    
Zn2   O32   1.966925 S    
C61   C101  1.423018 A    
Zn3   O29   1.966925 S    
Zn6   O18   1.795186 S    
O23   C11   1.229203 A    
O96   H36   0.987992 S    
O89   H29   0.988631 S    
C139  C143  1.462435 S    
C66   C74   1.417886 A    
O90   H30   0.988661 S    
O25   C13   1.228345 A    
C68   C108  1.423014 A    
C68   O76   1.383929 S    
O51   C23   1.275965 A    
N8    O67   1.300472 A    
O29   C11   1.225972 A    
C100  O92   1.381472 S    
C23   C29   1.488080 S    
C94   O86   1.380869 S    
O42   C22   1.275919 A    
C18   C28   1.488080 S    
C57   C58   1.236479 T    
C34   C42   1.462744 S    
Zn9   O37   1.795244 S    
C115  C128  1.414952 A    
C25   C33   1.237020 T    
C59   C60   1.236479 T    
C143  C144  1.236803 T    
Zn11  O39   1.795248 S    
C114  C122  1.409325 A    
Zn11  O1    1.864758 S    
C82   C90   1.396836 A    
Zn15  O43   1.795248 S    
O28   C16   1.229205 A    
Zn5   O3    1.863402 S    
C64   C72   1.417359 A    
C31   C39   1.237021 T    
C65   C73   1.417349 A    
C74   C82   1.404694 A    
C68   C76   1.417893 A    
C88   H4    1.083978 S    
O73   H13   0.987855 S    
O21   C9    1.229212 A    
C98   O90   1.381473 S    
C116  C127  1.411625 A    
N6    O64   1.300930 A    
N4    O59   1.301250 A    
Zn15  O9    1.795441 S    
Zn15  O27   1.965939 S    
C105  N5    1.435544 S    
O99   H39   0.987993 S    
C85   C93   1.393879 A    
C75   O83   1.383781 S    
C80   C88   1.396921 A    
C81   C89   1.396913 A    
O48   C20   1.275963 A    
C89   C97   1.393693 A    
C135  C139  1.236836 T    
C84   C92   1.396844 A    
Zn8   O50   1.796177 S    
Zn2   O2    1.863406 S    
O95   H35   0.987373 S    
O7    C1    1.276923 A    
O26   C14   1.229212 A    
C72   C80   1.405163 A    
C73   C81   1.405141 A    
Zn4   O30   1.966931 S    
C104  N4    1.435571 S    
Zn8   O4    1.863400 S    
C38   C46   1.462748 S    
C76   O84   1.383553 S    
C115  C123  1.407296 A    
Zn16  O44   1.795246 S    
O15   C5    1.275515 A    
O13   C5    1.275503 A    
O32   C10   1.226280 A    
C49   C53   1.236615 T    
O20   C8    1.275516 A    
C107  N7    1.435571 S    
C136  C140  1.236843 T    
C111  C132  1.411627 A    
O24   C12   1.228343 A    
O79   H19   0.989251 S    
Zn14  O26   1.965939 S    
C77   C85   1.396835 A    
Zn6   O52   1.796176 S    
O98   H38   0.987374 S    
C91   C99   1.393684 A    
C103  N3    1.432763 S    
C92   C100  1.393883 A    
C102  N2    1.435560 S    
Zn1   O47   1.796175 S    
C22   C32   1.488075 S    
C77   C130  1.485684 S    
Zn2   O48   1.796176 S    
Zn3   O45   1.796178 S    
C5    C49   1.487196 S    
C7    C51   1.487077 S    
Zn7   O33   1.966925 S    
C63   C103  1.423013 A    
O87   H27   0.988663 S    
C134  C138  1.236836 T    
C54   C58   1.462257 S    
Zn3   O15   1.795187 S    
N1    O53   1.300470 A    
C16   C117  1.474579 S    
Zn9   O21   1.965937 S    
O83   H23   0.989235 S    
O36   C14   1.225970 A    
N5    O62   1.301294 A    
C42   C45   1.236994 T    
C39   C47   1.462743 S    
Zn12  O40   1.795245 S    
C71   C79   1.404699 A    
Zn9   O1    1.864762 S    
C93   O85   1.381471 S    
O31   C9    1.225969 A    
O74   H14   0.987766 S    
C110  C129  1.414930 A    
C111  C119  1.409343 A    
Zn7   O19   1.795187 S    
O19   C7    1.275471 A    
C109  C117  1.409324 A    
N2    O56   1.301294 A    
O70   H10   0.987853 S    
C114  C125  1.411645 A    
C3    C135  1.487790 S    
C115  O99   1.386659 S    
C15   C118  1.474158 S    
N1    O54   1.300933 A    
C13   C120  1.474148 S    
C4    C136  1.487793 S    
Zn10  O38   1.795246 S    
C87   C95   1.393882 A    
C97   O89   1.380877 S    
C70   O78   1.383791 S    
C112  C120  1.407293 A    
C10   C123  1.474152 S    
Zn12  O2    1.864758 S    
Zn13  O11   1.795439 S    
Zn14  O12   1.795439 S    
C95   O87   1.381474 S    
C44   C47   1.236996 T    
C52   C56   1.236615 T    
