data_mof_unit_22635.cif
_audit_creation_date              2012-12-10T17:16:11-0500
_audit_creation_method            fapswitch 2.2
_symmetry_space_group_name_H-M    P1
_symmetry_Int_Tables_number       1
_space_group_crystal_system       triclinic
_cell_length_a                    19.211086
_cell_length_b                    13.107963
_cell_length_c                    11.970498
_cell_angle_alpha                 98.133824
_cell_angle_beta                  92.734591
_cell_angle_gamma                 98.455783
_cell_volume                      2944.39318835

loop_
_atom_site_label
_atom_site_type_symbol
_atom_type_description
_atom_site_fract_x
_atom_site_fract_y
_atom_site_fract_z
_atom_type_partial_charge
C1    C     C_R   0.503125 0.300148 0.478677 0.789292
C2    C     C_R   0.495606 0.699006 0.521296 0.788107
C3    C     C_R   0.485575 0.810432 0.535899 -0.182516
C4    C     C_R   0.507818 0.186260 0.464373 -0.151213
C5    C     C_R   0.496124 0.014312 0.348182 0.220076
C6    C     C_R   0.486493 0.980112 0.652629 0.228286
C7    C     C_R   0.510067 0.124375 0.356713 -0.062025
C8    C     C_R   0.480301 0.870239 0.643251 -0.054677
C9    C     C_R   0.506562 0.137470 0.560898 -0.295063
C10   C     C_R   0.482621 0.858731 0.439951 -0.258581
C11   C     C_R   0.495511 0.028862 0.554557 0.033569
C12   C     C_R   0.489730 0.967187 0.447095 0.077804
C13   C     C_R   0.416523 0.418875 0.033955 -0.162667
C14   C     C_R   0.582362 0.584753 0.966394 -0.164609
C15   C     C_R   0.427536 0.423793 0.152440 0.422857
C16   C     C_R   0.570155 0.581918 0.847781 0.438882
C17   C     C_R   0.536254 0.538226 0.152536 0.075630
C18   C     C_R   0.462848 0.463576 0.847452 0.073094
C19   C     C_R   0.530157 0.531704 0.030354 -0.071094
C20   C     C_R   0.468932 0.470486 0.969571 -0.077627
C21   C     C_R   0.368881 0.510716 0.500354 0.786314
C22   C     C_R   0.631489 0.490792 0.499440 0.808089
C23   C     C_R   0.261807 0.558998 0.595890 -0.299184
C24   C     C_R   0.736485 0.442145 0.398986 -0.318731
C25   C     C_R   0.189778 0.566140 0.593976 0.004376
C26   C     C_R   0.808140 0.432189 0.396444 0.009085
C27   C     C_R   0.148424 0.534003 0.490905 -0.084864
C28   C     C_R   0.851481 0.458718 0.497877 -0.066918
C29   C     C_R   0.182315 0.516297 0.389086 -0.022655
C30   C     C_R   0.820082 0.473977 0.601799 -0.069607
C31   C     C_R   0.256823 0.537225 0.392919 0.249289
C32   C     C_R   0.746124 0.467137 0.602636 0.236654
C33   C     C_R   0.294868 0.533995 0.496671 -0.160267
C34   C     C_R   0.705889 0.468891 0.500532 -0.103974
C35   C     C_R   0.928876 0.476113 0.494438 0.432991
C36   C     C_R   0.071026 0.513211 0.491472 0.431553
Cu1   Cu    Cu3+1 0.505120 0.507730 0.615930 0.978705
Cu2   Cu    Cu3+1 0.494880 0.492270 0.384070 0.964778
H1    H     H_    0.292787 0.577872 0.674227 0.155817
H2    H     H_    0.703310 0.422533 0.322400 0.159908
H3    H     H_    0.477142 0.810720 0.358844 0.199271
H4    H     H_    0.515268 0.185737 0.641385 0.166680
N1    N     N_R   0.030149 0.566204 0.432837 -0.263978
N2    N     N_R   0.969787 0.423620 0.553850 -0.243837
N3    N     N_R   0.960239 0.547653 0.433802 -0.234449
N4    N     N_R   0.039722 0.441955 0.552563 -0.226139
N5    N     N_R   0.512830 0.519350 0.790130 -0.211317
N6    N     N_R   0.487170 0.480650 0.209870 -0.212610
O1    O     O_R   0.503640 0.354460 0.582000 -0.582011
O2    O     O_R   0.496360 0.645540 0.418000 -0.586023
O3    O     O_R   0.494980 0.341410 0.386200 -0.562892
O4    O     O_R   0.505020 0.658590 0.613800 -0.563333
O5    O     O_R   0.404470 0.506520 0.597930 -0.569965
O6    O     O_R   0.595530 0.493480 0.402070 -0.581715
O7    O     O_R   0.395820 0.493460 0.402130 -0.549865
O8    O     O_R   0.604180 0.506540 0.597870 -0.519808
C37   C     C_R   0.346350 0.362479 0.986117 0.133402
C38   C     C_R   0.335020 0.253215 0.964252 -0.129631
C39   C     C_R   0.267474 0.198189 0.931816 -0.144648
C40   C     C_R   0.210161 0.251935 0.925285 -0.096320
C41   C     C_R   0.220270 0.360526 0.952627 -0.123403
C42   C     C_R   0.287996 0.415815 0.983578 -0.195916
H5    H     H_    0.378266 0.211228 0.976972 0.108820
H6    H     H_    0.259392 0.113854 0.914130 0.122298
H7    H     H_    0.157712 0.209346 0.901265 0.111786
H8    H     H_    0.175503 0.401603 0.950466 0.134885
H9    H     H_    0.295353 0.499887 0.005140 0.122602
C43   C     C_R   0.655085 0.631745 0.013276 0.124635
C44   C     C_R   0.709461 0.570652 0.004182 -0.216112
C45   C     C_R   0.779746 0.617252 0.030160 -0.148726
C46   C     C_R   0.796463 0.724313 0.067079 -0.109311
C47   C     C_R   0.742924 0.785574 0.077137 -0.125611
C48   C     C_R   0.672705 0.739783 0.049806 -0.103073
H10   H     H_    0.697442 0.487706 0.973952 0.123217
H11   H     H_    0.821548 0.570751 0.020849 0.146319
H12   H     H_    0.850944 0.759815 0.087279 0.114701
H13   H     H_    0.755792 0.868702 0.105354 0.119126
H14   H     H_    0.632197 0.788914 0.056242 0.103921
C49   C     C_R   0.159495 0.608844 0.699463 0.137082
C50   C     C_R   0.119038 0.689932 0.698684 -0.124138
C51   C     C_R   0.094314 0.735200 0.798942 -0.122576
C52   C     C_R   0.109884 0.700326 0.900876 -0.106098
C53   C     C_R   0.149498 0.619329 0.902516 -0.142412
C54   C     C_R   0.174385 0.573959 0.802433 -0.167160
H15   H     H_    0.107897 0.719678 0.620920 0.125551
H16   H     H_    0.063488 0.797872 0.797734 0.115243
H17   H     H_    0.090957 0.735749 0.978518 0.107430
H18   H     H_    0.161211 0.592151 0.981478 0.119453
H19   H     H_    0.205466 0.512115 0.805303 0.114164
C55   C     C_R   0.835380 0.386640 0.289275 0.129389
C56   C     C_R   0.817366 0.418766 0.186119 -0.179487
C57   C     C_R   0.837421 0.368457 0.084440 -0.159227
C58   C     C_R   0.877122 0.287490 0.085049 -0.123554
C59   C     C_R   0.896373 0.255981 0.187222 -0.115349
C60   C     C_R   0.875176 0.304542 0.288749 -0.127133
H20   H     H_    0.786349 0.480911 0.184528 0.129983
H21   H     H_    0.821430 0.391059 0.004846 0.130769
H22   H     H_    0.892625 0.248762 0.006285 0.108624
H23   H     H_    0.926857 0.192837 0.187614 0.122536
H24   H     H_    0.888424 0.276313 0.366575 0.124278
C61   C     C_R   0.143233 0.452701 0.286804 0.126268
C62   C     C_R   0.093497 0.492100 0.221971 -0.143849
C63   C     C_R   0.054764 0.428064 0.129934 -0.123119
C64   C     C_R   0.066281 0.325266 0.100257 -0.131593
C65   C     C_R   0.116698 0.286142 0.162934 -0.135173
C66   C     C_R   0.155206 0.349593 0.255707 -0.129764
H25   H     H_    0.085149 0.572328 0.241963 0.142094
H26   H     H_    0.015535 0.458067 0.082211 0.130105
H27   H     H_    0.036334 0.276089 0.028521 0.111107
H28   H     H_    0.125877 0.206629 0.139748 0.122560
H29   H     H_    0.193712 0.318016 0.304291 0.120769
C67   C     C_R   0.864283 0.504053 0.709128 0.104481
C68   C     C_R   0.880227 0.609606 0.756641 -0.146489
C69   C     C_R   0.922689 0.639184 0.857308 -0.131367
C70   C     C_R   0.949492 0.563649 0.910651 -0.104934
C71   C     C_R   0.933635 0.458298 0.863616 -0.136532
C72   C     C_R   0.890332 0.428252 0.763812 -0.117405
H30   H     H_    0.859920 0.668709 0.715515 0.122073
H31   H     H_    0.934904 0.720630 0.893959 0.114448
H32   H     H_    0.982329 0.587245 0.988522 0.113244
H33   H     H_    0.954557 0.399655 0.904318 0.117492
H34   H     H_    0.877904 0.346476 0.728273 0.124088
N7    N     N_2   0.293397 0.573457 0.300379 -0.420629
H35   H     H_    0.341785 0.618536 0.324984 0.271397
C73   C     C_3   0.255871 0.619375 0.217275 -0.758550
H36   H     H_    0.294206 0.661605 0.166521 0.211514
H37   H     H_    0.223931 0.675899 0.259162 0.233914
H38   H     H_    0.222454 0.557674 0.157194 0.244190
N8    N     N_2   0.712222 0.448215 0.702791 -0.424893
H39   H     H_    0.742116 0.475945 0.777564 0.241251
C74   C     C_3   0.678684 0.341546 0.700773 -0.675099
H40   H     H_    0.648145 0.336101 0.776770 0.208973
H41   H     H_    0.719251 0.289243 0.701195 0.207191
H42   H     H_    0.641760 0.315105 0.624555 0.233901
C75   C     C_R   0.462260 0.820230 0.744735 0.203416
C76   C     C_R   0.505059 0.847567 0.846132 -0.125094
C77   C     C_R   0.485967 0.804152 0.942485 -0.166937
C78   C     C_R   0.422400 0.736892 0.940163 -0.110863
C79   C     C_R   0.376983 0.715666 0.842682 -0.146915
C80   C     C_R   0.397099 0.755762 0.744619 -0.118455
H43   H     H_    0.552892 0.903596 0.850690 0.128575
H44   H     H_    0.519634 0.824403 0.019655 0.130775
H45   H     H_    0.407336 0.703391 0.014675 0.118553
H46   H     H_    0.325695 0.669897 0.844771 0.116427
H47   H     H_    0.361195 0.740332 0.669715 0.110335
C81   C     C_R   0.538482 0.170906 0.258040 0.151196
C82   C     C_R   0.608814 0.220856 0.266157 -0.130950
C83   C     C_R   0.638969 0.255371 0.171350 -0.153381
C84   C     C_R   0.598807 0.244540 0.069081 -0.109189
C85   C     C_R   0.529113 0.194744 0.059760 -0.143385
C86   C     C_R   0.499679 0.155445 0.152468 -0.172229
H48   H     H_    0.640960 0.229770 0.344803 0.114742
H49   H     H_    0.693832 0.289131 0.176289 0.140684
H50   H     H_    0.622080 0.273005 0.996566 0.111597
H51   H     H_    0.498371 0.185224 0.980105 0.129858
H52   H     H_    0.446342 0.113788 0.141885 0.132512
N9    N     N_2   0.490424 0.949585 0.240733 -0.463191
H53   H     H_    0.526644 0.968928 0.183457 0.254076
C87   C     C_3   0.419183 0.908699 0.193466 -0.738108
H54   H     H_    0.410890 0.931420 0.108525 0.227611
H55   H     H_    0.378808 0.937690 0.248073 0.235933
H56   H     H_    0.411028 0.822423 0.184749 0.223412
N10   N     N_2   0.481850 0.039847 0.760748 -0.451050
H57   H     H_    0.517194 0.106846 0.787438 0.230288
C88   C     C_3   0.414811 0.027979 0.812083 -0.721993
H58   H     H_    0.421703 0.001816 0.895520 0.240115
H59   H     H_    0.373762 0.971602 0.757705 0.234974
H60   H     H_    0.395676 0.103179 0.826215 0.216486
C89   C     C_R   0.405856 0.389353 0.779127 0.182492
C90   C     C_R   0.339591 0.417243 0.757291 -0.074479
C91   C     C_R   0.286316 0.347067 0.691038 -0.121638
C92   C     C_R   0.299188 0.248206 0.646100 -0.137776
C93   C     C_R   0.363801 0.217888 0.672514 -0.151992
C94   C     C_R   0.415775 0.287076 0.742991 -0.112279
H61   H     H_    0.329504 0.492335 0.795635 0.090990
H62   H     H_    0.234994 0.368666 0.675089 0.138286
H63   H     H_    0.258481 0.194140 0.593751 0.123837
H64   H     H_    0.372597 0.139919 0.640363 0.161118
H65   H     H_    0.463667 0.262297 0.771691 0.101356
C95   C     C_R   0.589041 0.619460 0.220502 0.180675
C96   C     C_R   0.574711 0.721551 0.245293 -0.144072
C97   C     C_R   0.624575 0.799360 0.309086 -0.150226
C98   C     C_R   0.689756 0.775920 0.345631 -0.133493
C99   C     C_R   0.706243 0.676025 0.314175 -0.128691
C100  C     C_R   0.656479 0.599068 0.249523 -0.064674
H66   H     H_    0.525712 0.740502 0.212000 0.120785
H67   H     H_    0.613389 0.878153 0.328390 0.146187
H68   H     H_    0.728394 0.836086 0.394488 0.123451
H69   H     H_    0.757991 0.658984 0.337254 0.138102
H70   H     H_    0.670249 0.524352 0.217599 0.103826
N11   N     N_2   0.624706 0.627266 0.784277 -0.358266
H71   H     H_    0.671388 0.600404 0.797247 0.258725
C101  C     C_3   0.637366 0.738989 0.785558 -0.668141
H72   H     H_    0.694386 0.765854 0.778104 0.198876
H73   H     H_    0.622803 0.780914 0.864662 0.204491
H74   H     H_    0.608645 0.760570 0.712621 0.248458
N12   N     N_2   0.369429 0.387408 0.214503 -0.375009
H75   H     H_    0.322294 0.411393 0.195409 0.276177
C102  C     C_3   0.360175 0.282733 0.241585 -0.653997
H76   H     H_    0.319764 0.230859 0.181941 0.199048
H77   H     H_    0.341847 0.283734 0.328216 0.223189
H78   H     H_    0.409667 0.251670 0.239593 0.245952

loop_
_geom_bond_atom_site_label_1
_geom_bond_atom_site_label_2
_ccdc_geom_bond_type
C92   H63   S    
C30   C32   A    
C65   H28   S    
C88   H58   S    
C27   C29   A    
C89   C90   A    
C82   C83   A    
C17   N6    A    
C91   C92   A    
C74   H42   S    
C18   N5    A    
C69   C70   A    
C55   C56   A    
C75   C76   A    
C22   O6    A    
C96   C97   A    
C92   C93   A    
C72   H34   S    
C39   H6    S    
C58   C59   A    
C42   H9    S    
C93   H64   S    
N10   C88   S    
Cu1   Cu2   S    
C24   C26   A    
N8    H39   S    
C78   H45   S    
C49   C54   A    
C15   N12   S    
N7    C73   S    
C13   C37   S    
C90   C91   A    
N12   H75   S    
C70   C71   A    
C38   H5    S    
C99   C100  A    
N12   C102  S    
C97   C98   A    
C67   C68   A    
C2    O2    A    
C47   H13   S    
C17   C19   A    
C56   H20   S    
Cu1   O8    S    
C41   H8    S    
N9    H53   S    
Cu2   O7    S    
C87   H54   S    
C28   C35   S    
C43   C44   A    
C101  H73   S    
C73   H38   S    
C89   C94   A    
C87   H55   S    
C36   N4    A    
C45   C46   A    
Cu1   N5    S    
Cu2   N6    S    
C51   H16   S    
C90   H61   S    
C7    C81   S    
Cu1   O5    S    
C68   H30   S    
C41   C42   A    
C53   H18   S    
C77   C78   A    
C102  H76   S    
N9    C87   S    
C64   H27   S    
C10   H3    S    
C9    C11   A    
C59   C60   A    
C15   N6    A    
C4    C7    A    
C8    C75   S    
C10   C12   A    
C16   N5    A    
C64   C65   A    
N2    N4    A    
C57   H21   S    
C51   C52   A    
C66   H29   S    
C75   C80   A    
C22   C34   S    
C77   H44   S    
C71   H33   S    
C81   C82   A    
N11   H71   S    
C61   C62   A    
N7    H35   S    
C96   H66   S    
C83   C84   A    
C5    C12   A    
C3    C8    A    
C95   C100  A    
C32   N8    S    
C6    C11   A    
C5    C7    A    
Cu1   O4    S    
C60   H24   S    
C76   C77   A    
C22   O8    A    
Cu2   O3    S    
C23   C33   A    
C43   C48   A    
C93   C94   A    
C52   C53   A    
C24   C34   A    
C81   C86   A    
C30   C67   S    
C40   C41   A    
C32   C34   A    
C84   H50   S    
N11   C101  S    
C98   C99   A    
C50   H15   S    
C16   N11   S    
C102  H78   S    
Cu1   O1    S    
C79   H46   S    
C53   C54   A    
Cu2   O6    S    
C48   H14   S    
C101  H74   S    
C31   C33   A    
C9    H4    S    
C87   H56   S    
C29   C61   S    
C44   H10   S    
C86   H52   S    
C73   H37   S    
C35   N2    A    
N1    N3    A    
C63   H26   S    
C2    O4    A    
C17   C95   S    
C40   H7    S    
C70   H32   S    
C88   H60   S    
C5    N9    S    
C85   H51   S    
C13   C15   A    
C73   H36   S    
C14   C16   A    
C26   C55   S    
C54   H19   S    
C37   C42   A    
C74   H40   S    
C35   N3    A    
C62   H25   S    
C56   C57   A    
C95   C96   A    
C21   O7    A    
C68   C69   A    
C65   C66   A    
C18   C89   S    
C61   C66   A    
C13   C20   A    
C25   C49   S    
C14   C19   A    
C69   H31   S    
C50   C51   A    
C74   H41   S    
C55   C60   A    
C80   H47   S    
C6    C8    A    
C79   C80   A    
Cu2   O2    S    
C27   C36   S    
C25   C27   A    
C91   H62   S    
C26   C28   A    
C1    O3    A    
C67   C72   A    
C1    C4    S    
C19   C20   A    
C28   C30   A    
C2    C3    S    
C38   C39   A    
C31   N7    S    
C46   C47   A    
C29   C31   A    
C3    C10   A    
C84   C85   A    
C21   O5    A    
C37   C38   A    
C46   H12   S    
C59   H23   S    
C47   C48   A    
C23   H1    S    
C94   H65   S    
C57   C58   A    
C24   H2    S    
C76   H43   S    
C100  H70   S    
C71   C72   A    
C82   H48   S    
C18   C20   A    
C97   H67   S    
C23   C25   A    
C62   C63   A    
C44   C45   A    
N10   H57   S    
C78   C79   A    
C49   C50   A    
C39   C40   A    
C21   C33   S    
C6    N10   S    
C45   H11   S    
C88   H59   S    
C101  H72   S    
C83   H49   S    
C63   C64   A    
C102  H77   S    
C14   C43   S    
C99   H69   S    
C36   N1    A    
C4    C9    A    
C98   H68   S    
C1    O1    A    
C58   H22   S    
C52   H17   S    
C11   C12   A    
C85   C86   A    
N8    C74   S    
