data_mof_unit_17235.cif
_audit_creation_date              2012-10-26T18:33:35-0400
_audit_creation_method            fapswitch 2.2
_symmetry_space_group_name_H-M    P1
_symmetry_Int_Tables_number       1
_space_group_crystal_system       triclinic
_cell_length_a                    15.085628
_cell_length_b                    13.689877
_cell_length_c                    10.890792
_cell_angle_alpha                 89.961113
_cell_angle_beta                  90.038607
_cell_angle_gamma                 89.593858
_cell_volume                      2249.11308792

loop_
_atom_site_label
_atom_site_type_symbol
_atom_type_description
_atom_site_fract_x
_atom_site_fract_y
_atom_site_fract_z
_atom_type_partial_charge
C1    C     C_R   0.328436 0.500323 0.499075 0.628637
C2    C     C_R   0.046175 0.411860 0.690146 0.446126
C3    C     C_R   0.092585 0.457150 0.593919 -0.018807
C4    C     C_R   0.501088 0.500224 0.259200 0.678261
C5    C     C_R   0.045554 0.503219 0.496738 -0.136391
C6    C     C_R   0.091861 0.549993 0.399326 -0.005358
C7    C     C_R   0.042556 0.598728 0.304814 0.036789
C8    C     C_R   0.949403 0.597103 0.308539 0.429763
C9    C     C_R   0.185141 0.457557 0.593570 0.313567
C10   C     C_R   0.231296 0.501275 0.497950 0.034771
C11   C     C_R   0.185543 0.545417 0.400807 0.319608
C12   C     C_3   0.591950 0.516145 0.925032 0.787358
C13   C     C_R   0.429541 0.794211 0.546917 0.069644
C14   C     C_R   0.428486 0.206628 0.543887 0.082179
C15   C     C_R   0.570893 0.792171 0.452428 0.033693
C16   C     C_R   0.572993 0.206643 0.459127 0.025242
C17   C     C_R   0.574365 0.895738 0.450782 -0.004383
C18   C     C_R   0.577543 0.103107 0.461832 -0.003845
C19   C     C_R   0.670978 0.499694 0.500313 0.667796
C20   C     C_R   0.502168 0.948163 0.500879 -0.035791
C21   C     C_R   0.502161 0.051616 0.501182 -0.034969
C22   C     C_R   0.428282 0.897070 0.547105 -0.060366
C23   C     C_R   0.811240 0.548651 0.405765 0.355893
C24   C     C_R   0.427337 0.103702 0.544376 -0.061879
C25   C     C_R   0.647756 0.947816 0.401521 0.002279
C26   C     C_R   0.654934 0.050153 0.426281 0.001432
C27   C     C_R   0.353457 0.051955 0.587719 0.387682
C28   C     C_R   0.354314 0.949647 0.590383 0.384623
C29   C     C_R   0.498479 0.499404 0.739899 0.632424
C30   C     C_3   0.427198 0.578598 0.070224 0.318747
C31   C     C_3   0.475534 0.391327 0.072733 0.303450
C32   C     C_3   0.432961 0.583260 0.924999 0.218014
C33   C     C_3   0.465301 0.393479 0.927823 0.252287
C34   C     C_R   0.766938 0.499305 0.499151 -0.010699
C35   C     C_3   0.592919 0.528271 0.066636 0.641200
C36   C     C_3   0.499871 0.500144 0.120335 -0.044702
C37   C     C_3   0.494439 0.497512 0.877400 -0.052846
C38   C     C_3   0.432728 0.687479 0.123238 -0.135813
C39   C     C_3   0.359067 0.718109 0.212799 -0.260762
C40   C     C_3   0.363164 0.827254 0.242026 -0.506621
C41   C     C_3   0.538023 0.305554 0.126972 -0.134572
C42   C     C_3   0.574738 0.221035 0.047696 -0.250371
C43   C     C_3   0.618482 0.141958 0.126085 -0.492239
C44   C     C_3   0.084372 0.660437 0.203956 -0.184602
C45   C     C_R   0.813545 0.451337 0.592202 0.351514
C46   C     C_3   0.112172 0.760351 0.254564 -0.299123
C47   C     C_3   0.131824 0.832647 0.151383 -0.447821
C48   C     C_3   0.712326 0.896402 0.314086 -0.273474
C49   C     C_3   0.665064 0.861931 0.196647 -0.304288
C50   C     C_3   0.730514 0.819014 0.104116 -0.321754
C51   C     C_3   0.745251 0.100503 0.429476 -0.278434
C52   C     C_3   0.768451 0.135240 0.559868 -0.285740
C53   C     C_3   0.860256 0.181324 0.563746 -0.388611
C54   C     C_3   0.338867 0.589842 0.861714 -0.164617
C55   C     C_3   0.299401 0.693782 0.857972 -0.251050
C56   C     C_R   0.906343 0.453910 0.593854 -0.055526
C57   C     C_3   0.210286 0.695561 0.791271 -0.422740
C58   C     C_3   0.370938 0.360724 0.886134 -0.132287
C59   C     C_3   0.355842 0.249873 0.898451 -0.267340
C60   C     C_3   0.260032 0.223074 0.869883 -0.338223
C61   C     C_R   0.952125 0.502044 0.497665 -0.176899
C62   C     C_R   0.904187 0.549184 0.403058 0.035950
C63   C     C_R   0.954196 0.410105 0.689938 0.443809
Cu1   Cu    Cu3+1 0.499990 0.597420 0.500010 1.047076
Cu2   Cu    Cu3+1 0.499990 0.402580 0.500010 1.072495
F1    F     F_    0.089386 0.368681 0.785461 -0.553236
F2    F     F_    0.521742 0.327371 0.872417 -0.629309
F3    F     F_    0.614426 0.623453 0.095122 -0.579745
F4    F     F_    0.660544 0.472135 0.116434 -0.543675
F5    F     F_    0.627992 0.598676 0.870661 -0.485246
F6    F     F_    0.647463 0.439222 0.892368 -0.465459
F7    F     F_    0.762753 0.594037 0.316797 -0.530474
F8    F     F_    0.767748 0.404484 0.681916 -0.501533
F9    F     F_    0.912390 0.366141 0.785359 -0.505518
F10   F     F_    0.231032 0.416172 0.686798 -0.663610
F11   F     F_    0.234157 0.576917 0.305333 -0.643108
F12   F     F_    0.902379 0.645103 0.220300 -0.587461
F13   F     F_    0.279852 0.100262 0.626617 -0.625183
F14   F     F_    0.281996 0.902028 0.633343 -0.636490
F15   F     F_    0.344871 0.542860 0.103789 -0.588887
F16   F     F_    0.393079 0.371182 0.123920 -0.602087
F17   F     F_    0.477025 0.667690 0.889234 -0.621261
H1    H     H_    0.373942 0.754142 0.583317 0.170953
H2    H     H_    0.496605 0.703654 0.166908 0.191979
H3    H     H_    0.427715 0.743175 0.049972 0.191483
H4    H     H_    0.673218 0.173679 0.180524 0.165287
H5    H     H_    0.569207 0.108032 0.188349 0.151941
H6    H     H_    0.646632 0.084517 0.065389 0.162191
H7    H     H_    0.520998 0.185643 0.994913 0.198315
H8    H     H_    0.627133 0.248764 0.985308 0.292345
H9    H     H_    0.595719 0.334949 0.176364 0.185955
H10   H     H_    0.499402 0.268279 0.200204 0.189562
H11   H     H_    0.181705 0.802251 0.086956 0.146143
H12   H     H_    0.372282 0.247238 0.579057 0.191608
H13   H     H_    0.070215 0.849705 0.099482 0.177235
H14   H     H_    0.157784 0.901483 0.190966 0.166024
H15   H     H_    0.057845 0.791519 0.311724 0.183665
H16   H     H_    0.171497 0.751962 0.314016 0.203412
H17   H     H_    0.139561 0.622028 0.157155 0.227472
H18   H     H_    0.036571 0.673050 0.127872 0.204188
H19   H     H_    0.780361 0.874399 0.077287 0.132674
H20   H     H_    0.764861 0.754472 0.144124 0.290950
H21   H     H_    0.694304 0.795684 0.020430 0.230685
H22   H     H_    0.615109 0.805664 0.217719 0.193718
H23   H     H_    0.625290 0.749199 0.417265 0.172735
H24   H     H_    0.629818 0.924507 0.153340 0.155009
H25   H     H_    0.765304 0.945021 0.281476 0.146546
H26   H     H_    0.745650 0.834283 0.361312 0.176756
H27   H     H_    0.911685 0.127658 0.534779 0.160920
H28   H     H_    0.862561 0.246022 0.502249 0.161407
H29   H     H_    0.875208 0.204904 0.658925 0.233916
H30   H     H_    0.719632 0.190005 0.593360 0.217032
H31   H     H_    0.767489 0.071855 0.623759 0.180516
H32   H     H_    0.800213 0.051315 0.403166 0.151548
H33   H     H_    0.746712 0.162720 0.364418 0.135077
H34   H     H_    0.627373 0.248376 0.422962 0.129724
H35   H     H_    0.162514 0.646341 0.837557 0.172695
H36   H     H_    0.182660 0.770944 0.792178 0.199785
H37   H     H_    0.218766 0.672156 0.694296 0.164710
H38   H     H_    0.289015 0.720926 0.952624 0.158020
H39   H     H_    0.344859 0.744328 0.809627 0.236007
H40   H     H_    0.342071 0.563560 0.765701 0.138724
H41   H     H_    0.289062 0.544082 0.907609 0.199535
H42   H     H_    0.214139 0.260513 0.934528 0.220571
H43   H     H_    0.242840 0.244099 0.774406 0.280975
H44   H     H_    0.251508 0.142958 0.879827 0.178256
H45   H     H_    0.430370 0.847306 0.274262 0.159450
H46   H     H_    0.399974 0.209551 0.834061 0.198760
H47   H     H_    0.370612 0.225206 0.993365 0.204076
H48   H     H_    0.318743 0.397584 0.940084 0.220955
H49   H     H_    0.361463 0.379819 0.788693 0.189562
H50   H     H_    0.346875 0.871005 0.158993 0.153564
H51   H     H_    0.314511 0.845571 0.315024 0.171861
H52   H     H_    0.293720 0.703185 0.171035 0.238493
H53   H     H_    0.365062 0.677253 0.299723 0.272506
N1    N     N_R   0.499930 0.743810 0.499950 -0.265628
N2    N     N_R   0.499930 0.256190 0.499950 -0.256713
O1    O     O_R   0.370250 0.582280 0.500040 -0.551879
O2    O     O_R   0.370250 0.417720 0.500040 -0.487792
O3    O     O_R   0.499970 0.582270 0.317700 -0.514733
O4    O     O_R   0.499970 0.417730 0.317700 -0.501466
O5    O     O_R   0.629730 0.582260 0.499980 -0.477375
O6    O     O_R   0.629730 0.417740 0.499980 -0.496686
O7    O     O_R   0.500000 0.582270 0.682320 -0.429837
O8    O     O_R   0.500000 0.417730 0.682320 -0.442447

loop_
_geom_bond_atom_site_label_1
_geom_bond_atom_site_label_2
_ccdc_geom_bond_type
C53   H28   S    
C54   H41   S    
C55   H39   S    
C33   C58   S    
C18   C21   A    
C44   H18   S    
C41   C42   S    
C16   N2    A    
C18   C26   A    
C24   C27   A    
C27   F13   S    
C49   H22   S    
C4    C36   S    
C46   H16   S    
C7    C8    A    
Cu1   O1    S    
C52   H31   S    
C52   C53   S    
C43   H6    S    
C60   H43   S    
C11   F11   S    
C29   O8    A    
C38   C39   S    
Cu2   O6    S    
C44   H17   S    
C48   H25   S    
C52   H30   S    
C17   C20   A    
C30   C38   S    
C45   F8    S    
C14   C24   A    
C12   C37   S    
C60   H42   S    
C28   F14   S    
C46   C47   S    
C23   C62   A    
C35   C36   S    
C45   C56   A    
C47   H14   S    
C31   C33   S    
C9    C10   A    
C1    O2    A    
C57   H37   S    
C30   F15   S    
C53   H29   S    
C40   H50   S    
C59   C60   S    
C22   C28   A    
Cu2   N2    S    
C16   H34   S    
C32   C54   S    
C25   C26   A    
C44   C46   S    
C55   H38   S    
C51   H32   S    
C38   H3    S    
C51   C52   S    
C6    C11   A    
C39   H53   S    
C15   N1    A    
Cu1   O7    S    
C2    F1    S    
C59   H46   S    
C7    C44   S    
C29   O7    A    
C33   C37   S    
C42   H8    S    
C3    C9    A    
C4    O3    A    
Cu2   O4    S    
C14   N2    A    
C58   H49   S    
C23   C34   A    
C47   H11   S    
C56   C63   A    
C5    C61   A    
C34   C45   A    
C32   C37   S    
C12   C35   S    
C25   C48   S    
C6    C7    A    
C48   C49   S    
C41   H9    S    
C12   F6    S    
C20   C22   A    
C50   H20   S    
C19   O5    A    
C55   C57   S    
C8    F12   S    
C48   H26   S    
C13   N1    A    
C42   C43   S    
Cu2   O8    S    
C39   C40   S    
C2    C63   A    
C33   F2    S    
C57   H35   S    
Cu1   O3    S    
C53   H27   S    
C15   C17   A    
C12   F5    S    
C54   C55   S    
C59   H47   S    
C19   O6    A    
C31   C41   S    
C38   H2    S    
C31   C36   S    
C43   H4    S    
C23   F7    S    
C46   H15   S    
C1    C10   S    
C3    C5    A    
C19   C34   S    
C49   H24   S    
C63   F9    S    
C32   F17   S    
C40   H51   S    
C13   H1    S    
C31   F16   S    
C30   C36   S    
C42   H7    S    
C17   C25   A    
Cu1   Cu2   S    
C15   H23   S    
C60   H44   S    
C2    C3    A    
C58   C59   S    
C43   H5    S    
C4    O4    A    
C26   C51   S    
C30   C32   S    
C40   H45   S    
C5    C6    A    
Cu1   O5    S    
C35   F3    S    
C58   H48   S    
C13   C22   A    
C54   H40   S    
C61   C62   A    
C51   H33   S    
C10   C11   A    
Cu2   O2    S    
C50   H21   S    
C41   H10   S    
C20   C21   A    
C35   F4    S    
C50   H19   S    
C16   C18   A    
C49   C50   S    
C21   C24   A    
C29   C37   S    
C27   C28   A    
C47   H13   S    
C56   C61   A    
Cu1   N1    S    
C9    F10   S    
C14   H12   S    
C1    O1    A    
C8    C62   A    
C57   H36   S    
C39   H52   S    
