data_mof_unit_10271.cif
_audit_creation_date              2012-12-11T16:04:51-0500
_audit_creation_method            fapswitch 2.2
_symmetry_space_group_name_H-M    P1
_symmetry_Int_Tables_number       1
_space_group_crystal_system       triclinic
_cell_length_a                    10.629942
_cell_length_b                    10.689425
_cell_length_c                    16.929297
_cell_angle_alpha                 98.639993
_cell_angle_beta                  98.762413
_cell_angle_gamma                 61.527713
_cell_volume                      1664.55667326

loop_
_atom_site_label
_atom_site_type_symbol
_atom_type_description
_atom_site_fract_x
_atom_site_fract_y
_atom_site_fract_z
_atom_type_partial_charge
C1    C     C_R   0.353012 0.778601 0.399874 0.547255
C2    C     C_3   0.403739 0.695724 0.254826 -0.113246
C3    C     C_3   0.342661 0.819362 0.320523 0.054239
C4    C     C_R   0.370194 0.346867 0.358858 0.538220
C5    C     C_3   0.409682 0.898894 0.289009 -0.125810
C6    C     C_3   0.268094 0.973911 0.235324 -0.110644
C7    C     C_3   0.202076 0.893159 0.268137 -0.122032
C8    C     C_3   0.262323 0.770370 0.201780 -0.114765
C9    C     C_3   0.328198 0.850205 0.169551 0.058059
C10   C     C_3   0.461710 0.254095 0.774458 -0.130680
C11   C     C_3   0.408248 0.394857 0.735799 -0.125973
C12   C     C_3   0.733751 0.298738 0.250334 -0.118229
C13   C     C_3   0.338124 0.335875 0.663628 0.035489
C14   C     C_3   0.392383 0.195587 0.701335 -0.113428
C15   C     C_3   0.251418 0.266565 0.740719 0.107480
C16   C     C_R   0.775187 0.377793 0.401398 0.546686
C17   C     C_3   0.195309 0.406118 0.701758 -0.087477
C18   C     C_3   0.265461 0.463389 0.775780 -0.141551
C19   C     C_3   0.319830 0.322885 0.813619 0.071894
C20   C     C_1   0.813864 0.343825 0.710259 -0.025806
C21   C     C_1   0.840104 0.316681 0.778737 -0.015540
C22   C     C_1   0.357797 0.765246 0.714629 -0.052193
C23   C     C_3   0.812573 0.351080 0.320300 0.061888
C24   C     C_1   0.326739 0.810941 0.782296 -0.059661
C25   C     C_R   0.895836 0.308838 0.091771 0.543934
C26   C     C_R   0.319416 0.299372 0.120223 0.536576
C27   C     C_R   0.296671 0.888053 0.087712 0.537360
C28   C     C_R   0.379375 0.716404 0.631801 0.551801
C29   C     C_R   0.883214 0.300138 0.861374 0.557972
C30   C     C_R   0.308644 0.294256 0.892188 0.553537
C31   C     C_R   0.282885 0.879487 0.860010 0.537244
C32   C     C_R   0.367026 0.346120 0.585266 0.536048
C33   C     C_R   0.772550 0.380543 0.629992 0.535431
C34   C     C_3   0.957823 0.251815 0.289360 -0.153525
C35   C     C_1   0.343486 0.336550 0.275098 -0.065925
C36   C     C_1   0.332118 0.326244 0.203877 -0.062575
C37   C     C_3   0.880545 0.198571 0.217717 -0.116408
C38   C     C_3   0.938391 0.373103 0.241773 -0.112284
C39   C     C_3   0.791923 0.473146 0.273692 -0.105989
C40   C     C_3   0.714457 0.420097 0.202645 -0.150161
C41   C     C_3   0.859508 0.321242 0.171686 0.063465
C42   C     C_3   0.469596 0.776615 0.221497 -0.133380
Cr1   Cr    Cr6+3 0.608340 0.611040 0.520430 1.019367
Cr2   Cr    Cr6+3 0.287650 0.601120 0.489350 1.021370
Cr3   Cr    Cr6+3 0.604040 0.287870 0.490280 1.017246
Cr4   Cr    Cr6+3 0.054020 0.052700 0.970850 1.024309
Cr5   Cr    Cr6+3 0.059230 0.375120 0.993390 1.029499
Cr6   Cr    Cr6+3 0.374950 0.061200 0.992340 1.026427
H1    H     H_    0.649819 0.267893 0.256156 0.136260
H2    H     H_    0.914756 0.087007 0.191197 0.131233
H3    H     H_    0.053830 0.188319 0.329433 0.103930
H4    H     H_    0.022574 0.403829 0.236215 0.128962
H5    H     H_    0.757698 0.585454 0.298840 0.133647
H6    H     H_    0.618707 0.483073 0.162280 0.103799
H7    H     H_    0.456048 0.581544 0.266607 0.116092
H8    H     H_    0.576752 0.731694 0.198983 0.114336
H9    H     H_    0.467822 0.952852 0.326778 0.129563
H10   H     H_    0.136728 0.165960 0.685838 0.221606
H11   H     H_    0.230044 0.103063 0.772387 0.243337
H12   H     H_    0.215693 0.088077 0.223500 0.116386
H13   H     H_    0.094347 0.938764 0.290062 0.119054
H14   H     H_    0.204129 0.715825 0.164656 0.124788
H15   H     H_    0.474604 0.447859 0.731441 0.104876
H16   H     H_    0.570479 0.194779 0.805627 0.130789
H17   H     H_    0.440111 0.086745 0.669548 0.131687
H18   H     H_    0.086765 0.463983 0.670062 0.135651
H19   H     H_    0.216359 0.571745 0.808009 0.129100
N1    N     N_3   0.164193 0.196787 0.744726 -0.607349
O1    O     O_R   0.751220 0.499230 0.435170 -0.522085
O2    O     O_R   0.412990 0.180750 0.091610 -0.510776
O3    O     O_R   0.366620 0.943130 0.065760 -0.500727
O4    O     O_R   0.477220 0.727600 0.436870 -0.499887
O5    O     O_R   0.160510 0.906330 0.879210 -0.506074
O6    O     O_R   0.930190 0.179050 0.889450 -0.495322
O7    O     O_R   0.909140 0.398170 0.896710 -0.500262
O8    O     O_R   0.186190 0.363460 0.918830 -0.485741
O9    O     O_R   0.401670 0.173200 0.913310 -0.522421
O10   O     O_R   0.356120 0.936130 0.900470 -0.497760
O11   O     O_3   0.162740 0.163010 0.985530 -0.253832
O12   O     O_R   0.297880 0.469080 0.560050 -0.515178
O13   O     O_R   0.258650 0.745120 0.411470 -0.512972
O14   O     O_R   0.297070 0.467240 0.395960 -0.496441
O15   O     O_R   0.488830 0.252610 0.387790 -0.519190
O16   O     O_R   0.724400 0.302390 0.420980 -0.503228
O17   O     O_R   0.752100 0.501210 0.612190 -0.515207
O18   O     O_R   0.478040 0.729440 0.600970 -0.495106
O19   O     O_R   0.259530 0.747110 0.588490 -0.502423
O20   O     O_R   0.489720 0.254590 0.564810 -0.512861
O21   O     O_R   0.725220 0.304230 0.585080 -0.498006
O22   O     O_3   0.500010 0.500010 0.500020 -0.274689
O23   O     O_R   0.171830 0.913880 0.057510 -0.523805
O24   O     O_R   0.940690 0.186050 0.054730 -0.508499
O25   O     O_R   0.920470 0.405720 0.075010 -0.523035
O26   O     O_R   0.196690 0.370460 0.084120 -0.507731

loop_
_geom_bond_atom_site_label_1
_geom_bond_atom_site_label_2
_ccdc_geom_bond_type
C26   O26   A    
C5    C42   S    
C11   C18   S    
C25   O25   A    
Cr1   O4    S    
C34   C37   S    
C13   C32   S    
C35   C36   T    
Cr5   O11   S    
C6    C9    S    
C12   H1    S    
Cr2   O22   S    
C7    C8    S    
C39   H5    S    
C15   C19   S    
C12   C23   S    
C9    C42   S    
C19   C30   S    
Cr6   O11   S    
Cr5   O8    S    
Cr2   O14   S    
C2    H7    S    
C38   C39   S    
C31   O5    A    
Cr4   O24   S    
C1    O13   A    
C32   O20   A    
C16   O16   A    
C18   C19   S    
Cr6   O10   S    
C12   C37   S    
C33   O17   A    
C7    H13   S    
C42   H8    S    
C30   O9    A    
Cr5   O26   S    
Cr4   O11   S    
C8    C9    S    
C27   O23   A    
Cr2   O19   S    
Cr3   O21   S    
C4    C35   S    
Cr1   O1    S    
C22   C28   S    
C13   C14   S    
Cr3   O15   S    
C29   O6    A    
Cr5   O25   S    
C2    C8    S    
Cr1   O22   S    
C1    O4    A    
C6    H12   S    
Cr2   O12   S    
Cr3   O20   S    
C38   C41   S    
Cr2   O13   S    
C10   C14   S    
C25   C41   S    
C39   C40   S    
Cr4   O23   S    
C18   H19   S    
C21   C29   S    
C1    C3    S    
Cr1   O17   S    
Cr6   O9    S    
C12   C40   S    
C33   O21   A    
H11   N1    S    
C32   O12   A    
C30   O8    A    
C10   C19   S    
C23   C34   S    
C28   O19   A    
C17   C18   S    
C34   H3    S    
C4    O14   A    
Cr3   O22   S    
C20   C33   S    
H10   N1    S    
C40   C41   S    
C16   C23   S    
C40   H6    S    
C28   O18   A    
C26   O2    A    
C22   C24   T    
Cr3   O16   S    
Cr6   O3    S    
Cr4   O6    S    
C27   O3    A    
C9    C27   S    
C31   O10   A    
C26   C36   S    
C15   C17   S    
C25   O24   A    
C34   C38   S    
Cr1   O18   S    
C10   H16   S    
C16   O1    A    
Cr6   O2    S    
C3    C5    S    
C6    C7    S    
C29   O7    A    
C5    H9    S    
C3    C7    S    
C13   C17   S    
C2    C3    S    
C24   C31   S    
Cr5   O7    S    
C37   H2    S    
C11   C13   S    
C5    C6    S    
C4    O15   A    
C2    C42   S    
C23   C39   S    
C15   N1    S    
C14   H17   S    
C37   C41   S    
C10   C11   S    
C38   H4    S    
C20   C21   T    
C17   H18   S    
C14   C15   S    
C11   H15   S    
Cr4   O5    S    
C8    H14   S    
