data_mof_unit_21432.cif
_audit_creation_date              2012-10-26T19:14:27-0400
_audit_creation_method            fapswitch 2.2
_symmetry_space_group_name_H-M    P1
_symmetry_Int_Tables_number       1
_space_group_crystal_system       triclinic
_cell_length_a                    13.880917
_cell_length_b                    15.127842
_cell_length_c                    17.226818
_cell_angle_alpha                 90.218899
_cell_angle_beta                  86.188524
_cell_angle_gamma                 90.238426
_cell_volume                      3609.37541204

loop_
_atom_site_label
_atom_site_type_symbol
_atom_type_description
_atom_site_fract_x
_atom_site_fract_y
_atom_site_fract_z
_atom_type_partial_charge
C1    C     C_R   0.500117 0.670050 0.500347 0.520160
C2    C     C_R   0.417615 0.185991 0.481815 -0.131281
C3    C     C_R   0.582978 0.905225 0.476131 -0.128274
C4    C     C_R   0.417845 0.094113 0.482655 -0.127763
C5    C     C_R   0.500212 0.951251 0.504304 0.035735
C6    C     C_R   0.499633 0.048340 0.504178 0.034960
C7    C     C_R   0.896035 0.454146 0.442418 -0.174690
C8    C     C_R   0.105396 0.566732 0.538381 -0.160636
C9    C     C_R   0.794616 0.453504 0.444747 -0.014312
C10   C     C_R   0.206594 0.564233 0.539109 0.014474
C11   C     C_R   0.786221 0.548066 0.554764 0.413515
C12   C     C_R   0.499824 0.329855 0.500274 0.544798
C13   C     C_R   0.212656 0.437632 0.458029 0.421770
C14   C     C_R   0.887913 0.545536 0.556853 -0.130952
C15   C     C_R   0.110744 0.434962 0.460140 -0.126567
C16   C     C_R   0.487586 0.499665 0.650042 0.542918
C17   C     C_R   0.512378 0.502131 0.349701 0.561171
C18   C     C_R   0.945284 0.500268 0.499291 -0.009436
C19   C     C_R   0.054728 0.500695 0.499351 -0.012946
C20   C     C_R   0.481313 0.496822 0.734816 0.016396
C21   C     C_R   0.517424 0.513629 0.264993 0.019266
C22   C     C_R   0.552244 0.450300 0.771965 -0.172270
C23   C     C_R   0.417632 0.904036 0.531558 -0.123718
C24   C     C_R   0.437606 0.551267 0.231428 -0.197670
C25   C     C_R   0.546436 0.442828 0.852348 -0.153331
C26   C     C_R   0.438638 0.563890 0.151691 -0.154960
C27   C     C_R   0.469653 0.481668 0.896220 -0.008373
C28   C     C_R   0.518516 0.537276 0.104182 0.000003
C29   C     C_R   0.398613 0.528455 0.860008 -0.104258
C30   C     C_R   0.598642 0.500207 0.136516 -0.114426
C31   C     C_R   0.405065 0.538478 0.779369 0.264007
C32   C     C_R   0.600336 0.490761 0.217333 0.254448
C33   C     C_2   0.467785 0.478535 0.981343 -0.004819
C34   C     C_R   0.581240 0.095799 0.524687 -0.123402
C35   C     C_2   0.515606 0.542482 0.019348 -0.004043
C36   C     C_3   0.753932 0.682974 0.612717 0.008095
C37   C     C_3   0.677167 0.731918 0.663924 -0.242429
C38   C     C_3   0.699700 0.830571 0.668298 -0.489631
C39   C     C_3   0.253369 0.376185 0.337312 0.003433
C40   C     C_3   0.218474 0.285953 0.310229 -0.274873
C41   C     C_3   0.212170 0.283709 0.222209 -0.492038
C42   C     C_3   0.760872 0.504475 0.240567 0.007991
C43   C     C_3   0.850336 0.446286 0.227597 -0.259739
C44   C     C_3   0.943152 0.500810 0.227232 -0.495727
C45   C     C_R   0.417397 0.812208 0.529657 -0.139083
C46   C     C_3   0.370201 0.669503 0.720650 0.025121
C47   C     C_3   0.362365 0.736861 0.787393 -0.282655
C48   C     C_3   0.391191 0.829162 0.758624 -0.483940
C49   C     C_3   0.567963 0.617935 0.975149 -0.246009
C50   C     C_3   0.613680 0.687194 0.027047 -0.299170
C51   C     C_3   0.660206 0.761971 0.978345 -0.461242
C52   C     C_3   0.414525 0.403018 0.024740 -0.246791
C53   C     C_3   0.372109 0.333209 0.971314 -0.296492
C54   C     C_3   0.317365 0.261487 0.018209 -0.465623
C55   C     C_R   0.581431 0.187637 0.522933 -0.131985
C56   C     C_R   0.500220 0.766444 0.501673 0.011868
C57   C     C_R   0.499586 0.233282 0.501571 0.016480
C58   C     C_R   0.583156 0.813365 0.475280 -0.138449
Cu1   Cu    Cu3+1 0.403570 0.500010 0.500000 0.995498
Cu2   Cu    Cu3+1 0.596430 0.499990 0.500000 0.987024
H1    H     H_    0.611503 0.418607 0.738665 0.142448
H2    H     H_    0.659304 0.477574 0.098878 0.111346
H3    H     H_    0.376261 0.592258 0.126663 0.115441
H4    H     H_    0.601931 0.407322 0.880587 0.119835
H5    H     H_    0.353494 0.938072 0.554782 0.100204
H6    H     H_    0.644564 0.061938 0.542734 0.099639
H7    H     H_    0.352827 0.777078 0.550781 0.102427
H8    H     H_    0.645197 0.222869 0.539153 0.126443
H9    H     H_    0.647561 0.779110 0.452890 0.113201
H10   H     H_    0.353846 0.219851 0.464744 0.162145
H11   H     H_    0.647059 0.940202 0.453695 0.100716
H12   H     H_    0.374051 0.571305 0.266949 0.130287
H13   H     H_    0.354605 0.058903 0.465361 0.102678
H14   H     H_    0.756004 0.711148 0.552878 0.123124
H15   H     H_    0.824910 0.693694 0.637663 0.107093
H16   H     H_    0.605518 0.722780 0.639962 0.170908
H17   H     H_    0.673528 0.703873 0.723619 0.162443
H18   H     H_    0.769846 0.841363 0.694423 0.141038
H19   H     H_    0.642278 0.864306 0.705115 0.142507
H20   H     H_    0.702992 0.860257 0.609337 0.152437
H21   H     H_    0.324607 0.390305 0.306580 0.168896
H22   H     H_    0.203030 0.428677 0.319370 0.096081
H23   H     H_    0.934739 0.418670 0.395733 0.095892
H24   H     H_    0.269523 0.234039 0.327018 0.168782
H25   H     H_    0.146187 0.271168 0.338895 0.151549
H26   H     H_    0.159918 0.333809 0.204103 0.140459
H27   H     H_    0.187596 0.217312 0.203995 0.146188
H28   H     H_    0.284259 0.297353 0.192707 0.147967
H29   H     H_    0.765608 0.543167 0.295179 0.153621
H30   H     H_    0.760909 0.552471 0.191475 0.104229
H31   H     H_    0.850826 0.395769 0.274156 0.162508
H32   H     H_    0.847724 0.411226 0.170948 0.162617
H33   H     H_    0.945864 0.549417 0.178964 0.144282
H34   H     H_    0.068085 0.621014 0.567948 0.091998
H35   H     H_    0.006502 0.456359 0.218944 0.138289
H36   H     H_    0.947397 0.536556 0.283350 0.149222
H37   H     H_    0.325161 0.692728 0.673996 0.142183
H38   H     H_    0.445802 0.667172 0.694627 0.110390
H39   H     H_    0.286891 0.738377 0.813300 0.169917
H40   H     H_    0.410667 0.717313 0.833216 0.143989
H41   H     H_    0.466420 0.828952 0.732315 0.149059
H42   H     H_    0.386685 0.876336 0.808249 0.144945
H43   H     H_    0.341906 0.851732 0.714543 0.146151
H44   H     H_    0.717778 0.735607 0.936806 0.150703
H45   H     H_    0.758360 0.415989 0.401743 0.158089
H46   H     H_    0.605153 0.796048 0.945426 0.149173
H47   H     H_    0.692921 0.810830 0.017137 0.141451
H48   H     H_    0.557411 0.715668 0.068687 0.169631
H49   H     H_    0.670129 0.655799 0.060414 0.157110
H50   H     H_    0.625653 0.589570 0.934764 0.148649
H51   H     H_    0.515292 0.652297 0.940001 0.138670
H52   H     H_    0.365098 0.229631 0.059071 0.151814
H53   H     H_    0.253710 0.290406 0.051351 0.151001
H54   H     H_    0.291583 0.210233 0.978112 0.144788
H55   H     H_    0.321331 0.364966 0.932782 0.173603
H56   H     H_    0.243545 0.614705 0.570431 0.127695
H57   H     H_    0.431367 0.301735 0.934564 0.169328
H58   H     H_    0.465490 0.369319 0.061933 0.151190
H59   H     H_    0.354743 0.431317 0.063039 0.142389
H60   H     H_    0.920909 0.577170 0.604745 0.089889
H61   H     H_    0.076868 0.380702 0.431380 0.092649
H62   H     H_    0.339878 0.559290 0.894621 0.118114
N1    N     N_R   0.741310 0.499980 0.500000 -0.216498
N2    N     N_R   0.258690 0.500020 0.500000 -0.211649
O1    O     O_R   0.418570 0.628550 0.499990 -0.528083
O2    O     O_3   0.266487 0.373242 0.418153 -0.549689
O3    O     O_3   0.677820 0.449606 0.248399 -0.567739
O4    O     O_3   0.333934 0.585771 0.745264 -0.564042
O5    O     O_R   0.581430 0.371450 0.500010 -0.517531
O6    O     O_R   0.581440 0.628540 0.499990 -0.493586
O7    O     O_R   0.418560 0.371460 0.500010 -0.452208
O8    O     O_R   0.409120 0.500020 0.613600 -0.472993
O9    O     O_R   0.590880 0.499980 0.386400 -0.480780
O10   O     O_R   0.571990 0.500010 0.613600 -0.462042
O11   O     O_R   0.428010 0.499990 0.386400 -0.505475
O12   O     O_3   0.730419 0.591989 0.612202 -0.534329

loop_
_geom_bond_atom_site_label_1
_geom_bond_atom_site_label_2
_ccdc_geom_bond_type
C7    H23   S    
C23   C45   A    
C12   O7    A    
C27   C29   A    
C40   H24   S    
C3    H11   S    
C43   C44   S    
C16   O10   A    
C34   H6    S    
C55   H8    S    
C2    C57   A    
C53   C54   S    
C27   C33   S    
C33   C52   S    
C15   C19   A    
C41   H26   S    
Cu1   O7    S    
C32   O3    S    
C46   O4    S    
C36   C37   S    
C1    C56   S    
C1    O1    A    
C10   N2    A    
C5    C6    S    
C11   C14   A    
C53   H57   S    
C38   H19   S    
C9    H45   S    
C54   H53   S    
C47   H39   S    
C18   C19   S    
C14   C18   A    
C44   H33   S    
C9    N1    A    
C28   C35   S    
C22   C25   A    
C35   C49   S    
C49   H51   S    
C46   H38   S    
C34   C55   A    
C39   O2    S    
C50   H48   S    
C31   O4    S    
C36   O12   S    
C41   H27   S    
C21   C32   A    
Cu1   O8    S    
C8    C19   A    
C12   O5    A    
C8    H34   S    
C45   C56   A    
C4    C6    A    
C1    O6    A    
Cu2   O6    S    
C39   C40   S    
C13   N2    A    
C38   H18   S    
C51   H44   S    
C48   H43   S    
C37   H17   S    
C50   H49   S    
C17   C21   S    
C47   H40   S    
C6    C34   A    
C42   H30   S    
C25   H4    S    
C40   H25   S    
Cu2   N1    S    
C2    C4    A    
C26   H3    S    
C3    C58   A    
C17   O11   A    
C37   C38   S    
C44   H36   S    
C36   H15   S    
C47   C48   S    
C5    C23   A    
C13   C15   A    
C16   C20   S    
C7    C18   A    
C48   H42   S    
C29   H62   S    
C50   C51   S    
C54   H52   S    
C39   H21   S    
C4    H13   S    
C36   H14   S    
C42   O3    S    
C12   C57   S    
C8    C10   A    
C40   C41   S    
C46   H37   S    
C20   C22   A    
C14   H60   S    
C55   C57   A    
C17   O9    A    
Cu1   O1    S    
C42   C43   S    
C13   O2    S    
Cu2   O10   S    
C10   H56   S    
C52   C53   S    
C24   H12   S    
Cu1   N2    S    
C7    C9    A    
C41   H28   S    
C46   C47   S    
C15   H61   S    
C37   H16   S    
C11   N1    A    
C39   H22   S    
C24   C26   A    
C3    C5    A    
Cu2   O5    S    
C58   H9    S    
C45   H7    S    
C25   C27   A    
C26   C28   A    
C43   H32   S    
C42   H29   S    
C23   H5    S    
C30   H2    S    
C28   C30   A    
C29   C31   A    
C44   H35   S    
C11   O12   S    
C22   H1    S    
C30   C32   A    
C38   H20   S    
C51   H46   S    
C48   H41   S    
C54   H54   S    
Cu1   O11   S    
C33   C35   D    
C56   C58   A    
C16   O8    A    
C43   H31   S    
C52   H59   S    
Cu1   Cu2   S    
C51   H47   S    
C49   C50   S    
C21   C24   A    
C2    H10   S    
Cu2   O9    S    
C53   H55   S    
C49   H50   S    
C20   C31   A    
C52   H58   S    
