data_mof_unit_10322.cif
_audit_creation_date              2013-03-05T16:32:55-0500
_audit_creation_method            fapswitch 2.2
_symmetry_space_group_name_H-M    P1
_symmetry_Int_Tables_number       1
_space_group_crystal_system       triclinic
_cell_length_a                    15.807489
_cell_length_b                    15.097809
_cell_length_c                    14.181397
_cell_angle_alpha                 90.593604
_cell_angle_beta                  89.891153
_cell_angle_gamma                 89.382062
_cell_volume                      3384.12490914

loop_
_atom_site_label
_atom_site_type_symbol
_atom_site_description
_atom_site_fract_x
_atom_site_fract_y
_atom_site_fract_z
_atom_type_partial_charge
O1    O     O_R   0.500010 0.369070 0.579480 -0.600558
O2    O     O_R   0.499990 0.630930 0.420520 -0.614310
O3    O     O_R   0.500010 0.369060 0.420520 -0.601182
O4    O     O_R   0.499990 0.630940 0.579480 -0.616219
C1    C     C_R   0.500222 0.326722 0.499458 0.849556
C2    C     C_R   0.496044 0.671846 0.500383 0.871574
O5    O     O_R   0.376780 0.500000 0.579460 -0.602235
O6    O     O_R   0.623220 0.500000 0.420540 -0.597383
O7    O     O_R   0.376780 0.499990 0.420510 -0.628323
O8    O     O_R   0.623220 0.500010 0.579490 -0.620105
C3    C     C_R   0.338111 0.499266 0.500121 0.902587
C4    C     C_R   0.662181 0.500486 0.500207 0.911970
Zn1   Zn    Zn3+2 0.500000 0.500010 0.606140 0.967169
Zn2   Zn    Zn3+2 0.500000 0.499990 0.393860 0.967296
C5    C     C_3   0.975957 0.421057 0.526680 -0.073331
C6    C     C_3   0.026417 0.589192 0.488823 -0.080074
C7    C     C_3   0.028340 0.449898 0.440606 0.078055
C8    C     C_3   0.973708 0.560102 0.574970 0.076032
C9    C     C_1   0.249829 0.501215 0.500768 -0.206195
C10   C     C_1   0.750966 0.502076 0.502121 -0.200837
C11   C     C_3   0.032359 0.480041 0.589542 0.064217
C12   C     C_3   0.969804 0.530262 0.425407 0.083851
C13   C     C_3   0.084781 0.507480 0.503902 0.060605
C14   C     C_3   0.916772 0.502419 0.511585 0.074663
C15   C     C_1   0.175060 0.504142 0.501868 -0.056076
C16   C     C_1   0.825973 0.503005 0.506958 -0.047072
C17   C     C_R   0.457293 0.096720 0.584496 -0.221739
C18   C     C_R   0.409601 0.899418 0.457456 -0.213615
H1    H     H_    0.445774 0.063264 0.650350 0.138405
H2    H     H_    0.359617 0.931326 0.417491 0.146492
C19   C     C_R   0.484319 0.183730 0.585545 -0.007126
C20   C     C_R   0.421750 0.808598 0.449079 -0.027999
C21   C     C_R   0.492116 0.229193 0.498719 -0.170761
C22   C     C_R   0.485960 0.767301 0.502546 -0.134682
C23   C     C_R   0.485115 0.180245 0.412410 -0.077444
C24   C     C_R   0.538659 0.817655 0.562003 -0.077550
C25   C     C_R   0.473617 0.087883 0.414730 -0.028674
C26   C     C_R   0.529257 0.909995 0.565004 -0.030954
C27   C     C_R   0.460550 0.046837 0.502020 0.042313
C28   C     C_R   0.464744 0.950537 0.511054 0.037946
C29   C     C_R   0.430172 0.538502 0.107276 -0.327878
C30   C     C_R   0.558333 0.552109 0.894265 -0.326130
H3    H     H_    0.375266 0.567308 0.073460 0.149013
H4    H     H_    0.605678 0.591500 0.929626 0.146322
C31   C     C_R   0.431336 0.532875 0.206194 -0.031719
C32   C     C_R   0.559979 0.545985 0.795376 -0.040720
H5    H     H_    0.377172 0.555536 0.246293 0.170448
H6    H     H_    0.609035 0.578625 0.756385 0.166422
N1    N     N_R   0.500000 0.499980 0.252470 -0.104062
N2    N     N_R   0.500000 0.500020 0.747530 -0.104935
C33   C     C_R   0.569623 0.471835 0.202297 0.282559
C34   C     C_R   0.436906 0.458398 0.795352 0.284477
C35   C     C_R   0.570906 0.475199 0.102498 -0.020249
C36   C     C_R   0.433775 0.460850 0.895213 -0.018229
C37   C     C_R   0.499491 0.508058 0.053144 0.080011
C38   C     C_R   0.496109 0.507994 0.946544 0.082790
N3    N     N_3   0.058756 0.393322 0.363583 -0.454772
H7    H     H_    0.008765 0.352686 0.343241 0.194840
H8    H     H_    0.106430 0.352132 0.389919 0.171918
N4    N     N_3   0.944556 0.617335 0.652014 -0.476294
H9    H     H_    0.993319 0.621415 0.701444 0.193501
H10   H     H_    0.937359 0.681150 0.625349 0.177900
N5    N     N_3   0.642473 0.439729 0.251377 -0.394057
H11   H     H_    0.693230 0.480915 0.235595 0.177926
H12   H     H_    0.657712 0.376202 0.226754 0.184727
N6    N     N_3   0.372522 0.413613 0.743282 -0.393937
H13   H     H_    0.369022 0.348495 0.766700 0.180547
H14   H     H_    0.314587 0.444655 0.758586 0.175751
N7    N     N_3   0.644455 0.442134 0.053709 -0.496908
H15   H     H_    0.625540 0.398504 0.000512 0.191649
H16   H     H_    0.675998 0.495129 0.023415 0.186556
N8    N     N_3   0.367855 0.413521 0.941734 -0.496826
H17   H     H_    0.394921 0.371175 0.991058 0.185931
H18   H     H_    0.327744 0.458626 0.976243 0.185543
C39   C     C_R   0.957524 0.327682 0.555980 0.132163
C40   C     C_R   0.023627 0.264692 0.557834 -0.176005
C41   C     C_R   0.009834 0.180026 0.593153 -0.133492
C42   C     C_R   0.930304 0.157916 0.628070 -0.118540
C43   C     C_R   0.864273 0.220198 0.626647 -0.166761
C44   C     C_R   0.877657 0.304647 0.590853 -0.146047
H19   H     H_    0.086497 0.281721 0.534421 0.118095
H20   H     H_    0.061203 0.132079 0.594959 0.123103
H21   H     H_    0.920288 0.092887 0.657137 0.118170
H22   H     H_    0.802842 0.203932 0.654565 0.128914
H23   H     H_    0.826147 0.352010 0.593699 0.134125
C45   C     C_R   0.059185 0.682241 0.478768 0.118261
C46   C     C_R   0.039057 0.734935 0.400682 -0.173103
C47   C     C_R   0.071543 0.820426 0.393391 -0.121563
C48   C     C_R   0.123868 0.854279 0.464035 -0.096067
C49   C     C_R   0.143645 0.802764 0.542314 -0.155104
C50   C     C_R   0.111650 0.717143 0.549632 -0.169828
H24   H     H_    0.998997 0.710887 0.344946 0.113847
H25   H     H_    0.056227 0.860431 0.332745 0.121522
H26   H     H_    0.149157 0.920327 0.458063 0.114590
H27   H     H_    0.184385 0.828862 0.596953 0.127941
H28   H     H_    0.128213 0.677756 0.610396 0.138111
N9    N     N_3   0.933126 0.551022 0.333998 -0.453443
H29   H     H_    0.982491 0.567551 0.288599 0.184145
H30   H     H_    0.893857 0.606612 0.342726 0.171348
N10   N     N_3   0.068258 0.455822 0.680435 -0.465325
H31   H     H_    0.018558 0.434459 0.722918 0.194764
H32   H     H_    0.108481 0.401340 0.669307 0.186127
C51   C     C_R   0.517876 0.216952 0.677131 0.186862
C52   C     C_R   0.601810 0.246768 0.682957 -0.071017
C53   C     C_R   0.637774 0.266498 0.770536 -0.147148
C54   C     C_R   0.591113 0.254750 0.853088 -0.126580
C55   C     C_R   0.507775 0.225423 0.848174 -0.146480
C56   C     C_R   0.471315 0.206436 0.760804 -0.192490
H33   H     H_    0.640082 0.252421 0.619906 0.100036
H34   H     H_    0.702562 0.288656 0.774549 0.122090
H35   H     H_    0.620062 0.266614 0.920899 0.113575
H36   H     H_    0.471699 0.215733 0.912028 0.129104
H37   H     H_    0.407144 0.182106 0.758498 0.116338
C57   C     C_R   0.369069 0.761125 0.379340 0.124768
C58   C     C_R   0.381340 0.776651 0.282907 -0.127560
C59   C     C_R   0.326353 0.740813 0.216023 -0.165561
C60   C     C_R   0.258943 0.688620 0.245026 -0.164520
C61   C     C_R   0.247499 0.671181 0.340709 -0.098183
C62   C     C_R   0.302201 0.707476 0.408023 -0.116654
H38   H     H_    0.433090 0.817253 0.259956 0.156813
H39   H     H_    0.335965 0.753579 0.141834 0.131994
H40   H     H_    0.216253 0.660749 0.193344 0.127740
H41   H     H_    0.195645 0.630107 0.362298 0.151107
H42   H     H_    0.291675 0.695291 0.482178 0.115953
C63   C     C_R   0.493893 0.221242 0.318380 0.180222
C64   C     C_R   0.422997 0.259723 0.274842 -0.102261
C65   C     C_R   0.427367 0.285474 0.180669 -0.147106
C66   C     C_R   0.501829 0.271244 0.129098 -0.113659
C67   C     C_R   0.572514 0.233003 0.171975 -0.150897
C68   C     C_R   0.569120 0.209192 0.266780 -0.135312
H43   H     H_    0.364078 0.267767 0.313253 0.110554
H44   H     H_    0.372578 0.315132 0.147480 0.123267
H45   H     H_    0.505390 0.290537 0.056178 0.116434
H46   H     H_    0.630062 0.222208 0.131813 0.126586
H47   H     H_    0.623786 0.178091 0.298994 0.117664
C69   C     C_R   0.610621 0.775560 0.612131 0.159457
C70   C     C_R   0.611314 0.771318 0.710971 -0.104306
C71   C     C_R   0.682428 0.738077 0.757660 -0.185432
C72   C     C_R   0.751930 0.706595 0.705845 -0.107748
C73   C     C_R   0.750735 0.709426 0.607287 -0.120480
C74   C     C_R   0.680550 0.744055 0.560533 -0.170897
H48   H     H_    0.557327 0.794619 0.751632 0.114444
H49   H     H_    0.683188 0.735607 0.833899 0.124516
H50   H     H_    0.806385 0.679968 0.742308 0.144523
H51   H     H_    0.803970 0.685389 0.566399 0.142726
H52   H     H_    0.680960 0.747277 0.484257 0.115181
C75   C     C_R   0.478855 0.034969 0.325700 0.126169
C76   C     C_R   0.553649 0.988853 0.302157 -0.140979
C77   C     C_R   0.561663 0.946521 0.214394 -0.153112
C78   C     C_R   0.495108 0.949931 0.149704 -0.138032
C79   C     C_R   0.419954 0.994576 0.173276 -0.132056
C80   C     C_R   0.411705 0.036929 0.260993 -0.152910
H53   H     H_    0.606313 0.987679 0.350653 0.112584
H54   H     H_    0.619715 0.911676 0.196223 0.126456
H55   H     H_    0.501507 0.917376 0.081674 0.121362
H56   H     H_    0.368293 0.996795 0.123367 0.124187
H57   H     H_    0.353738 0.072547 0.277986 0.116259
C81   C     C_R   0.593305 0.962916 0.616407 0.138561
C82   C     C_R   0.667899 0.987139 0.570376 -0.125551
C83   C     C_R   0.732329 0.028708 0.620564 -0.154762
C84   C     C_R   0.722630 0.046711 0.716956 -0.122879
C85   C     C_R   0.648131 0.023412 0.763135 -0.094308
C86   C     C_R   0.583826 0.980998 0.713281 -0.171620
H58   H     H_    0.677178 0.971432 0.496474 0.108833
H59   H     H_    0.790088 0.045661 0.584540 0.132777
H60   H     H_    0.772894 0.078258 0.756083 0.116113
H61   H     H_    0.640620 0.037289 0.837726 0.127077
H62   H     H_    0.527186 0.961166 0.750201 0.107819

loop_
_geom_bond_atom_site_label_1
_geom_bond_atom_site_label_2
_geom_bond_distance
_ccdc_geom_bond_type
C80   H57   1.082921 S    
C5    C39   1.505168 S    
C70   H48   1.082595 S    
N5    H12   1.042903 S    
C64   C65   1.396590 A    
C17   H1    1.082392 S    
C8    C11   1.531366 S    
C55   H36   1.081290 S    
N6    H14   1.045631 S    
C68   H47   1.083096 S    
C39   C40   1.405767 A    
C35   N7    1.434197 S    
C66   C67   1.395516 A    
C79   H56   1.082172 S    
C57   C58   1.403354 A    
N3    H7    1.044867 S    
C49   H27   1.082332 S    
C41   C42   1.395425 A    
O5    C3    1.281484 A    
C3    C9    1.395531 S    
C7    C13   1.536603 S    
O1    C1    1.296728 A    
C41   H20   1.082505 S    
C23   C25   1.408918 A    
C53   H34   1.082237 S    
C14   C16   1.436864 S    
C85   C86   1.396640 A    
C71   H49   1.082290 S    
C52   H33   1.083246 S    
N3    H8    1.043995 S    
Zn2   N1    2.005105 S    
C54   C55   1.395936 A    
C18   C28   1.392151 A    
C58   C59   1.396634 A    
N9    H29   1.044667 S    
O4    Zn1   2.016431 S    
C59   C60   1.395978 A    
N4    H10   1.043822 S    
C30   C32   1.404649 A    
C48   H26   1.082395 S    
N7    H16   1.043190 S    
C65   H44   1.081523 S    
C29   C37   1.407096 A    
C77   H54   1.082195 S    
C30   C38   1.407944 A    
C50   H28   1.082976 S    
C61   C62   1.400646 A    
C42   H21   1.081845 S    
C75   C76   1.403563 A    
C17   C27   1.385117 A    
N1    C33   1.370675 A    
C1    C21   1.479353 S    
N2    C34   1.367227 A    
C55   C56   1.395877 A    
C19   C21   1.421699 A    
C51   C56   1.406438 A    
C39   C44   1.403602 A    
C22   C24   1.409220 A    
C84   H60   1.081865 S    
C61   H41   1.078936 S    
C31   H5    1.077632 S    
N6    H13   1.042959 S    
C79   C80   1.397992 A    
C12   N9    1.456760 S    
C46   H24   1.076340 S    
C6    C45   1.510553 S    
C29   H3    1.081741 S    
O2    C2    1.285543 A    
C30   H4    1.081732 S    
O2    Zn2   2.008883 S    
C24   C69   1.483266 S    
C52   C53   1.397555 A    
N9    H30   1.044675 S    
C34   C36   1.417028 A    
C84   C85   1.396500 A    
C32   H6    1.078044 S    
C54   H35   1.079888 S    
C35   C37   1.417209 A    
C36   C38   1.419344 A    
C59   H39   1.082308 S    
N5    H11   1.045696 S    
C17   C19   1.385692 A    
C18   C20   1.386360 A    
C33   N5    1.429510 S    
C73   C74   1.393309 A    
C26   C81   1.484247 S    
N8    H18   1.043013 S    
C27   C28   1.461677 S    
C11   N10   1.457830 S    
C45   C46   1.405188 A    
C69   C70   1.403875 A    
O6    Zn2   1.984912 S    
C62   H42   1.082335 S    
C2    C22   1.448253 S    
N4    H9    1.044755 S    
C33   C35   1.416842 A    
C20   C22   1.411719 A    
C56   H37   1.082988 S    
C40   H19   1.081683 S    
C60   H40   1.082234 S    
C66   H45   1.078788 S    
C44   H23   1.078269 S    
C72   H50   1.080962 S    
C82   C83   1.394641 A    
C23   C63   1.482821 S    
C31   N1    1.361350 A    
O6    C4    1.287772 A    
C4    C10   1.404244 S    
C37   C38   1.512771 S    
N10   H32   1.044707 S    
O7    Zn2   1.983422 S    
C83   H59   1.079866 S    
C25   C75   1.488766 S    
O7    C3    1.283022 A    
O3    Zn2   2.016430 S    
O8    C4    1.281071 A    
C81   C86   1.405302 A    
C74   H52   1.083309 S    
C8    N4    1.456954 S    
C5    C14   1.552887 S    
C6    C13   1.549351 S    
C78   H55   1.082270 S    
C11   C13   1.532091 S    
C81   C82   1.400568 A    
C8    C14   1.542800 S    
C43   C44   1.395299 A    
O4    C2    1.287361 A    
O1    Zn1   2.008883 S    
C76   H53   1.080951 S    
C65   C66   1.398038 A    
C34   N6    1.430266 S    
C67   C68   1.396373 A    
C53   C54   1.396386 A    
C5    C7    1.542788 S    
C47   H25   1.082359 S    
C6    C12   1.550767 S    
C43   H22   1.079691 S    
C42   C43   1.397644 A    
C57   C62   1.400889 A    
N8    H17   1.041913 S    
O3    C1    1.294829 A    
O8    Zn1   1.983419 S    
C73   H51   1.078558 S    
C72   C73   1.398939 A    
C70   C71   1.396952 A    
C32   N2    1.359337 A    
C7    C12   1.535172 S    
C78   C79   1.397843 A    
C45   C50   1.406069 A    
C83   C84   1.398779 A    
C24   C26   1.400640 A    
C75   C80   1.404733 A    
C25   C27   1.405978 A    
C60   C61   1.396701 A    
C26   C28   1.413933 A    
C40   C41   1.396868 A    
C49   C50   1.397962 A    
C63   C64   1.403818 A    
C5    C11   1.544787 S    
C10   C16   1.188001 T    
C64   H43   1.083127 S    
C18   H2    1.084769 S    
Zn1   N2    2.005105 S    
C21   C23   1.428305 A    
C69   C74   1.400699 A    
C86   H62   1.082884 S    
C12   C14   1.545126 S    
C76   C77   1.398114 A    
C13   C15   1.427657 S    
N7    H15   1.042707 S    
C9    C15   1.182327 T    
C67   H46   1.082316 S    
C71   C72   1.396909 A    
C63   C68   1.404254 A    
C85   H61   1.082277 S    
O5    Zn1   1.984913 S    
C36   N8    1.433489 S    
C47   C48   1.396674 A    
C46   C47   1.399012 A    
C6    C8    1.547498 S    
C58   H38   1.079268 S    
C7    N3    1.457282 S    
C51   C52   1.407962 A    
C29   C31   1.406381 A    
C82   H58   1.081490 S    
N10   H31   1.044956 S    
C20   C57   1.478714 S    
C48   C49   1.396041 A    
C77   C78   1.398056 A    
C19   C51   1.488195 S    
