data_mof_unit_68302.cif
_audit_creation_date              2013-03-05T16:22:15-0500
_audit_creation_method            fapswitch 2.2
_symmetry_space_group_name_H-M    P1
_symmetry_Int_Tables_number       1
_space_group_crystal_system       triclinic
_cell_length_a                    10.737533
_cell_length_b                    10.68955
_cell_length_c                    9.915474
_cell_angle_alpha                 90.232269
_cell_angle_beta                  89.125486
_cell_angle_gamma                 92.921356
_cell_volume                      1136.47457745

loop_
_atom_site_label
_atom_site_type_symbol
_atom_site_description
_atom_site_fract_x
_atom_site_fract_y
_atom_site_fract_z
_atom_type_partial_charge
O1    O     O_R   0.500010 0.313960 0.616610 -0.556122
O2    O     O_R   0.499990 0.686040 0.383390 -0.556091
O3    O     O_R   0.500060 0.313950 0.383350 -0.588964
O4    O     O_R   0.499940 0.686050 0.616650 -0.589082
C1    C     C_R   0.504102 0.258531 0.500452 1.039360
C2    C     C_R   0.495904 0.741469 0.499548 1.039315
O5    O     O_R   0.313930 0.499970 0.616610 -0.549071
O6    O     O_R   0.686070 0.500030 0.383390 -0.549060
O7    O     O_R   0.313980 0.499960 0.383350 -0.611884
O8    O     O_R   0.686020 0.500040 0.616650 -0.611919
C3    C     C_R   0.257650 0.498566 0.501066 0.963271
C4    C     C_R   0.742350 0.501435 0.498934 0.963230
Zn1   Zn    Zn3+2 0.499970 0.500010 0.655740 1.135118
Zn2   Zn    Zn3+2 0.500030 0.499990 0.344260 1.135172
C5    C     C_3   0.037397 0.524016 0.624354 0.372348
C6    C     C_3   0.962602 0.475988 0.375645 0.372382
C7    C     C_3   0.949279 0.412178 0.584021 -0.163990
C8    C     C_3   0.050720 0.587825 0.415977 -0.163973
H1    H     H_    0.907472 0.339639 0.653114 0.258564
H2    H     H_    0.092526 0.660364 0.346884 0.258528
C9    C     C_3   0.877810 0.501615 0.496715 -0.164170
C10   C     C_3   0.122189 0.498388 0.503283 -0.164101
C11   C     C_3   0.964583 0.613562 0.538802 -0.242718
C12   C     C_3   0.035415 0.386441 0.461197 -0.242776
H3    H     H_    0.943204 0.707033 0.577133 0.247313
H4    H     H_    0.056782 0.292971 0.422854 0.247138
C13   C     C_3   0.522062 0.038436 0.625696 0.107794
C14   C     C_3   0.477946 0.961563 0.374308 0.107891
C15   C     C_3   0.608856 0.958898 0.540431 0.304612
C16   C     C_3   0.391154 0.041101 0.459572 0.305093
C17   C     C_3   0.494949 0.876176 0.496937 -0.469055
C18   C     C_3   0.505061 0.123824 0.503065 -0.469071
C19   C     C_3   0.408236 0.956287 0.582808 0.272139
C20   C     C_3   0.591772 0.043712 0.417193 0.272274
C21   C     C_3   0.507806 0.386952 0.048534 -0.213351
C22   C     C_3   0.492193 0.613048 0.951465 -0.213404
C23   C     C_3   0.599012 0.455785 0.949964 0.261688
C24   C     C_3   0.400987 0.544215 0.050036 0.261730
H5    H     H_    0.506644 0.291435 0.090887 0.262773
H6    H     H_    0.493341 0.708564 0.909109 0.262736
N1    N     N_3   0.499910 0.500030 0.863290 -0.194237
N2    N     N_3   0.500090 0.499970 0.136710 -0.194227
C25   C     C_3   0.407826 0.433129 0.955403 0.236130
C26   C     C_3   0.592174 0.566871 0.044597 0.236161
S1    S     S_3+6 0.075866 0.559149 0.795496 0.187337
O9    O     O_2   0.060908 0.440147 0.874950 -0.119270
O10   O     O_2   0.207184 0.611465 0.807518 -0.198386
O11   O     O_3   0.981728 0.666171 0.859390 -0.389578
H7    H     H_    0.905289 0.659006 0.805052 0.375702
S2    S     S_3+6 0.924135 0.440850 0.204504 0.187255
O12   O     O_2   0.792817 0.388534 0.192485 -0.198348
O13   O     O_2   0.939091 0.559850 0.125046 -0.119297
O14   O     O_3   0.018273 0.333827 0.140611 -0.389864
H8    H     H_    0.094710 0.340986 0.194953 0.375623
S3    S     S_3+6 0.754398 0.899405 0.584230 0.096468
O15   O     O_2   0.737587 0.814121 0.703863 -0.270536
O16   O     O_2   0.799863 0.827168 0.464790 -0.286266
O17   O     O_3   0.857346 0.018251 0.620001 -0.456431
H9    H     H_    0.939354 0.979812 0.622043 0.397286
S4    S     S_3+6 0.245626 0.100619 0.415774 0.095865
O18   O     O_2   0.200152 0.172897 0.535174 -0.285509
O19   O     O_2   0.262493 0.185859 0.296107 -0.271638
O20   O     O_3   0.142643 0.981799 0.380057 -0.457437
H10   H     H_    0.061239 0.020910 0.374036 0.396873
N3    N     N_R   0.543701 0.076050 0.765344 0.295846
O21   O     O_R   0.639732 0.038083 0.828918 -0.202588
O22   O     O_R   0.457792 0.131554 0.832922 -0.248802
N4    N     N_R   0.456298 0.923946 0.234661 0.295884
O23   O     O_R   0.360258 0.961902 0.171096 -0.202924
O24   O     O_R   0.542199 0.868433 0.167080 -0.248786
S5    S     S_3+6 0.284725 0.900311 0.692748 0.160306
O25   O     O_2   0.200213 0.809790 0.616633 -0.302845
O26   O     O_2   0.339036 0.836325 0.810714 -0.216439
O27   O     O_3   0.202833 0.019628 0.750600 -0.399276
H11   H     H_    0.134142 0.979680 0.805593 0.409032
S6    S     S_3+6 0.715268 0.099668 0.307224 0.159765
O28   O     O_2   0.660933 0.163717 0.189313 -0.216568
O29   O     O_2   0.799858 0.190127 0.383322 -0.303117
O30   O     O_3   0.797074 0.980325 0.249283 -0.399865
H12   H     H_    0.865386 0.020213 0.193708 0.408727
N5    N     N_R   0.707749 0.401313 0.890344 0.259818
O31   O     O_R   0.816909 0.455626 0.905403 -0.280921
O32   O     O_R   0.695962 0.299988 0.818172 -0.302405
N6    N     N_R   0.292249 0.598684 0.109656 0.259815
O33   O     O_R   0.183091 0.544368 0.094598 -0.280916
O34   O     O_R   0.304035 0.700008 0.181831 -0.302488
N7    N     N_R   0.305999 0.348330 0.910705 0.289391
O35   O     O_R   0.243879 0.280758 0.999948 -0.255244
O36   O     O_R   0.293777 0.319596 0.784280 -0.247426
N8    N     N_R   0.694001 0.651670 0.089295 0.289359
O37   O     O_R   0.756119 0.719244 0.000051 -0.255247
O38   O     O_R   0.706225 0.680402 0.215719 -0.247431

loop_
_geom_bond_atom_site_label_1
_geom_bond_atom_site_label_2
_geom_bond_distance
_ccdc_geom_bond_type
S3    O15   1.502078 D    
C6    C9    1.527897 S    
C13   C15   1.535280 S    
S6    O30   1.679879 S    
N7    O35   1.299128 A    
Zn1   N1    2.057945 S    
N5    O31   1.291694 A    
O14   H8    0.988221 S    
C13   C19   1.532708 S    
O5    C3    1.303094 A    
S4    O20   1.681243 S    
O1    C1    1.294265 A    
S6    O29   1.501600 D    
C14   N4    1.459035 S    
C12   H4    1.101413 S    
C24   N2    1.475513 S    
S4    O19   1.502107 D    
O4    Zn1   2.027662 S    
C21   N2    1.493395 S    
C5    C10   1.527902 S    
N4    O23   1.299953 A    
N3    O22   1.298317 A    
C16   S4    1.777478 S    
S2    O13   1.499359 D    
C17   C19   1.541554 S    
C21   C25   1.528677 S    
Zn2   N2    2.057945 S    
C1    C18   1.440867 S    
C5    C11   1.533052 S    
C2    C17   1.440857 S    
C14   C20   1.532706 S    
C6    C12   1.533045 S    
N1    C25   1.492959 S    
C23   N5    1.448155 S    
C22   N1    1.493396 S    
O2    C2    1.294266 A    
N2    C26   1.492963 S    
O2    Zn2   2.024761 S    
N5    O32   1.297611 A    
S1    O10   1.496448 D    
S2    O14   1.680579 S    
O27   H11   0.990553 S    
C8    C11   1.550214 S    
C7    C12   1.550208 S    
C22   H6    1.105018 S    
S6    O28   1.498018 D    
O4    C2    1.307954 A    
S5    O26   1.498021 D    
C15   S3    1.777503 S    
O17   H9    0.991021 S    
S1    O9    1.499360 D    
C4    C9    1.454247 S    
C7    C9    1.534305 S    
C24   C25   1.514485 S    
O20   H10   0.990667 S    
S4    O18   1.500126 D    
C18   C20   1.541550 S    
C21   H5    1.105011 S    
O7    Zn2   2.029140 S    
C13   N3    1.459030 S    
N8    O38   1.296441 A    
O6    C4    1.303090 A    
S2    O12   1.496446 D    
N6    O33   1.291693 A    
O7    C3    1.306182 A    
O3    Zn2   2.027662 S    
O8    C4    1.306182 A    
C6    C8    1.541663 S    
O11   H7    0.988219 S    
S3    O16   1.500177 D    
C10   C12   1.538975 S    
C22   C26   1.528681 S    
O1    Zn1   2.024761 S    
C5    S1    1.786545 S    
C22   C24   1.535872 S    
C26   N8    1.457418 S    
C21   C23   1.535871 S    
S1    O11   1.680575 S    
C5    C7    1.541667 S    
O6    Zn2   2.040725 S    
C16   C19   1.543227 S    
C24   N6    1.448155 S    
C13   C18   1.541989 S    
C8    C10   1.534311 S    
C14   C17   1.541981 S    
N6    O34   1.297611 A    
O3    C1    1.307960 A    
O8    Zn1   2.029139 S    
S5    O27   1.679883 S    
C3    C10   1.454254 S    
C25   N7    1.457419 S    
C23   C26   1.514488 S    
C9    C11   1.538973 S    
S5    O25   1.501607 D    
C15   C17   1.538373 S    
C16   C18   1.538369 S    
N8    O37   1.299127 A    
C15   C20   1.543242 S    
C14   C16   1.535265 S    
C7    H1    1.109753 S    
C8    H2    1.109753 S    
C11   H3    1.101415 S    
C23   N1    1.475510 S    
C6    S2    1.786541 S    
C19   S5    1.784783 S    
O30   H12   0.990541 S    
O5    Zn1   2.040726 S    
N4    O24   1.298315 A    
N3    O21   1.299953 A    
S3    O17   1.681316 S    
N7    O36   1.296440 A    
C20   S6    1.784780 S    
