data_mof_unit_25480.cif
_audit_creation_date              2012-12-10T17:19:25-0500
_audit_creation_method            fapswitch 2.2
_symmetry_space_group_name_H-M    P1
_symmetry_Int_Tables_number       1
_space_group_crystal_system       triclinic
_cell_length_a                    15.069584
_cell_length_b                    10.794864
_cell_length_c                    9.6291
_cell_angle_alpha                 91.391832
_cell_angle_beta                  90.479801
_cell_angle_gamma                 96.01217
_cell_volume                      1557.23601093

loop_
_atom_site_label
_atom_site_type_symbol
_atom_type_description
_atom_site_fract_x
_atom_site_fract_y
_atom_site_fract_z
_atom_type_partial_charge
C1    C     C_R   0.494527 0.261908 0.497962 0.805541
C2    C     C_R   0.910487 0.539824 0.622089 0.094021
C3    C     C_R   0.951045 0.462833 0.248526 -0.024709
C4    C     C_R   0.043916 0.467757 0.249905 -0.222668
C5    C     C_R   0.092547 0.496345 0.373030 0.088772
C6    C     C_R   0.048332 0.521317 0.497553 0.048307
C7    C     C_R   0.097496 0.549355 0.622526 0.059962
C8    C     C_R   0.052294 0.577416 0.745542 -0.020425
C9    C     C_R   0.959330 0.572126 0.744263 -0.229045
C10   C     C_R   0.184905 0.497116 0.373753 -0.168127
C11   C     C_R   0.233564 0.517743 0.498143 -0.061669
C12   C     C_R   0.329558 0.507070 0.499676 0.820644
C13   C     C_R   0.190273 0.546352 0.621137 -0.258912
C14   C     C_R   0.330482 0.095894 0.574867 -0.025687
C15   C     C_R   0.266363 0.025175 0.652275 -0.155104
C16   C     C_R   0.280025 0.905149 0.689912 -0.141971
C17   C     C_R   0.355026 0.852443 0.642978 -0.186463
C18   C     C_R   0.422114 0.923865 0.568776 0.080965
C19   C     C_R   0.414146 0.051534 0.548428 0.050948
C20   C     C_R   0.487537 0.126396 0.491717 -0.100270
C21   C     C_R   0.559004 0.071474 0.434126 -0.186146
C22   C     C_R   0.560429 0.943722 0.436562 -0.166541
C23   C     C_R   0.497494 0.736856 0.501557 0.793798
C24   C     C_R   0.493894 0.870228 0.505870 -0.069212
C25   C     C_R   0.630497 0.650642 0.157447 -0.127716
C26   C     C_R   0.707843 0.702914 0.099464 -0.229638
C27   C     C_R   0.715712 0.700609 0.958474 -0.224430
C28   C     C_R   0.643634 0.653496 0.873235 -0.018271
C29   C     C_R   0.567672 0.575581 0.929542 0.157974
C30   C     C_R   0.565235 0.574695 0.079599 0.207691
C31   C     C_R   0.437700 0.428990 0.070760 -0.048717
C32   C     C_R   0.437460 0.429383 0.923275 -0.045431
C33   C     C_R   0.671234 0.499624 0.500311 0.817151
C34   C     C_R   0.817635 0.530914 0.623173 -0.201673
C35   C     C_R   0.768510 0.503157 0.500334 -0.075625
C36   C     C_R   0.812512 0.481719 0.375868 -0.242557
C37   C     C_R   0.905703 0.486942 0.372596 0.055188
C38   C     C_R   0.954865 0.516517 0.497224 0.050242
Cu1   Cu    Cu3+1 0.499990 0.499990 0.640660 0.957062
Cu2   Cu    Cu3+1 0.500010 0.500010 0.359340 0.952949
H1    H     H_    0.783876 0.546664 0.719757 0.159930
H2    H     H_    0.202473 0.058910 0.673678 0.144800
H3    H     H_    0.229015 0.849325 0.746105 0.156152
H4    H     H_    0.358601 0.755443 0.664126 0.157042
H5    H     H_    0.615225 0.902210 0.387988 0.146315
H6    H     H_    0.386546 0.370384 0.123312 0.144982
H7    H     H_    0.625922 0.672067 0.264875 0.200697
H8    H     H_    0.759837 0.752476 0.163988 0.163634
H9    H     H_    0.775415 0.750803 0.916218 0.153216
H10   H     H_    0.773618 0.459979 0.281711 0.177989
H11   H     H_    0.386163 0.371098 0.866127 0.139319
H12   H     H_    0.078360 0.447229 0.154934 0.163820
H13   H     H_    0.218496 0.476619 0.278017 0.164823
H14   H     H_    0.229168 0.564784 0.715849 0.163354
H15   H     H_    0.924884 0.593509 0.838955 0.163184
H16   H     H_    0.614075 0.127963 0.387534 0.150904
N1    N     N_R   0.500860 0.501210 0.147910 -0.201290
N2    N     N_R   0.500890 0.501290 0.852040 -0.200587
O1    O     O_R   0.499990 0.319640 0.618810 -0.567780
O2    O     O_R   0.500000 0.319660 0.381240 -0.568464
O3    O     O_R   0.370250 0.499960 0.618800 -0.602537
O4    O     O_R   0.370260 0.499980 0.381230 -0.573985
O5    O     O_R   0.500000 0.680340 0.618760 -0.587663
O6    O     O_R   0.500010 0.680360 0.381190 -0.601204
O7    O     O_R   0.629740 0.500020 0.618770 -0.582467
O8    O     O_R   0.629750 0.500040 0.381200 -0.606134
C39   C     C_1   0.297576 0.185690 0.485351 0.207040
N3    N     N_1   0.269344 0.252723 0.408841 -0.302927
C40   C     C_1   0.654183 0.714330 0.742593 0.335137
N4    N     N_1   0.670043 0.767805 0.641412 -0.339350
C41   C     C_1   0.904094 0.430092 0.119045 0.224981
N5    N     N_1   0.866284 0.403510 0.015720 -0.292022
C42   C     C_1   0.099377 0.612902 0.874208 0.202674
N6    N     N_1   0.137216 0.641729 0.976955 -0.303792

loop_
_geom_bond_atom_site_label_1
_geom_bond_atom_site_label_2
_ccdc_geom_bond_type
Cu2   O2    S    
C42   N6    T    
C19   C20   A    
C32   N2    A    
C33   O7    A    
C7    C8    A    
C26   C27   A    
C29   C30   A    
C4    H12   S    
C18   C24   A    
C28   C29   A    
C34   C35   A    
C1    O1    A    
C5    C6    A    
C15   C16   A    
C30   N1    A    
Cu2   O4    S    
C18   C19   A    
C10   H13   S    
C28   C40   S    
C8    C9    A    
C31   H6    S    
C23   C24   S    
C6    C38   A    
C9    H15   S    
C25   H7    S    
C26   H8    S    
C2    C34   A    
C23   O5    A    
Cu2   O8    S    
C21   C22   A    
Cu1   O7    S    
C34   H1    S    
C33   O8    A    
Cu1   O3    S    
C39   N3    T    
C1    O2    A    
Cu1   Cu2   S    
C16   C17   A    
C25   C26   A    
Cu1   N2    S    
C35   C36   A    
C3    C41   S    
C32   H11   S    
C37   C38   A    
C12   O4    A    
C2    C38   A    
C31   C32   A    
C7    C13   A    
C14   C39   S    
Cu1   O1    S    
C17   C18   A    
C29   N2    A    
C16   H3    S    
C23   O6    A    
C22   C24   A    
C3    C4    A    
C36   H10   S    
C13   H14   S    
C25   C30   A    
C36   C37   A    
C1    C20   S    
Cu2   N1    S    
C14   C19   A    
C15   H2    S    
C4    C5    A    
C21   H16   S    
C11   C12   S    
C6    C7    A    
Cu1   O5    S    
Cu2   O6    S    
C31   N1    A    
C17   H4    S    
C41   N5    T    
C12   O3    A    
C11   C13   A    
C8    C42   S    
C33   C35   S    
C40   N4    T    
C10   C11   A    
C5    C10   A    
C22   H5    S    
C20   C21   A    
C3    C37   A    
C27   C28   A    
C14   C15   A    
C2    C9    A    
C27   H9    S    
