data_mof_unit_10615.cif
_audit_creation_date              2013-03-05T16:48:29-0500
_audit_creation_method            fapswitch 2.2
_symmetry_space_group_name_H-M    P1
_symmetry_Int_Tables_number       1
_space_group_crystal_system       triclinic
_cell_length_a                    10.78859
_cell_length_b                    14.810531
_cell_length_c                    14.719437
_cell_angle_alpha                 64.152433
_cell_angle_beta                  104.935872
_cell_angle_gamma                 102.838686
_cell_volume                      2028.75387547

loop_
_atom_site_label
_atom_site_type_symbol
_atom_site_description
_atom_site_fract_x
_atom_site_fract_y
_atom_site_fract_z
_atom_type_partial_charge
O1    O     O_R   0.455540 0.022090 0.338120 -0.583406
O2    O     O_R   0.544460 0.977910 0.661880 -0.584677
O3    O     O_R   0.512510 0.160150 0.379180 -0.579180
O4    O     O_R   0.487490 0.839850 0.620820 -0.580968
C1    C     C_R   0.480029 0.119548 0.311977 0.787203
C2    C     C_R   0.524876 0.880228 0.688157 0.798006
O5    O     O_R   0.291160 0.930970 0.479480 -0.578408
O6    O     O_R   0.708840 0.069030 0.520520 -0.579085
O7    O     O_R   0.348130 0.069020 0.520540 -0.571902
O8    O     O_R   0.651870 0.930980 0.479460 -0.571846
C3    C     C_R   0.263099 0.999734 0.500800 0.815498
C4    C     C_R   0.736831 0.000123 0.499466 0.805266
Cu1   Cu    Cu3+1 0.466270 0.918260 0.475690 0.966978
Cu2   Cu    Cu3+1 0.533730 0.081740 0.524310 0.967010
H1    H     H_    0.441046 0.016043 0.917370 0.106809
H2    H     H_    0.551947 0.960628 0.095538 0.105782
C5    C     C_R   0.299196 0.917557 0.857408 0.047440
C6    C     C_R   0.683774 0.067549 0.150025 0.042071
C7    C     C_R   0.208209 0.912901 0.769542 -0.029043
C8    C     C_R   0.776817 0.078067 0.234614 -0.036324
C9    C     C_R   0.194118 0.002260 0.678165 -0.005434
C10   C     C_R   0.803996 0.990516 0.325636 0.001715
C11   C     C_R   0.265067 0.094354 0.676715 -0.057086
C12   C     C_R   0.742861 0.894955 0.330355 -0.054830
H3    H     H_    0.251128 0.163505 0.608561 0.143387
H4    H     H_    0.765486 0.827649 0.398780 0.145043
C13   C     C_R   0.353813 0.098304 0.762565 -0.132262
C14   C     C_R   0.652497 0.885233 0.247624 -0.133522
H5    H     H_    0.409404 0.169637 0.759996 0.135336
H6    H     H_    0.604851 0.811130 0.252597 0.135604
C15   C     C_R   0.370776 0.010846 0.851944 -0.243578
C16   C     C_R   0.623314 0.970550 0.158394 -0.241312
C17   C     C_R   0.965150 0.002644 0.585055 -0.056629
C18   C     C_R   0.034413 0.997563 0.415224 -0.052070
C19   C     C_R   0.870755 0.999312 0.499940 -0.123254
C20   C     C_R   0.129039 0.000642 0.500443 -0.122383
C21   C     C_R   0.904351 0.995580 0.415269 -0.076444
C22   C     C_R   0.095147 0.003257 0.585703 -0.072837
C23   C     C_R   0.454635 0.187250 0.203215 -0.058950
C24   C     C_R   0.545333 0.812687 0.797546 -0.036107
C25   C     C_R   0.310490 0.232043 0.039618 -0.151522
C26   C     C_R   0.636475 0.782309 0.975084 -0.173678
C27   C     C_R   0.355922 0.158857 0.134594 -0.165284
C28   C     C_R   0.611806 0.849225 0.872426 -0.160643
C29   C     C_R   0.515371 0.286671 0.172068 -0.174913
C30   C     C_R   0.499980 0.709700 0.827206 -0.246711
C31   C     C_R   0.458061 0.364551 0.084810 0.111713
C32   C     C_R   0.509744 0.643551 0.931263 0.125538
C33   C     C_R   0.357412 0.334715 0.015773 0.127615
C34   C     C_R   0.588596 0.679254 0.004396 0.152225
C35   C     C_R   0.497304 0.469969 0.063246 -0.018205
C36   C     C_R   0.449165 0.541683 0.963350 -0.013583
C37   C     C_R   0.339434 0.509756 0.900612 -0.036664
C38   C     C_R   0.577319 0.508398 0.136798 -0.002186
C39   C     C_R   0.299047 0.406937 0.926106 -0.168123
C40   C     C_R   0.618745 0.612279 0.105855 -0.170945
H7    H     H_    0.216648 0.382668 0.877923 0.202552
H8    H     H_    0.675836 0.641700 0.161749 0.182174
H9    H     H_    0.458699 0.681067 0.768304 0.148450
H10   H     H_    0.606649 0.300555 0.218138 0.143947
H11   H     H_    0.648626 0.928569 0.851373 0.154266
H12   H     H_    0.310533 0.081327 0.155852 0.160506
H13   H     H_    0.232927 0.209075 0.987474 0.147473
H14   H     H_    0.693139 0.811040 0.031490 0.139515
N1    N     N_R   0.584450 0.204570 0.560790 -0.193273
N2    N     N_R   0.415550 0.795430 0.439210 -0.195644
C41   C     C_R   0.701354 0.274014 0.682388 -0.116259
C42   C     C_R   0.289328 0.726370 0.319949 -0.121824
C43   C     C_R   0.678087 0.199850 0.643416 -0.015413
C44   C     C_R   0.320929 0.802330 0.356681 -0.011537
C45   C     C_R   0.513570 0.284643 0.508991 0.102418
C46   C     C_R   0.479327 0.711959 0.493499 0.093172
C47   C     C_R   0.541546 0.368891 0.537336 -0.062711
C48   C     C_R   0.443294 0.626685 0.466803 -0.072985
C49   C     C_R   0.626910 0.356338 0.632281 0.117693
C50   C     C_R   0.356866 0.640362 0.372123 0.121038
C51   C     C_R   0.482908 0.461689 0.480035 0.095860
C52   C     C_R   0.496285 0.531948 0.525308 0.082004
C53   C     C_R   0.556382 0.502797 0.629098 -0.218635
C54   C     C_R   0.416323 0.489401 0.377687 -0.207129
C55   C     C_R   0.625987 0.420605 0.679305 -0.115767
C56   C     C_R   0.349623 0.572872 0.327407 -0.130667
H15   H     H_    0.672804 0.404810 0.758060 0.208413
H16   H     H_    0.299642 0.587364 0.249561 0.205285
H17   H     H_    0.272868 0.869612 0.317262 0.146201
H18   H     H_    0.730827 0.135020 0.681988 0.144561
H19   H     H_    0.548505 0.541629 0.674245 0.159131
H20   H     H_    0.415260 0.449566 0.332039 0.142384
C57   C     C_2   0.251422 0.580881 0.818435 0.407075
H21   H     H_    0.251217 0.654335 0.817508 0.107894
O9    O     O_2   0.176994 0.557769 0.751662 -0.510922
C58   C     C_2   0.606285 0.447480 0.249079 0.333187
H22   H     H_    0.540368 0.382301 0.285489 0.067262
O10   O     O_2   0.703503 0.470534 0.302907 -0.504756
C59   C     C_1   0.596348 0.720077 0.565424 0.287428
N3    N     N_1   0.690567 0.726177 0.623013 -0.262407
C60   C     C_1   0.396797 0.273038 0.438400 0.266922
N4    N     N_1   0.302702 0.264506 0.381609 -0.277149
C61   C     C_2   0.804732 0.261560 0.774364 0.363277
H23   H     H_    0.830321 0.186575 0.825979 0.066324
O11   O     O_2   0.867231 0.334268 0.790605 -0.486177
C62   C     C_2   0.185099 0.741075 0.228160 0.366390
H24   H     H_    0.165803 0.817148 0.174622 0.068366
O12   O     O_2   0.115101 0.669516 0.214198 -0.484616
C63   C     C_2   0.326233 0.828577 0.955899 0.412186
H25   H     H_    0.376159 0.840227 0.024829 0.026378
O13   O     O_2   0.298946 0.742134 0.961352 -0.524076
C64   C     C_2   0.642867 0.153681 0.052323 0.407811
H26   H     H_    0.589584 0.139056 0.985649 0.026445
O14   O     O_2   0.662902 0.240721 0.045121 -0.496556
C65   C     C_2   0.122432 0.818843 0.771534 0.408185
H27   H     H_    0.100944 0.800199 0.705045 0.067898
O15   O     O_2   0.068384 0.765070 0.844173 -0.455899
C66   C     C_2   0.850376 0.176975 0.229737 0.436194
H28   H     H_    0.868759 0.195859 0.295859 0.060209
O16   O     O_2   0.898151 0.235123 0.154861 -0.455957
C67   C     C_1   0.928444 0.000291 0.674494 0.289732
N5    N     N_1   0.899748 0.997875 0.746125 -0.298293
C68   C     C_1   0.070293 0.000032 0.325529 0.289789
N6    N     N_1   0.097850 0.002294 0.253570 -0.313592

loop_
_geom_bond_atom_site_label_1
_geom_bond_atom_site_label_2
_geom_bond_distance
_ccdc_geom_bond_type
O5    Cu1   1.956812 S    
C29   H10   1.076688 S    
C17   C67   1.453875 S    
C30   H9    1.080500 S    
C13   H5    1.082828 S    
C18   C21   1.397114 A    
C47   C49   1.421939 A    
C59   N3    1.158353 T    
C53   H19   1.078746 S    
C60   N4    1.158860 T    
C31   C33   1.420041 A    
C51   C52   1.426895 A    
O5    C3    1.300777 A    
C63   O13   1.219539 D    
C48   C50   1.421489 A    
O1    C1    1.303815 A    
C10   C12   1.402125 A    
C3    C20   1.447991 S    
C19   C21   1.410503 A    
C42   C62   1.485404 S    
C64   H26   1.086159 S    
C29   C31   1.406484 A    
O4    Cu1   1.915049 S    
H2    C16   1.082358 S    
C17   C19   1.408218 A    
C46   C59   1.443507 S    
N2    C46   1.368768 A    
C9    C22   1.494325 S    
C65   H27   1.085383 S    
C40   H8    1.085476 S    
C11   C13   1.390285 A    
C57   O9    1.221622 D    
C18   C20   1.409549 A    
C41   C61   1.485300 S    
C23   C29   1.394681 A    
C32   C34   1.409426 A    
Cu1   Cu2   2.713575 S    
C25   C27   1.389655 A    
O2    C2    1.305993 A    
C26   C28   1.393001 A    
C25   C33   1.405651 A    
C55   H15   1.080683 S    
C66   H28   1.085374 S    
C30   C32   1.403982 A    
Cu1   N2    2.038399 S    
C37   C39   1.393108 A    
C38   C40   1.400922 A    
C13   C15   1.391923 A    
C35   C36   1.431663 A    
C14   C16   1.391899 A    
C54   C56   1.384533 A    
C50   C56   1.396751 A    
C53   C55   1.388397 A    
C52   C53   1.406921 A    
C49   C55   1.402648 A    
C31   C35   1.435623 A    
C33   C39   1.386565 A    
C10   C21   1.494125 S    
C34   C40   1.386117 A    
C41   C43   1.396867 A    
O1    Cu1   1.929160 S    
C24   C30   1.397976 A    
O7    Cu2   1.957605 S    
C38   C58   1.483916 S    
C5    C63   1.486761 S    
C45   C60   1.442579 S    
C66   O16   1.220636 D    
C61   H23   1.085915 S    
C24   C28   1.400757 A    
O6    C4    1.299896 A    
C58   O10   1.221808 D    
C65   O15   1.220638 D    
C4    C19   1.445771 S    
C62   O12   1.220650 D    
O7    C3    1.297392 A    
O3    Cu2   1.915049 S    
O8    C4    1.297003 A    
C26   C34   1.404587 A    
C46   C48   1.427017 A    
C61   O11   1.220696 D    
C8    C10   1.419165 A    
C56   H16   1.080862 S    
C39   H7    1.085235 S    
C37   C57   1.488557 S    
C5    C15   1.404552 A    
C2    C24   1.467114 S    
O4    C2    1.306244 A    
C41   C49   1.421740 A    
C25   H13   1.084033 S    
C20   C22   1.412580 A    
C26   H14   1.083940 S    
C36   C37   1.430486 A    
C45   C47   1.429593 A    
C51   C54   1.409996 A    
C18   C68   1.452357 S    
C1    C23   1.462771 S    
O6    Cu2   1.956813 S    
C7    C9    1.419721 A    
C12   C14   1.390188 A    
C12   H4    1.083353 S    
O3    C1    1.307369 A    
O8    Cu1   1.957605 S    
C23   C27   1.395735 A    
C68   N6    1.156864 T    
H1    C15   1.081873 S    
C7    C65   1.484350 S    
C28   H11   1.083155 S    
C42   C50   1.419285 A    
C63   H25   1.085811 S    
C17   C22   1.398099 A    
C35   C38   1.441680 A    
C9    C11   1.402064 A    
C54   H20   1.066924 S    
N1    C45   1.373525 A    
C67   N5    1.157257 T    
C8    C66   1.483867 S    
N2    C44   1.351696 A    
N1    C43   1.352224 A    
C14   H6    1.082928 S    
C58   H22   1.079390 S    
C5    C7    1.426295 A    
Cu2   N1    2.038399 S    
C64   O14   1.220075 D    
C6    C8    1.427427 A    
C11   H3    1.082922 S    
C62   H24   1.085937 S    
O2    Cu2   1.929161 S    
C6    C64   1.487828 S    
C32   C36   1.423392 A    
C6    C16   1.405393 A    
C42   C44   1.392524 A    
C48   C52   1.444383 A    
C47   C51   1.449514 A    
C57   H21   1.082508 S    
C44   H17   1.081159 S    
C43   H18   1.081184 S    
C27   H12   1.082582 S    
