data_mof_unit_45221.cif
_audit_creation_date              2012-12-10T19:04:13-0500
_audit_creation_method            fapswitch 2.2
_symmetry_space_group_name_H-M    P1
_symmetry_Int_Tables_number       1
_space_group_crystal_system       triclinic
_cell_length_a                    10.627168
_cell_length_b                    10.82825
_cell_length_c                    9.55745
_cell_angle_alpha                 90.2873
_cell_angle_beta                  89.645175
_cell_angle_gamma                 90.155872
_cell_volume                      1099.77158965

loop_
_atom_site_label
_atom_site_type_symbol
_atom_type_description
_atom_site_fract_x
_atom_site_fract_y
_atom_site_fract_z
_atom_type_partial_charge
C1    C     C_R   0.497306 0.262409 0.499652 0.794828
C2    C     C_3   0.960551 0.495344 0.367015 -0.140891
C3    C     C_3   0.042427 0.396280 0.438029 -0.173904
C4    C     C_3   0.122366 0.499960 0.501558 0.028231
C5    C     C_R   0.479508 0.064612 0.624550 0.125823
C6    C     C_R   0.484241 0.129398 0.498900 -0.100212
C7    C     C_R   0.471275 0.063767 0.372502 -0.224555
C8    C     C_R   0.471808 0.934964 0.372927 -0.224803
C9    C     C_R   0.485272 0.870940 0.499755 -0.100281
C10   C     C_R   0.480000 0.937487 0.625111 0.132122
C11   C     C_3   0.563820 0.933301 0.749869 -0.488331
C12   C     C_R   0.259299 0.500005 0.500473 0.779528
C13   C     C_3   0.562902 0.073373 0.749267 -0.457531
C14   C     C_R   0.608408 0.521607 0.073020 0.260202
C15   C     C_R   0.395938 0.466242 0.074707 -0.091570
C16   C     C_R   0.395871 0.466436 0.926176 -0.090034
C17   C     C_R   0.608675 0.520630 0.925788 0.265956
C18   C     C_3   0.689840 0.632813 0.919412 -0.515386
C19   C     C_3   0.688072 0.635040 0.078283 -0.502753
C20   C     C_R   0.497850 0.737727 0.500156 0.795987
C21   C     C_R   0.740697 0.499786 0.499589 0.780960
C22   C     C_3   0.039509 0.504064 0.633493 -0.140780
C23   C     C_3   0.957250 0.400401 0.569751 -0.168021
C24   C     C_3   0.877632 0.499528 0.498836 0.027246
C25   C     C_3   0.957584 0.603177 0.562513 -0.174114
C26   C     C_3   0.042714 0.599068 0.430725 -0.166216
Cu1   Cu    Cu3+1 0.499990 0.499980 0.640670 0.934556
Cu2   Cu    Cu3+1 0.500010 0.500020 0.359330 0.933294
H1    H     H_    0.657856 0.893596 0.725291 0.191354
H2    H     H_    0.513621 0.114150 0.841387 0.197685
H3    H     H_    0.656266 0.114824 0.724569 0.193704
H4    H     H_    0.311004 0.440002 0.129785 0.144345
H5    H     H_    0.310905 0.440541 0.871796 0.139730
H6    H     H_    0.784309 0.612496 0.874408 0.194114
H7    H     H_    0.640979 0.712298 0.872105 0.212096
H8    H     H_    0.781861 0.617402 0.124507 0.188834
H9    H     H_    0.637249 0.715865 0.123064 0.211871
H10   H     H_    0.074366 0.507669 0.742714 0.126068
H11   H     H_    0.919583 0.687718 0.613413 0.121039
H12   H     H_    0.080775 0.680341 0.373955 0.127123
H13   H     H_    0.926368 0.490772 0.257683 0.125422
H14   H     H_    0.080343 0.311672 0.387217 0.123234
H15   H     H_    0.467138 0.111210 0.273145 0.165407
H16   H     H_    0.467909 0.886320 0.273738 0.163697
H17   H     H_    0.515110 0.893777 0.842722 0.196945
N1    N     N_R   0.500800 0.500930 0.147930 -0.184753
N2    N     N_R   0.500800 0.500890 0.852020 -0.183775
O1    O     O_R   0.500000 0.319640 0.618810 -0.578313
O2    O     O_R   0.500010 0.319680 0.381230 -0.584311
O3    O     O_R   0.316850 0.499950 0.618770 -0.593892
O4    O     O_R   0.316860 0.499990 0.381190 -0.591559
O5    O     O_R   0.499990 0.680320 0.618770 -0.575423
O6    O     O_R   0.500000 0.680360 0.381190 -0.583619
O7    O     O_R   0.683140 0.500010 0.618810 -0.584517
O8    O     O_R   0.683150 0.500050 0.381230 -0.584476
H18   H     H_    0.919075 0.319151 0.626477 0.122621

loop_
_geom_bond_atom_site_label_1
_geom_bond_atom_site_label_2
_ccdc_geom_bond_type
Cu1   O1    S    
C12   O3    A    
C23   C24   S    
C3    H14   S    
C6    C7    A    
C7    H15   S    
C16   H5    S    
C4    C12   S    
C4    C22   S    
C9    C10   A    
C9    C20   S    
C4    C26   S    
C18   H7    S    
Cu1   O3    S    
Cu2   O6    S    
C26   H12   S    
C17   C18   S    
Cu1   O7    S    
C7    C8    A    
C2    C26   S    
C24   C25   S    
C11   C13   S    
C14   C17   A    
Cu2   N1    S    
C5    C6    A    
C1    O2    A    
C16   N2    A    
Cu2   O8    S    
C2    C3    S    
C19   H8    S    
C18   H6    S    
C1    O1    A    
C2    C24   S    
C21   O7    A    
Cu2   O4    S    
C11   H17   S    
C10   C11   S    
C2    H13   S    
Cu1   N2    S    
C1    C6    S    
C22   H10   S    
C8    H16   S    
C13   H2    S    
C5    C10   A    
C12   O4    A    
Cu1   O5    S    
C11   H1    S    
C20   O5    A    
C18   C19   S    
Cu2   O2    S    
C21   C24   S    
C23   H18   S    
Cu1   Cu2   S    
C21   O8    A    
C3    C23   S    
C22   C23   S    
C20   O6    A    
C19   H9    S    
C15   N1    A    
C25   C26   S    
C5    C13   S    
C14   C19   S    
C13   H3    S    
C25   H11   S    
C3    C4    S    
C15   C16   A    
C17   N2    A    
C8    C9    A    
C14   N1    A    
C22   C25   S    
C15   H4    S    
