data_mof_unit_13053.cif
_audit_creation_date              2012-12-10T17:08:14-0500
_audit_creation_method            fapswitch 2.2
_symmetry_space_group_name_H-M    P1
_symmetry_Int_Tables_number       1
_space_group_crystal_system       triclinic
_cell_length_a                    23.529429
_cell_length_b                    11.047963
_cell_length_c                    9.948997
_cell_angle_alpha                 111.888107
_cell_angle_beta                  97.510965
_cell_angle_gamma                 93.566888
_cell_volume                      2361.87412647

loop_
_atom_site_label
_atom_site_type_symbol
_atom_type_description
_atom_site_fract_x
_atom_site_fract_y
_atom_site_fract_z
_atom_type_partial_charge
C1    C     C_R   0.497159 0.253963 0.439382 0.768556
C2    C     C_R   0.505966 0.746248 0.560742 0.796871
C3    C     C_R   0.228819 0.491431 0.392609 -0.174985
C4    C     C_R   0.754144 0.448893 0.371645 -0.228138
C5    C     C_R   0.288184 0.503015 0.387995 0.120892
C6    C     C_R   0.694293 0.446985 0.365656 0.111750
C7    C     C_R   0.327572 0.486882 0.499072 -0.101390
C8    C     C_R   0.671506 0.500357 0.497373 -0.063191
C9    C     C_R   0.305797 0.456844 0.609264 -0.250918
C10   C     C_R   0.709476 0.554259 0.632284 -0.342390
C11   C     C_R   0.247043 0.449512 0.616011 0.198965
C12   C     C_R   0.769097 0.555357 0.637464 0.197030
C13   C     C_R   0.208113 0.466714 0.506614 0.289735
C14   C     C_R   0.791434 0.502557 0.506549 0.348287
C15   C     C_2   0.496400 0.112606 0.404152 -0.141408
C16   C     C_2   0.520425 0.886590 0.596238 -0.131610
C17   C     C_2   0.520151 0.069614 0.507619 0.417549
C18   C     C_2   0.496017 0.940754 0.504846 0.394313
C19   C     C_2   0.504197 0.516068 0.081919 0.385827
C20   C     C_2   0.492569 0.493631 0.921529 0.396675
C21   C     C_R   0.390846 0.497088 0.500148 0.791639
C22   C     C_R   0.608847 0.499805 0.498560 0.782048
C23   C     C_R   0.887765 0.611167 0.543701 0.588246
C24   C     C_R   0.112562 0.359802 0.487215 0.547581
C25   C     C_R   0.873475 0.380703 0.486509 0.579959
C26   C     C_R   0.127885 0.592031 0.557805 0.550829
C27   C     C_R   0.933306 0.372325 0.489832 -0.062941
C28   C     C_R   0.068482 0.602207 0.563314 -0.079944
C29   C     C_R   0.970828 0.489632 0.526490 -0.129622
C30   C     C_R   0.030977 0.485513 0.529271 -0.114765
C31   C     C_R   0.948131 0.610990 0.559348 -0.145554
C32   C     C_R   0.053649 0.364501 0.498629 -0.116572
C33   C     C_R   0.956748 0.251955 0.463692 0.049395
C34   C     C_R   0.045355 0.724205 0.603584 0.045929
C35   C     C_R   0.017213 0.251626 0.481271 0.434026
C36   C     C_R   0.986097 0.728647 0.608600 0.489318
Cu1   Cu    Cu3+1 0.509980 0.521810 0.644910 0.947669
Cu2   Cu    Cu3+1 0.490020 0.478190 0.355090 0.983354
H1    H     H_    0.198378 0.505808 0.309838 0.142148
H2    H     H_    0.771778 0.407001 0.271120 0.145815
H3    H     H_    0.334086 0.437131 0.690420 0.168633
H4    H     H_    0.693048 0.595746 0.734675 0.174456
N1    N     N_R   0.852391 0.497935 0.510721 -0.456970
N2    N     N_R   0.148014 0.472440 0.517897 -0.463135
N3    N     N_2   0.475010 0.445410 0.137370 -0.028929
N4    N     N_2   0.524990 0.554590 0.862630 -0.038787
O1    O     O_R   0.505330 0.332340 0.577400 -0.554929
O2    O     O_R   0.494670 0.667660 0.422600 -0.573766
O3    O     O_R   0.488470 0.295500 0.332650 -0.556079
O4    O     O_R   0.511530 0.704500 0.667350 -0.612492
O5    O     O_R   0.426310 0.518390 0.622390 -0.613601
O6    O     O_R   0.573690 0.481610 0.377610 -0.556944
O7    O     O_R   0.409450 0.481550 0.377650 -0.559281
O8    O     O_R   0.590550 0.518450 0.622350 -0.581348
O9    O     O_2   0.864136 0.722813 0.559238 -0.501514
O10   O     O_2   0.134135 0.243512 0.441806 -0.507310
O11   O     O_2   0.836292 0.273813 0.461943 -0.532011
O12   O     O_2   0.165845 0.699665 0.591336 -0.571101
N5    N     N_3   0.919413 0.130644 0.421130 -0.508972
H5    H     H_    0.897035 0.110238 0.315727 0.238051
H6    H     H_    0.942574 0.050992 0.410941 0.254093
N6    N     N_3   0.080425 0.846497 0.640304 -0.593869
H7    H     H_    0.099284 0.844636 0.550193 0.276207
H8    H     H_    0.111699 0.863606 0.732268 0.254454
O13   O     O_3   0.579876 0.596005 0.933378 -0.521199
C37   C     C_3   0.593110 0.725838 0.944072 0.203238
H9    H     H_    0.556834 0.785155 0.976629 0.131264
H10   H     H_    0.602728 0.725863 0.838014 0.162688
C38   C     C_3   0.646759 0.790821 0.060550 -0.396430
H11   H     H_    0.638678 0.790108 0.167872 0.238456
H12   H     H_    0.683645 0.734312 0.028444 0.220981
C39   C     C_3   0.662634 0.932588 0.077918 -0.940471
H13   H     H_    0.670990 0.936026 0.971969 0.253724
H14   H     H_    0.702326 0.976054 0.161004 0.275401
H15   H     H_    0.627147 0.992107 0.115256 0.258776
O14   O     O_3   0.454456 0.321167 0.044485 -0.511764
C40   C     C_3   0.393600 0.305699 0.034935 0.199743
H16   H     H_    0.374172 0.274600 0.917504 0.139684
H17   H     H_    0.375592 0.397753 0.095459 0.168193
C41   C     C_3   0.374361 0.197174 0.085608 -0.362715
H18   H     H_    0.395163 0.108114 0.030639 0.217381
H19   H     H_    0.387353 0.230392 0.205969 0.236079
C42   C     C_3   0.308892 0.161642 0.049418 -0.918499
H20   H     H_    0.287063 0.249020 0.103844 0.278157
H21   H     H_    0.296406 0.084076 0.089470 0.262002
H22   H     H_    0.294161 0.123820 0.928794 0.260016
O15   O     O_3   0.040920 0.141955 0.487838 -0.577663
C43   C     C_3   0.039326 0.138719 0.628672 0.067663
H23   H     H_    0.032030 0.034539 0.613881 0.222802
H24   H     H_    0.002866 0.185276 0.681537 0.135121
C44   C     C_3   0.096710 0.201858 0.731504 -0.338657
H25   H     H_    0.132456 0.149961 0.682175 0.250757
H26   H     H_    0.104302 0.306500 0.746043 0.204902
C45   C     C_3   0.096650 0.196567 0.882587 -0.913448
H27   H     H_    0.061342 0.248433 0.934253 0.253548
H28   H     H_    0.138500 0.245293 0.954425 0.264291
H29   H     H_    0.090964 0.093270 0.873461 0.261651
O16   O     O_3   0.964914 0.849428 0.655694 -0.567409
C46   C     C_3   0.978100 0.911912 0.811059 0.064084
H30   H     H_    0.979962 0.019540 0.839940 0.165952
H31   H     H_    0.021081 0.894717 0.857935 0.133072
C47   C     C_3   0.931062 0.870525 0.883700 -0.325047
H32   H     H_    0.888656 0.893269 0.841584 0.257987
H33   H     H_    0.928440 0.763105 0.856819 0.221883
C48   C     C_3   0.943836 0.942157 0.050331 -0.919076
H34   H     H_    0.985783 0.919871 0.095581 0.276531
H35   H     H_    0.909256 0.909146 0.099368 0.259089
H36   H     H_    0.945345 0.049985 0.081034 0.256069
N7    N     N_3   0.308249 0.532957 0.272350 -0.593032
H37   H     H_    0.331641 0.626278 0.320145 0.232266
H38   H     H_    0.273587 0.538188 0.198173 0.212578
N8    N     N_3   0.657105 0.387800 0.226225 -0.548668
H39   H     H_    0.668066 0.436973 0.159784 0.232159
H40   H     H_    0.665149 0.290212 0.177150 0.222085
N9    N     N_3   0.228166 0.427992 0.737249 -0.607397
H41   H     H_    0.203475 0.502347 0.787823 0.220901
H42   H     H_    0.202118 0.338000 0.696672 0.238013
N10   N     N_3   0.807155 0.608030 0.775773 -0.594148
H43   H     H_    0.795557 0.556319 0.839183 0.218065
H44   H     H_    0.800473 0.705986 0.829453 0.223434
O17   O     O_3   0.445163 0.877312 0.408714 -0.603977
C49   C     C_3   0.398018 0.901696 0.486721 0.050784
H45   H     H_    0.405910 0.995787 0.585896 0.127814
H46   H     H_    0.389291 0.819626 0.523141 0.142974
C50   C     C_3   0.344618 0.909292 0.385791 -0.353638
H47   H     H_    0.351112 0.999778 0.362948 0.211862
H48   H     H_    0.338246 0.823391 0.279500 0.229959
C51   C     C_3   0.290503 0.912918 0.456173 -0.870661
H49   H     H_    0.282166 0.822291 0.477787 0.268913
H50   H     H_    0.252691 0.919369 0.380751 0.267902
H51   H     H_    0.295609 0.000013 0.561154 0.256272
O18   O     O_3   0.559590 0.152545 0.629972 -0.576382
C52   C     C_3   0.611262 0.190467 0.588281 0.132392
H52   H     H_    0.630898 0.286642 0.674599 0.186481
H53   H     H_    0.604240 0.206264 0.483493 0.098526
C53   C     C_3   0.654554 0.090825 0.578154 -0.430395
H54   H     H_    0.665609 0.083591 0.686706 0.239893
H55   H     H_    0.635085 0.992660 0.495674 0.215922
C54   C     C_3   0.709853 0.132251 0.533222 -0.806973
H56   H     H_    0.700097 0.139733 0.424483 0.258473
H57   H     H_    0.740340 0.058079 0.525575 0.274149
H58   H     H_    0.730869 0.228919 0.615922 0.265667
N11   N     N_3   0.563826 0.960245 0.721186 -0.550319
H59   H     H_    0.548617 0.959974 0.815223 0.232858
H60   H     H_    0.600549 0.910975 0.711544 0.190786
N12   N     N_3   0.469525 0.021233 0.260809 -0.565399
H61   H     H_    0.426975 0.040538 0.242333 0.218871
H62   H     H_    0.491138 0.038703 0.183239 0.227503
N13   N     N_3   0.436253 0.432187 0.846769 -0.638637
H63   H     H_    0.411214 0.507149 0.848773 0.204715
H64   H     H_    0.437322 0.364587 0.741426 0.260043
N14   N     N_3   0.538311 0.637691 0.175612 -0.608304
H65   H     H_    0.567400 0.626991 0.257312 0.254721
H66   H     H_    0.511363 0.709694 0.216411 0.246310

loop_
_geom_bond_atom_site_label_1
_geom_bond_atom_site_label_2
_ccdc_geom_bond_type
C37   H10   S    
O15   C43   S    
C27   C29   A    
C11   C13   A    
C43   H24   S    
C19   C20   S    
C51   H49   S    
C25   N1    A    
N8    H40   S    
C26   N2    A    
C22   O8    A    
Cu2   O3    S    
C40   H16   S    
C27   C33   A    
C48   H35   S    
N6    H7    S    
C42   H20   S    
C38   H11   S    
N13   H64   S    
Cu1   O5    S    
C54   H58   S    
C37   C38   S    
Cu2   O6    S    
N9    H41   S    
C34   N6    S    
C23   N1    A    
C20   N13   S    
C47   C48   S    
N11   H60   S    
C38   H12   S    
N10   H43   S    
Cu2   N3    S    
N6    H8    S    
C2    O4    A    
C35   O15   S    
C4    H2    S    
O18   C52   S    
N9    H42   S    
C52   C53   S    
C8    C22   S    
C1    C15   S    
C26   C28   A    
Cu1   O1    S    
C29   C30   A    
C2    C16   S    
Cu2   O2    S    
C3    C13   A    
C39   H13   S    
C37   H9    S    
C3    H1    S    
N5    H5    S    
C33   N5    S    
C17   O18   S    
C47   H32   S    
C25   O11   S    
C39   H15   S    
N8    H39   S    
C17   C18   S    
N12   H62   S    
C40   H17   S    
C48   H36   S    
N5    H6    S    
C32   C35   A    
C16   N11   S    
O14   C40   S    
N4    O13   S    
C39   H14   S    
C44   H25   S    
C5    C7    A    
C1    O1    A    
C6    C8    A    
C45   H29   S    
C2    O2    A    
C7    C21   S    
C44   H26   S    
C53   C54   S    
C38   C39   S    
C47   H33   S    
C24   C32   A    
Cu1   Cu2   S    
C50   H48   S    
C50   C51   S    
C9    C11   A    
C46   H30   S    
C43   C44   S    
C46   C47   S    
C19   N14   S    
C16   C18   D    
C43   H23   S    
C45   H28   S    
C10   H4    S    
C26   O12   S    
O17   C49   S    
C10   C12   A    
C12   N10   S    
Cu1   O8    S    
C53   H55   S    
C42   H21   S    
C12   C14   A    
O16   C46   S    
N3    O14   S    
C50   H47   S    
C24   N2    A    
C4    C6    A    
C24   O10   S    
C49   H46   S    
C51   H51   S    
C21   O5    A    
C11   N9    S    
C22   O6    A    
N12   H61   S    
C40   C41   S    
C15   C17   D    
C46   H31   S    
C6    N8    S    
N14   H66   S    
C41   H18   S    
C3    C5    A    
C51   H50   S    
C15   N12   S    
C54   H56   S    
C19   N3    D    
C23   O9    S    
C25   C27   A    
C48   H34   S    
C9    H3    S    
C49   C50   S    
N7    H38   S    
C49   H45   S    
C29   C31   A    
N7    H37   S    
C44   C45   S    
C30   C32   A    
Cu1   O4    S    
C54   H57   S    
C52   H52   S    
Cu2   O7    S    
C5    N7    S    
C21   O7    A    
C28   C30   A    
C41   C42   S    
C33   C35   A    
C41   H19   S    
C34   C36   A    
C4    C14   A    
C45   H27   S    
N10   H44   S    
C18   O17   S    
C28   C34   A    
C7    C9    A    
C42   H22   S    
N14   H65   S    
C8    C10   A    
O13   C37   S    
C52   H53   S    
C31   C36   A    
C53   H54   S    
C36   O16   S    
Cu1   N4    S    
N13   H63   S    
C1    O3    A    
C13   N2    S    
C20   N4    D    
N11   H59   S    
C23   C31   A    
C14   N1    S    
