data_mof_unit_5704.cif
_audit_creation_date              2012-12-10T17:51:29-0500
_audit_creation_method            fapswitch 2.2
_symmetry_space_group_name_H-M    P1
_symmetry_Int_Tables_number       1
_space_group_crystal_system       triclinic
_cell_length_a                    9.902801
_cell_length_b                    10.687902
_cell_length_c                    16.540733
_cell_angle_alpha                 92.851245
_cell_angle_beta                  85.968509
_cell_angle_gamma                 90.486977
_cell_volume                      1744.15812613

loop_
_atom_site_label
_atom_site_type_symbol
_atom_type_description
_atom_site_fract_x
_atom_site_fract_y
_atom_site_fract_z
_atom_type_partial_charge
C1    C     C_R   0.501623 0.737401 0.488776 0.883073
C2    C     C_R   0.348046 0.493285 0.788818 0.134434
C3    C     C_R   0.435939 0.296482 0.164066 -0.172741
C4    C     C_R   0.428145 0.356701 0.240174 -0.234346
C5    C     C_R   0.639302 0.468713 0.206615 0.157242
C6    C     C_R   0.646463 0.405393 0.130244 -0.179812
C7    C     C_R   0.543449 0.322595 0.108522 0.144966
C8    C     C_2   0.438617 0.370738 0.989436 -0.181578
C9    C     C_2   0.526867 0.297640 0.022681 -0.259908
C10   C     C_R   0.527294 0.444729 0.261947 -0.074793
C11   C     C_R   0.272626 0.868129 0.422675 -0.152053
C12   C     C_R   0.481797 0.495879 0.653983 0.927751
C13   C     C_R   0.146127 0.924612 0.425808 -0.116009
C14   C     C_R   0.127076 0.040720 0.466288 -0.174918
C15   C     C_R   0.237300 0.105266 0.496544 -0.193433
C16   C     C_R   0.370491 0.055676 0.484589 0.109739
C17   C     C_R   0.382675 0.929621 0.458255 0.101586
C18   C     C_R   0.503664 0.867931 0.471489 -0.139358
C19   C     C_R   0.622366 0.935181 0.483061 -0.237827
C20   C     C_R   0.617144 0.062567 0.494690 -0.232246
C21   C     C_R   0.492512 0.123991 0.497918 -0.125948
C22   C     C_R   0.858983 0.703395 0.584664 0.248459
C23   C     C_R   0.497844 0.259096 0.501846 0.862622
C24   C     C_R   0.934890 0.812829 0.600438 -0.248548
C25   C     C_R   0.072792 0.803890 0.605370 -0.243993
C26   C     C_R   0.135958 0.691074 0.584278 -0.125321
C27   C     C_R   0.069729 0.595837 0.540965 0.129221
C28   C     C_R   0.925248 0.598576 0.540805 0.070793
C29   C     C_R   0.932122 0.407647 0.460890 -0.130504
C30   C     C_R   0.075240 0.408447 0.460200 -0.138267
C31   C     C_R   0.518124 0.493356 0.346253 0.831413
C32   C     C_R   0.470652 0.469626 0.741037 -0.177087
C33   C     C_R   0.578448 0.409997 0.775051 0.149532
C34   C     C_R   0.564951 0.378462 0.855346 -0.264093
C35   C     C_R   0.442675 0.395193 0.902315 0.105738
C36   C     C_R   0.330810 0.450492 0.868762 0.143849
H1    H     H_    0.726539 0.428494 0.085195 0.133224
H2    H     H_    0.718400 0.889190 0.487613 0.176140
H3    H     H_    0.283783 0.776356 0.392317 0.153784
H4    H     H_    0.061581 0.875672 0.400358 0.134254
H5    H     H_    0.026788 0.081066 0.474239 0.129584
H6    H     H_    0.213393 0.190199 0.532217 0.173511
H7    H     H_    0.711199 0.112302 0.503573 0.166908
H8    H     H_    0.881476 0.332185 0.428901 0.138437
H9    H     H_    0.887256 0.898414 0.625173 0.163242
H10   H     H_    0.343674 0.333967 0.282255 0.166786
H11   H     H_    0.128849 0.881249 0.631772 0.169623
H12   H     H_    0.235088 0.679904 0.604095 0.228585
H13   H     H_    0.132107 0.334213 0.427004 0.145415
H14   H     H_    0.600507 0.239529 0.987172 0.153366
H15   H     H_    0.354137 0.235077 0.146677 0.145011
H16   H     H_    0.371301 0.427615 0.030438 0.164566
H17   H     H_    0.653117 0.340953 0.880347 0.145432
N1    N     N_R   0.857140 0.501200 0.500750 -0.103506
N2    N     N_R   0.142740 0.501280 0.500770 -0.113113
O1    O     O_R   0.385310 0.683220 0.500000 -0.644809
O2    O     O_R   0.614640 0.683250 0.500010 -0.594310
O3    O     O_R   0.371780 0.500010 0.615800 -0.614616
O4    O     O_R   0.601110 0.500030 0.615800 -0.567956
O5    O     O_R   0.385360 0.316750 0.499990 -0.635080
O6    O     O_R   0.614690 0.316780 0.500000 -0.616718
O7    O     O_R   0.398890 0.499970 0.384200 -0.620927
O8    O     O_R   0.628220 0.499990 0.384200 -0.603717
Zn1   Zn    Zn3+2 0.346870 0.499980 0.499990 0.923055
Zn2   Zn    Zn3+2 0.653130 0.500020 0.500010 0.956152
N3    N     N_2   0.701397 0.379231 0.728726 -0.286758
H18   H     H_    0.786966 0.399524 0.759184 0.208490
C37   C     C_3   0.704173 0.253327 0.692264 -0.739360
H19   H     H_    0.795979 0.241514 0.650090 0.228348
H20   H     H_    0.613665 0.235399 0.657351 0.239225
H21   H     H_    0.706620 0.183801 0.739921 0.217450
N4    N     N_2   0.745281 0.682438 0.639565 -0.229510
H22   H     H_    0.768235 0.618989 0.681533 0.230786
C38   C     C_3   0.668547 0.787091 0.677881 -0.803649
H23   H     H_    0.572573 0.751660 0.707164 0.225915
H24   H     H_    0.643161 0.854447 0.632704 0.249867
H25   H     H_    0.726251 0.835211 0.725689 0.219621
C39   C     C_3   0.746359 0.566675 0.223660 -0.419208
C40   C     C_3   0.878877 0.505765 0.242131 -0.821736
H26   H     H_    0.953713 0.579474 0.257719 0.240643
H27   H     H_    0.862081 0.444558 0.294179 0.270894
H28   H     H_    0.921115 0.448769 0.188409 0.243293
H29   H     H_    0.765012 0.624447 0.169881 0.192915
H30   H     H_    0.712597 0.633164 0.274563 0.207931
C41   C     C_3   0.194277 0.463482 0.917724 -0.428038
C42   C     C_3   0.126578 0.335986 0.929127 -0.886506
H31   H     H_    0.111236 0.288694 0.869101 0.257607
H32   H     H_    0.188641 0.275090 0.964105 0.269088
H33   H     H_    0.026296 0.348997 0.962865 0.242731
H34   H     H_    0.205675 0.513133 0.977273 0.191133
H35   H     H_    0.121580 0.521940 0.888945 0.214255
N5    N     N_2   0.244056 0.562682 0.756369 -0.290697
H36   H     H_    0.150199 0.520097 0.757760 0.227616
C43   C     C_3   0.242324 0.694576 0.780996 -0.849169
H37   H     H_    0.153226 0.739748 0.758016 0.244087
H38   H     H_    0.335415 0.741015 0.755607 0.243017
H39   H     H_    0.235646 0.708274 0.848158 0.239762

loop_
_geom_bond_atom_site_label_1
_geom_bond_atom_site_label_2
_ccdc_geom_bond_type
N3    C37   S    
O8    Zn2   S    
C16   C21   A    
C35   C36   A    
C41   H35   S    
N1    Zn2   S    
C4    H10   S    
C41   C42   S    
C26   C27   A    
C38   H24   S    
C24   H9    S    
C1    O1    A    
C18   C19   A    
C3    C7    A    
C5    C6    A    
C27   N2    A    
C29   N1    A    
C15   C16   A    
C2    C32   A    
C34   C35   A    
C13   H4    S    
O7    Zn1   S    
C37   H19   S    
C12   O4    A    
C10   C31   S    
C19   C20   A    
C16   C17   A    
C38   H25   S    
O1    Zn1   S    
C8    H16   S    
C26   H12   S    
C12   O3    A    
N3    H18   S    
C22   C28   A    
C13   C14   A    
C12   C32   S    
C31   O7    A    
C39   H29   S    
C22   N4    S    
C33   N3    S    
C33   C34   A    
O3    Zn1   S    
C23   O5    A    
C2    N5    S    
C38   H23   S    
C31   O8    A    
C24   C25   A    
N4    C38   S    
C40   H27   S    
C3    H15   S    
C39   C40   S    
C8    C9    D    
C43   H39   S    
C25   C26   A    
C8    C35   S    
C11   H3    S    
C29   C30   A    
C19   H2    S    
C1    O2    A    
N2    Zn1   S    
N5    C43   S    
C17   C18   A    
C1    C18   S    
C6    H1    S    
C43   H38   S    
C14   H5    S    
C30   H13   S    
C21   C23   S    
C29   H8    S    
C22   C24   A    
C4    C10   A    
C3    C4    A    
C20   H7    S    
C2    C36   A    
C7    C9    S    
C25   H11   S    
C11   C17   A    
C28   N1    A    
C42   H31   S    
C9    H14   S    
C15   H6    S    
O2    Zn2   S    
N4    H22   S    
C42   H33   S    
C40   H28   S    
C41   H34   S    
C6    C7    A    
C36   C41   S    
C30   N2    A    
O5    Zn1   S    
C32   C33   A    
C5    C10   A    
O4    Zn2   S    
C11   C13   A    
C37   H21   S    
N5    H36   S    
C42   H32   S    
O6    Zn2   S    
C43   H37   S    
C40   H26   S    
C39   H30   S    
C23   O6    A    
C20   C21   A    
C34   H17   S    
C37   H20   S    
C27   C28   A    
C14   C15   A    
C5    C39   S    
