data_mof_unit_25197.cif
_audit_creation_date              2012-12-10T18:54:28-0500
_audit_creation_method            fapswitch 2.2
_symmetry_space_group_name_H-M    P1
_symmetry_Int_Tables_number       1
_space_group_crystal_system       triclinic
_cell_length_a                    10.768198
_cell_length_b                    9.980871
_cell_length_c                    23.3196
_cell_angle_alpha                 90.636532
_cell_angle_beta                  91.594706
_cell_angle_gamma                 90.082409
_cell_volume                      2505.16807001

loop_
_atom_site_label
_atom_site_type_symbol
_atom_type_description
_atom_site_fract_x
_atom_site_fract_y
_atom_site_fract_z
_atom_type_partial_charge
C1    C     C_R   0.259755 0.500051 0.496807 0.916272
C2    C     C_R   0.538353 0.398774 0.704342 -0.208017
C3    C     C_R   0.383680 0.397609 0.241354 -0.117806
C4    C     C_R   0.521229 0.391566 0.762851 -0.114766
C5    C     C_R   0.426526 0.505431 0.209514 0.308391
C6    C     C_R   0.443190 0.483551 0.789630 0.298537
C7    C     C_R   0.063421 0.378868 0.473808 0.370269
C8    C     C_R   0.932954 0.617765 0.475951 0.328847
C9    C     C_R   0.934644 0.375508 0.475832 0.344050
C10   C     C_R   0.060206 0.622084 0.485625 0.312085
C11   C     C_R   0.870318 0.496739 0.483061 -0.418870
C12   C     C_R   0.738815 0.499218 0.494287 0.951187
C13   C     C_R   0.126364 0.500205 0.487033 -0.427142
C14   C     C_R   0.538876 0.073883 0.547913 0.327902
C15   C     C_R   0.467798 0.926769 0.451472 0.327735
C16   C     C_R   0.478027 0.070011 0.450461 0.266632
C17   C     C_R   0.524583 0.930508 0.549361 0.280435
C18   C     C_R   0.493960 0.499754 0.389555 0.822025
C19   C     C_R   0.495008 0.499997 0.610285 0.842384
C20   C     C_R   0.546069 0.504971 0.882055 0.528347
C21   C     C_R   0.317240 0.485530 0.117684 0.529741
C22   C     C_R   0.326621 0.468016 0.876592 0.516857
C23   C     C_R   0.483542 0.615213 0.237414 -0.125865
C24   C     C_R   0.538787 0.498616 0.122130 0.526153
C25   C     C_R   0.320809 0.468615 0.936835 -0.114962
C26   C     C_R   0.543897 0.497320 0.062114 -0.107510
C27   C     C_R   0.432673 0.485084 0.969399 -0.083384
C28   C     C_R   0.431389 0.486570 0.029774 -0.091064
C29   C     C_R   0.546111 0.501025 0.941729 -0.048425
C30   C     C_R   0.317551 0.477646 0.057721 -0.046135
C31   C     C_R   0.207788 0.452001 0.965535 0.489599
C32   C     C_R   0.657717 0.505286 0.033723 0.507767
C33   C     C_R   0.206955 0.461451 0.025369 -0.274125
C34   C     C_R   0.375346 0.576003 0.756649 -0.108142
C35   C     C_R   0.657401 0.511915 0.973961 -0.292550
C36   C     C_3   0.068201 0.295761 0.933790 0.106220
C37   C     C_3   0.949527 0.273265 0.898020 -0.742250
C38   C     C_3   0.839474 0.396144 0.055293 0.068339
C39   C     C_3   0.913948 0.364142 0.109792 -0.702326
C40   C     C_3   0.165128 0.266429 0.402846 0.156491
C41   C     C_3   0.076832 0.187520 0.362990 -0.874138
C42   C     C_3   0.872862 0.704333 0.390979 0.158277
C43   C     C_3   0.790154 0.806110 0.361363 -0.883060
C44   C     C_3   0.877843 0.167266 0.504679 0.087098
C45   C     C_R   0.506663 0.612441 0.296130 -0.205609
C46   C     C_3   0.857489 0.026604 0.481064 -0.755279
C47   C     C_3   0.109950 0.803477 0.541034 0.161223
C48   C     C_3   0.164376 0.944051 0.540502 -0.865356
C49   C     C_3   0.693115 0.082311 0.621234 0.149098
C50   C     C_3   0.785975 0.185488 0.645881 -0.956585
C51   C     C_3   0.308691 0.896558 0.384941 0.156317
C52   C     C_3   0.246275 0.784675 0.350011 -0.782626
C53   C     C_3   0.599285 0.116612 0.375475 0.145577
C54   C     C_3   0.600685 0.153583 0.312402 -0.829950
C55   C     C_3   0.424441 0.901620 0.633357 0.132459
C56   C     C_R   0.390023 0.579599 0.697580 -0.239299
C57   C     C_3   0.454798 0.896313 0.697597 -0.852284
C58   C     C_R   0.470209 0.501365 0.327769 -0.028033
C59   C     C_R   0.477272 0.496476 0.671840 -0.010254
C60   C     C_R   0.403395 0.396923 0.300509 -0.264090
H1    H     H_    0.119098 0.454501 0.046318 0.193780
H2    H     H_    0.571100 0.316876 0.787697 0.143628
H3    H     H_    0.053536 0.256883 0.977682 0.104555
H4    H     H_    0.144082 0.237561 0.913603 0.157014
H5    H     H_    0.961855 0.309763 0.853715 0.285693
H6    H     H_    0.926955 0.164689 0.896123 0.195469
H7    H     H_    0.871079 0.327755 0.917448 0.238542
H8    H     H_    0.904350 0.414587 0.020142 0.164764
H9    H     H_    0.781834 0.305983 0.043868 0.120573
H10   H     H_    0.850470 0.332850 0.143909 0.266084
H11   H     H_    0.980002 0.281368 0.101314 0.188582
H12   H     H_    0.745241 0.524040 0.953071 0.207186
H13   H     H_    0.966583 0.453982 0.124973 0.298204
H14   H     H_    0.257190 0.217770 0.401585 0.195337
H15   H     H_    0.177457 0.369785 0.385987 0.101953
H16   H     H_    0.984252 0.236119 0.360885 0.283856
H17   H     H_    0.114471 0.184308 0.319143 0.210486
H18   H     H_    0.067258 0.083293 0.378363 0.251304
H19   H     H_    0.835443 0.603361 0.378623 0.126388
H20   H     H_    0.968386 0.714281 0.374591 0.149350
H21   H     H_    0.830285 0.908007 0.366465 0.245373
H22   H     H_    0.781356 0.782007 0.314822 0.222009
H23   H     H_    0.515390 0.699760 0.213051 0.149413
H24   H     H_    0.697021 0.801822 0.380328 0.278119
H25   H     H_    0.801794 0.190498 0.533427 0.199115
H26   H     H_    0.967059 0.169240 0.530073 0.156314
H27   H     H_    0.928137 0.002968 0.448862 0.284591
H28   H     H_    0.865802 0.953511 0.516239 0.223696
H29   H     H_    0.763223 0.016751 0.461407 0.215076
H30   H     H_    0.162541 0.743499 0.573498 0.118554
H31   H     H_    0.011642 0.810732 0.554205 0.134118
H32   H     H_    0.118648 0.003784 0.506267 0.287355
H33   H     H_    0.151389 0.994392 0.582599 0.199133
H34   H     H_    0.312478 0.645604 0.776744 0.156596
H35   H     H_    0.264668 0.939184 0.531769 0.226706
H36   H     H_    0.742919 0.015935 0.591027 0.124172
H37   H     H_    0.664612 0.019724 0.657366 0.203292
H38   H     H_    0.777135 0.282740 0.623438 0.271368
H39   H     H_    0.771490 0.201960 0.692381 0.245021
H40   H     H_    0.882308 0.147919 0.641316 0.222175
H41   H     H_    0.313492 0.985875 0.357114 0.164081
H42   H     H_    0.248449 0.919911 0.421828 0.169538
H43   H     H_    0.242530 0.691648 0.375624 0.266238
H44   H     H_    0.150358 0.815165 0.337465 0.195581
H45   H     H_    0.553681 0.696621 0.316591 0.185805
H46   H     H_    0.298003 0.765326 0.310345 0.250966
H47   H     H_    0.629612 0.011099 0.377619 0.138188
H48   H     H_    0.667830 0.180611 0.399568 0.204387
H49   H     H_    0.514322 0.118691 0.289713 0.259512
H50   H     H_    0.611881 0.263215 0.308030 0.258019
H51   H     H_    0.681473 0.105507 0.291921 0.215370
H52   H     H_    0.349005 0.829825 0.622199 0.143304
H53   H     H_    0.386858 0.003700 0.624648 0.141979
H54   H     H_    0.496816 0.992309 0.712838 0.237162
H55   H     H_    0.368179 0.880947 0.721438 0.211871
H56   H     H_    0.332490 0.645631 0.672106 0.140870
H57   H     H_    0.520742 0.813814 0.707426 0.285713
H58   H     H_    0.370406 0.312722 0.324529 0.184929
H59   H     H_    0.599207 0.328553 0.684335 0.197158
H60   H     H_    0.339572 0.312301 0.220104 0.148475
N1    N     N_R   0.437925 0.486376 0.850825 -0.359313
N2    N     N_R   0.426756 0.496635 0.148327 -0.360225
N3    N     N_R   0.500000 0.857200 0.500000 -0.171629
N4    N     N_R   0.500000 0.142800 0.500000 -0.175737
O1    O     O_R   0.316770 0.614620 0.500000 -0.572567
O2    O     O_2   0.208758 0.483316 0.145210 -0.590362
O3    O     O_2   0.222831 0.448430 0.843835 -0.521983
O4    O     O_2   0.644611 0.501387 0.154538 -0.514658
O5    O     O_3   0.096258 0.434111 0.935595 -0.564104
O6    O     O_3   0.769079 0.513503 0.064588 -0.554452
O7    O     O_3   0.125602 0.261807 0.460231 -0.591887
O8    O     O_3   0.873349 0.725956 0.451192 -0.571755
O9    O     O_3   0.872418 0.259394 0.459385 -0.591964
O10   O     O_3   0.119537 0.744987 0.485916 -0.568649
O11   O     O_3   0.587538 0.145937 0.595197 -0.575161
O12   O     O_R   0.683230 0.385380 0.500000 -0.596617
O13   O     O_3   0.429875 0.856449 0.402553 -0.573510
O14   O     O_3   0.479368 0.133353 0.398054 -0.610773
O15   O     O_3   0.530554 0.866626 0.601559 -0.580315
O16   O     O_R   0.683230 0.614620 0.500000 -0.565257
O17   O     O_R   0.316770 0.385380 0.500000 -0.585144
O18   O     O_R   0.499970 0.614690 0.416160 -0.565341
O19   O     O_R   0.500030 0.385310 0.583840 -0.562596
O20   O     O_R   0.500030 0.614690 0.583840 -0.567062
O21   O     O_R   0.499970 0.385310 0.416160 -0.582672
O22   O     O_2   0.653467 0.527982 0.855213 -0.561439
Zn1   Zn    Zn3+2 0.500000 0.653120 0.500000 1.031992
Zn2   Zn    Zn3+2 0.500000 0.346880 0.500000 1.012679

loop_
_geom_bond_atom_site_label_1
_geom_bond_atom_site_label_2
_ccdc_geom_bond_type
C25   C31   A    
C52   H43   S    
C34   C56   A    
C19   O20   A    
C23   C45   A    
C48   H35   S    
C55   H52   S    
C27   C29   A    
C18   O21   A    
C32   O6    S    
C57   H55   S    
C46   H29   S    
C53   C54   S    
C51   H42   S    
C26   C32   A    
N4    Zn2   S    
C50   H39   S    
C40   H14   S    
C15   N3    A    
C38   O6    S    
C36   C37   S    
C1    O1    A    
C41   H17   S    
C38   C39   S    
C14   O11   S    
C58   C60   A    
C15   C16   A    
C4    H2    S    
C55   O15   S    
C54   H50   S    
C21   N2    A    
O17   Zn2   S    
C17   N3    A    
C44   C46   S    
C22   C25   A    
C37   H5    S    
C8    O8    S    
C12   O16   A    
C60   H58   S    
C36   H3    S    
C7    O7    S    
C3    C60   A    
C49   O11   S    
C38   H9    S    
C52   H46   S    
C42   H19   S    
C43   H24   S    
C14   C17   A    
O20   Zn1   S    
C44   H26   S    
O16   Zn1   S    
C45   H45   S    
C46   H28   S    
C20   C29   A    
O19   Zn2   S    
C45   C58   A    
C50   H38   S    
C14   N4    A    
C48   H33   S    
C51   C52   S    
C32   C35   A    
C34   H34   S    
C18   O18   A    
C4    C6    A    
O1    Zn1   S    
C41   H18   S    
C2    C59   A    
C55   H53   S    
C19   C59   S    
C5    N2    S    
C53   O14   S    
C54   H49   S    
C2    C4    A    
C53   H47   S    
C47   C48   S    
C5    C23   A    
C2    H59   S    
C37   H6    S    
C24   N2    A    
C56   H56   S    
C17   O15   S    
C9    C11   A    
C20   N1    A    
O12   Zn2   S    
C23   H23   S    
C51   O13   S    
C33   H1    S    
C40   C41   S    
C40   O7    S    
C38   H8    S    
C35   H12   S    
C55   C57   S    
C47   O10   S    
C48   H32   S    
C43   H21   S    
C47   H30   S    
C20   O22   S    
C1    C13   S    
C42   C43   S    
C44   H25   S    
C27   C28   A    
O21   Zn2   S    
C22   N1    A    
C57   H57   S    
C46   H27   S    
C44   O9    S    
C7    C9    A    
C52   H44   S    
C31   C33   A    
C19   O19   A    
C30   C33   A    
C47   H31   S    
O18   Zn1   S    
C16   O14   S    
C10   O10   S    
C24   C26   A    
C3    C5    A    
C10   C13   A    
C11   C12   S    
C40   H15   S    
C57   H54   S    
C25   C27   A    
C21   C30   A    
C29   C35   A    
C26   C28   A    
C56   C59   A    
C28   C30   A    
N3    Zn1   S    
C31   O5    S    
C36   O5    S    
C41   H16   S    
C53   H48   S    
C22   O3    S    
C8    C11   A    
C37   H7    S    
C39   H10   S    
C18   C58   S    
C54   H51   S    
C39   H13   S    
C49   H36   S    
C16   N4    A    
C50   H40   S    
C1    O17   A    
C3    H60   S    
C49   H37   S    
C6    C34   A    
C7    C13   A    
C8    C10   A    
C49   C50   S    
C12   O12   A    
C42   H20   S    
C24   O4    S    
C43   H22   S    
C39   H11   S    
C42   O8    S    
C6    N1    S    
C21   O2    S    
C36   H4    S    
C51   H41   S    
C15   O13   S    
C9    O9    S    
