data_mof_unit_10013.cif
_audit_creation_date              2013-03-05T16:05:04-0500
_audit_creation_method            fapswitch 2.2
_symmetry_space_group_name_H-M    P1
_symmetry_Int_Tables_number       1
_space_group_crystal_system       triclinic
_cell_length_a                    6.925215
_cell_length_b                    23.249056
_cell_length_c                    25.844221
_cell_angle_alpha                 104.648438
_cell_angle_beta                  90.037824
_cell_angle_gamma                 90.599293
_cell_volume                      4025.54599819

loop_
_atom_site_label
_atom_site_type_symbol
_atom_site_description
_atom_site_fract_x
_atom_site_fract_y
_atom_site_fract_z
_atom_type_partial_charge
O1    O     O_R   0.505750 0.453350 0.547660 -0.575370
O2    O     O_R   0.170990 0.432220 0.437590 -0.578221
O3    O     O_R   0.005600 0.546650 0.452340 -0.598785
C1    C     C_R   0.339877 0.416154 0.417043 0.997978
O4    O     O_R   0.175720 0.446240 0.546340 -0.582362
O5    O     O_R   0.010370 0.560770 0.561860 -0.608053
C2    C     C_R   0.344515 0.433092 0.561850 1.013586
O6    O     O_R   0.500990 0.439230 0.438140 -0.582806
O7    O     O_3   0.340820 0.537560 0.504970 -0.298351
V1    V     V_3+5 0.064050 0.493030 0.499080 1.222420
O8    O     O_R   0.680940 0.567780 0.562410 -0.604294
C3    C     C_R   0.850756 0.584680 0.582275 0.940192
O9    O     O_R   0.676210 0.553760 0.453660 -0.608111
C4    C     C_R   0.845816 0.566095 0.437398 0.946307
V2    V     V_3+5 0.564640 0.506970 0.500920 1.199443
O10   O     O_3   0.837740 0.462440 0.495030 -0.231123
C5    C     C_R   0.782722 0.858310 0.103720 0.285994
C6    C     C_R   0.775300 0.823674 0.141415 0.442437
C7    C     C_R   0.937557 0.821850 0.174460 -0.072692
C8    C     C_R   0.099548 0.857214 0.171093 -0.128665
H1    H     H_    0.223944 0.857044 0.196506 0.170328
C9    C     C_R   0.103976 0.892981 0.135090 -0.028556
H2    H     H_    0.229542 0.920721 0.135117 0.222792
C10   C     C_R   0.948470 0.894077 0.100429 -0.408730
C11   C     C_R   0.921410 0.720222 0.194677 0.451909
C12   C     C_R   0.904463 0.686032 0.232532 0.257308
C13   C     C_R   0.913135 0.713974 0.288015 -0.371688
C14   C     C_R   0.939377 0.776628 0.305188 0.531168
C15   C     C_R   0.952997 0.809895 0.267197 -0.218777
H3    H     H_    0.967930 0.857822 0.280848 0.192267
C16   C     C_R   0.940904 0.783007 0.212324 -0.203734
C17   C     C_R   0.057411 0.663926 0.353606 -0.075843
H4    H     H_    0.198224 0.680640 0.345857 0.117613
C18   C     C_R   0.041175 0.628051 0.389426 -0.146692
H5    H     H_    0.170975 0.618136 0.408758 0.131233
C19   C     C_R   0.860170 0.605307 0.400093 -0.129257
C20   C     C_R   0.695613 0.619679 0.374084 -0.142722
H6    H     H_    0.554374 0.602806 0.381173 0.131330
C21   C     C_R   0.712450 0.655242 0.337813 -0.076075
H7    H     H_    0.584556 0.665263 0.317718 0.122214
C22   C     C_R   0.893518 0.677503 0.327359 0.199985
C23   C     C_R   0.715349 0.643786 0.669084 -0.246527
C24   C     C_R   0.863953 0.634518 0.631028 -0.148894
C25   C     C_R   0.027206 0.672344 0.640304 -0.200146
C26   C     C_R   0.041545 0.719313 0.686753 0.086333
C27   C     C_R   0.893970 0.727610 0.725329 0.090727
C28   C     C_R   0.730979 0.689258 0.716469 0.190512
C29   C     C_R   0.200001 0.758487 0.694736 -0.315669
C30   C     C_R   0.213992 0.806407 0.740429 0.357300
C31   C     C_R   0.071134 0.813208 0.780945 -0.040885
C32   C     C_R   0.909657 0.773905 0.772867 0.013289
C33   C     C_R   0.763977 0.780324 0.812328 0.047725
C34   C     C_R   0.604322 0.740809 0.802984 -0.113627
C35   C     C_R   0.587055 0.696471 0.755417 -0.219156
C36   C     C_R   0.086629 0.857556 0.829492 -0.120314
C37   C     C_R   0.943376 0.864563 0.868972 -0.301781
C38   C     C_R   0.782159 0.825320 0.860515 0.293188
H8    H     H_    0.589836 0.614522 0.662484 0.134537
H9    H     H_    0.141869 0.665763 0.610901 0.139335
H10   H     H_    0.310848 0.752926 0.664326 0.186100
H11   H     H_    0.210104 0.887305 0.837242 0.200942
H12   H     H_    0.490650 0.743803 0.832172 0.178575
H13   H     H_    0.461354 0.667340 0.749344 0.139178
C39   C     C_R   0.593106 0.177248 0.147263 -0.163871
C40   C     C_R   0.454030 0.131349 0.134376 -0.315251
C41   C     C_R   0.294367 0.132772 0.169281 0.317310
C42   C     C_R   0.274215 0.180181 0.215604 -0.009331
C43   C     C_R   0.414913 0.226138 0.227607 0.014488
C44   C     C_R   0.573974 0.224569 0.193278 0.090134
C45   C     C_R   0.116991 0.182291 0.250647 -0.128637
C46   C     C_R   0.098719 0.228951 0.296388 -0.209407
C47   C     C_R   0.237114 0.274676 0.308654 0.186406
C48   C     C_R   0.396570 0.273627 0.274151 0.039921
C49   C     C_R   0.536179 0.320135 0.286002 -0.035238
C50   C     C_R   0.694844 0.318510 0.250730 0.329823
C51   C     C_R   0.711229 0.270737 0.205067 -0.277774
C52   C     C_R   0.218192 0.321198 0.355059 -0.096266
C53   C     C_R   0.354192 0.367663 0.367174 -0.167202
C54   C     C_R   0.509958 0.367335 0.332063 -0.118776
H14   H     H_    0.714487 0.176846 0.120706 0.169863
H15   H     H_    0.006691 0.147867 0.243170 0.186489
H16   H     H_    0.975553 0.229218 0.322301 0.152127
H17   H     H_    0.097797 0.321169 0.381863 0.148394
H18   H     H_    0.607892 0.404986 0.340964 0.179055
H19   H     H_    0.833671 0.269474 0.178697 0.183364
C55   C     C_R   0.277307 0.128414 0.888428 -0.149312
H20   H     H_    0.145710 0.118466 0.907213 0.135935
C56   C     C_R   0.266527 0.164987 0.853007 -0.104720
H21   H     H_    0.127546 0.182360 0.845568 0.147809
C57   C     C_R   0.433096 0.179424 0.827680 0.215762
C58   C     C_R   0.610853 0.155866 0.838321 -0.043403
H22   H     H_    0.740978 0.164979 0.818448 0.129965
C59   C     C_R   0.622132 0.119695 0.874219 -0.146685
H23   H     H_    0.761273 0.102316 0.881440 0.127475
C60   C     C_R   0.455307 0.105364 0.899699 -0.118557
C61   C     C_R   0.539973 0.267775 0.792512 0.210260
C62   C     C_R   0.519348 0.302568 0.754743 0.423692
C63   C     C_R   0.381192 0.286386 0.713228 -0.199692
C64   C     C_R   0.261393 0.235628 0.709602 0.327485
C65   C     C_R   0.281374 0.202536 0.747857 -0.252497
H24   H     H_    0.189802 0.163787 0.745054 0.189632
C66   C     C_R   0.418519 0.217620 0.789157 -0.134110
C67   C     C_R   0.506594 0.315480 0.632391 -0.150462
H25   H     H_    0.617323 0.282212 0.629321 0.198080
C68   C     C_R   0.499596 0.349760 0.594592 0.323679
C69   C     C_R   0.353269 0.393069 0.598552 -0.291190
C70   C     C_R   0.216867 0.399931 0.639950 -0.158278
H26   H     H_    0.104737 0.432923 0.644126 0.144299
C71   C     C_R   0.226405 0.365700 0.677314 0.001522
H27   H     H_    0.121110 0.372459 0.709209 0.148378
C72   C     C_R   0.369547 0.322632 0.673355 0.194803
O11   O     O_R   0.308350 0.060850 0.061810 -0.575568
O12   O     O_R   0.633860 0.053770 0.953650 -0.615420
O13   O     O_R   0.798960 0.939210 0.938150 -0.575495
C73   C     C_R   0.465231 0.066090 0.937204 0.920319
O14   O     O_R   0.638360 0.067800 0.062400 -0.574681
O15   O     O_R   0.803500 0.953330 0.047670 -0.554133
C74   C     C_R   0.469319 0.083453 0.083484 1.018982
O16   O     O_R   0.303810 0.046730 0.952290 -0.615092
O17   O     O_3   0.468430 0.962490 0.995010 -0.195936
V3    V     V_3+5 0.745300 0.006960 0.000930 1.279863
O18   O     O_R   0.132880 0.946160 0.046390 -0.553210
C75   C     C_R   0.962480 0.933131 0.062301 1.101975
O19   O     O_R   0.128380 0.932130 0.937650 -0.577630
C76   C     C_R   0.958344 0.914895 0.917862 0.998281
V4    V     V_3+5 0.244670 0.992930 0.999140 1.308300
O20   O     O_3   0.971670 0.037510 0.005000 -0.290820
N1    N     N_R   0.619134 0.856267 0.069291 0.267383
O21   O     O_R   0.551126 0.804939 0.042595 -0.262444
O22   O     O_R   0.508082 0.902254 0.076701 -0.385309
N2    N     N_R   0.370076 0.848560 0.743771 0.239138
O23   O     O_R   0.334491 0.905235 0.755788 -0.383458
O24   O     O_R   0.537635 0.830639 0.723595 -0.395360
N3    N     N_R   0.644560 0.828566 0.902498 0.234624
O25   O     O_R   0.467878 0.844441 0.896893 -0.400792
O26   O     O_R   0.700724 0.820456 0.948087 -0.354320
O27   O     O_3   0.605096 0.793253 0.145132 -0.690479
H28   H     H_    0.602677 0.780767 0.178968 0.325032
N4    N     N_R   0.157533 0.084569 0.159149 0.226670
O28   O     O_R   0.205943 0.033790 0.167435 -0.435553
O29   O     O_R   0.983222 0.091909 0.143358 -0.424779
N5    N     N_R   0.840032 0.364744 0.259823 0.240348
O30   O     O_R   0.921397 0.383432 0.306499 -0.432247
O31   O     O_R   0.913845 0.381152 0.219448 -0.323136
N6    N     N_R   0.682799 0.283603 0.834116 0.225314
O32   O     O_R   0.632664 0.292761 0.884026 -0.346698
O33   O     O_R   0.864496 0.286378 0.822046 -0.404947
O34   O     O_3   0.629231 0.353326 0.757498 -0.725060
H29   H     H_    0.692150 0.366345 0.792942 0.364767
N7    N     N_R   0.123273 0.215519 0.666825 0.253818
O35   O     O_R   0.033519 0.252869 0.645666 -0.366432
O36   O     O_R   0.073528 0.159603 0.651911 -0.347466
N8    N     N_R   0.637163 0.338371 0.551656 0.242228
O37   O     O_R   0.812400 0.322930 0.559862 -0.349185
O38   O     O_R   0.580989 0.334772 0.502865 -0.396349
O39   O     O_3   0.921763 0.690481 0.141054 -0.638490
H30   H     H_    0.966954 0.717423 0.119379 0.350276
N9    N     N_R   0.881196 0.622508 0.214108 0.275486
O40   O     O_R   0.986716 0.587244 0.233931 -0.329319
O41   O     O_R   0.761780 0.599573 0.175294 -0.260614
O42   O     O_3   0.948011 0.807746 0.358370 -0.719143
H31   H     H_    0.925308 0.780696 0.381762 0.324935

loop_
_geom_bond_atom_site_label_1
_geom_bond_atom_site_label_2
_geom_bond_distance
_ccdc_geom_bond_type
C11   C16   1.419870 A    
C68   N8    1.437748 S    
C36   C37   1.404440 A    
C59   H23   1.082873 S    
C61   C66   1.415244 A    
C39   H14   1.084173 S    
C48   C49   1.417010 A    
C7    C8    1.399663 A    
C1    O6    1.291794 A    
C7    C16   1.490305 S    
N1    O21   1.301250 A    
C23   H8    1.084531 S    
O42   H31   0.987938 S    
C21   C22   1.403852 A    
C52   C53   1.399748 A    
O17   V3    2.155651 S    
C61   N6    1.435522 S    
C30   N2    1.439155 S    
C12   C13   1.417612 A    
C20   H6    1.082916 S    
C14   C15   1.397796 A    
V3    O20   1.706399 S    
C3    C24   1.482463 S    
C71   C72   1.401709 A    
C4    C19   1.487708 S    
C54   H18   1.079188 S    
O17   V4    1.702470 S    
C69   C70   1.407333 A    
C52   H17   1.084445 S    
C25   H9    1.084399 S    
V2    O10   2.152566 S    
C63   C64   1.418844 A    
C62   C63   1.412467 A    
C37   C38   1.415687 A    
C44   C51   1.400473 A    
C67   C72   1.401709 A    
C18   H5    1.082932 S    
C45   H15   1.081735 S    
O15   V3    1.986926 S    
C57   C66   1.496266 S    
C67   H25   1.083515 S    
C47   C52   1.404444 A    
O13   V3    1.993005 S    
O8    V2    2.002755 S    
C41   N4    1.432302 S    
C60   C73   1.492275 S    
C43   C44   1.409814 A    
C5    C6    1.412834 A    
C19   C20   1.408070 A    
C70   H26   1.083375 S    
C45   C46   1.394523 A    
O1    V2    1.982721 S    
N8    O38   1.301405 A    
O7    V1    2.155709 S    
O11   V4    2.000546 S    
C46   H16   1.083899 S    
C41   C42   1.415493 A    
C59   C60   1.408289 A    
O9    C4    1.301163 A    
C11   O39   1.383491 S    
N9    O41   1.301378 A    
C70   C71   1.399960 A    
O5    C3    1.294022 A    
N6    O33   1.301447 A    
C14   O42   1.382798 S    
C29   H10   1.084046 S    
C9    H2    1.077092 S    
C64   N7    1.443447 S    
C5    C10   1.425554 A    
C49   C50   1.422850 A    
C32   C33   1.416933 A    
O8    C3    1.299416 A    
O34   H29   0.988468 S    
O14   V3    1.989958 S    
C58   H22   1.082773 S    
O4    C2    1.299757 A    
O13   C76   1.294873 A    
C53   C54   1.408921 A    
C6    C7    1.418390 A    
N3    O26   1.299347 A    
C43   C48   1.418978 A    
C26   C27   1.408461 A    
C27   C32   1.417119 A    
C10   C75   1.501862 S    
C42   C43   1.413302 A    
C17   C18   1.397868 A    
O18   V4    1.981938 S    
C6    O27   1.384145 S    
O2    C1    1.303480 A    
C50   C51   1.406796 A    
C1    C53   1.486421 S    
C15   H3    1.084170 S    
C50   N5    1.439058 S    
C58   C59   1.403531 A    
C34   H12   1.081171 S    
C13   C22   1.484969 S    
C64   C65   1.405460 A    
C17   C22   1.400986 A    
C61   C62   1.424461 A    
C65   C66   1.402383 A    
C31   C32   1.418060 A    
C2    C69   1.488866 S    
N7    O36   1.301629 A    
C67   C68   1.409389 A    
C37   C76   1.491981 S    
C56   H21   1.083337 S    
O3    C4    1.294651 A    
C28   C35   1.397924 A    
C29   C30   1.406143 A    
C8    C9    1.396073 A    
C40   C41   1.422829 A    
O6    V2    1.999806 S    
C73   O16   1.297322 A    
C49   C54   1.413520 A    
O9    V2    1.981872 S    
C24   C25   1.407566 A    
N9    O40   1.301202 A    
C62   O34   1.383972 S    
C9    C10   1.404878 A    
C38   N3    1.432642 S    
C23   C24   1.404130 A    
N2    O23   1.301269 A    
O2    V1    1.989916 S    
N6    O32   1.301111 A    
C21   H7    1.083213 S    
N5    O31   1.301378 A    
C25   C26   1.406393 A    
C55   H20   1.082902 S    
O19   V4    2.002611 S    
O27   H28   0.988730 S    
C26   C29   1.399988 A    
C27   C28   1.413108 A    
O39   H30   0.988780 S    
C63   C72   1.489641 S    
O1    C2    1.296139 A    
C56   C57   1.405615 A    
C47   C48   1.416323 A    
N2    O24   1.301147 A    
N1    O22   1.298106 A    
O5    V1    1.992899 S    
C33   C38   1.413938 A    
N4    O28   1.299245 A    
C5    N1    1.433032 S    
C34   C35   1.394436 A    
N3    O25   1.300221 A    
C40   C74   1.497672 S    
C39   C44   1.408445 A    
C68   C69   1.421449 A    
C31   C36   1.411362 A    
N7    O35   1.300162 A    
C42   C45   1.410003 A    
C17   H4    1.083378 S    
C11   C12   1.412203 A    
O4    V1    1.990372 S    
C15   C16   1.399744 A    
O3    V1    1.987107 S    
V1    O10   1.706405 S    
C71   H27   1.083314 S    
C39   C40   1.405545 A    
O11   C74   1.292518 A    
N4    O29   1.300675 A    
C57   C58   1.407419 A    
V4    O20   2.152542 S    
C36   H11   1.080290 S    
C65   H24   1.083509 S    
C18   C19   1.409673 A    
O14   C74   1.307367 A    
C12   N9    1.439806 S    
C55   C56   1.400536 A    
C23   C28   1.404194 A    
O15   C75   1.294500 A    
N8    O37   1.301473 A    
C55   C60   1.408487 A    
O16   V4    1.988520 S    
C46   C47   1.398920 A    
O12   V3    1.990462 S    
C8    H1    1.083580 S    
C20   C21   1.402172 A    
C30   C31   1.421661 A    
C35   H13   1.083892 S    
C13   C14   1.420998 A    
N5    O30   1.300128 A    
O18   C75   1.307495 A    
C51   H19   1.084187 S    
O7    V2    1.704368 S    
C33   C34   1.411011 A    
O19   C76   1.301683 A    
O12   C73   1.301663 A    
