data_mof_unit_49723.cif
_audit_creation_date              2012-12-10T19:27:36-0500
_audit_creation_method            fapswitch 2.2
_symmetry_space_group_name_H-M    P1
_symmetry_Int_Tables_number       1
_space_group_crystal_system       triclinic
_cell_length_a                    23.439896
_cell_length_b                    10.47999
_cell_length_c                    9.771039
_cell_angle_alpha                 89.593348
_cell_angle_beta                  89.378603
_cell_angle_gamma                 89.922966
_cell_volume                      2400.05097529

loop_
_atom_site_label
_atom_site_type_symbol
_atom_type_description
_atom_site_fract_x
_atom_site_fract_y
_atom_site_fract_z
_atom_type_partial_charge
C1    C     C_R   0.500013 0.257572 0.500547 0.846759
C2    C     C_R   0.703479 0.577744 0.597425 -0.047804
C3    C     C_R   0.236900 0.423920 0.594718 -0.081258
C4    C     C_R   0.763008 0.570472 0.594164 -0.077300
C5    C     C_R   0.208981 0.502128 0.499852 0.252928
C6    C     C_R   0.791438 0.507165 0.487741 0.251254
C7    C     C_3   0.500151 0.039223 0.630873 -0.137346
C8    C     C_3   0.499774 0.960879 0.369286 -0.135603
C9    C     C_3   0.547017 0.956896 0.562972 -0.178387
C10   C     C_3   0.452910 0.043202 0.437202 -0.189463
C11   C     C_3   0.499947 0.877613 0.498414 0.019729
C12   C     C_R   0.499959 0.742452 0.499480 0.854612
C13   C     C_3   0.499984 0.122455 0.501729 0.021788
C14   C     C_3   0.453079 0.957228 0.566162 -0.162797
C15   C     C_3   0.546849 0.042860 0.434004 -0.157530
C16   C     C_R   0.389714 0.496515 0.500760 0.831355
C17   C     C_R   0.610379 0.504275 0.499384 0.842932
C18   C     C_3   0.468813 0.407272 0.050353 -0.245981
C19   C     C_3   0.531090 0.592745 0.949499 -0.249334
C20   C     C_3   0.519977 0.392943 0.951162 -0.253078
C21   C     C_3   0.479902 0.607158 0.048621 -0.249736
C22   C     C_3   0.449570 0.514116 0.954236 0.637689
C23   C     C_R   0.240471 0.575670 0.406369 -0.100575
C24   C     C_3   0.550255 0.485716 0.045390 0.639337
C25   C     C_R   0.881070 0.620369 0.483052 0.507587
C26   C     C_R   0.119578 0.390376 0.477739 0.503428
C27   C     C_R   0.880746 0.392092 0.479618 0.509484
C28   C     C_R   0.119569 0.616902 0.506746 0.508976
C29   C     C_R   0.940317 0.389347 0.476277 -0.014046
C30   C     C_R   0.060138 0.620404 0.498681 -0.015099
C31   C     C_R   0.970318 0.505406 0.482898 -0.022409
C32   C     C_R   0.030222 0.504765 0.485915 -0.022266
C33   C     C_R   0.940569 0.622065 0.487293 -0.013548
C34   C     C_R   0.760451 0.446980 0.385459 -0.099375
C35   C     C_R   0.060037 0.388436 0.476779 -0.011401
C36   C     C_R   0.970417 0.273695 0.468266 -0.156238
C37   C     C_R   0.030078 0.736246 0.503943 -0.156181
C38   C     C_R   0.029801 0.273354 0.466958 -0.154395
C39   C     C_R   0.970809 0.737173 0.496704 -0.153302
C40   C     C_3   0.352474 0.551249 0.992180 0.057361
C41   C     C_3   0.329613 0.425972 0.054926 -0.377500
C42   C     C_3   0.264655 0.426192 0.068173 -0.815868
C43   C     C_3   0.646981 0.459133 0.997747 0.060485
C44   C     C_3   0.669612 0.322316 0.991392 -0.391720
C45   C     C_R   0.299469 0.572344 0.408256 -0.223259
C46   C     C_3   0.713367 0.307330 0.875691 -0.856235
C47   C     C_2   0.324299 0.317496 0.682600 0.429844
C48   C     C_2   0.675396 0.662829 0.699096 0.363386
C49   C     C_R   0.701435 0.446725 0.391599 -0.199374
C50   C     C_R   0.327770 0.493578 0.501992 -0.118689
C51   C     C_R   0.672491 0.510578 0.497162 -0.135883
C52   C     C_R   0.296432 0.415058 0.594240 -0.043223
H1    H     H_    0.948254 0.183295 0.462425 0.194096
H2    H     H_    0.782155 0.399322 0.301777 0.159668
H3    H     H_    0.323150 0.631751 0.336404 0.154794
H4    H     H_    0.678252 0.395662 0.314069 0.187372
H5    H     H_    0.211676 0.367012 0.665814 0.190209
H6    H     H_    0.787835 0.617815 0.671674 0.192628
H7    H     H_    0.585268 0.916922 0.613899 0.139667
H8    H     H_    0.414675 0.083402 0.386374 0.139794
H9    H     H_    0.500303 0.075291 0.737458 0.144300
H10   H     H_    0.499610 0.924871 0.262680 0.144477
H11   H     H_    0.414969 0.917436 0.619663 0.154242
H12   H     H_    0.052203 0.826430 0.512923 0.193958
H13   H     H_    0.584945 0.082734 0.380507 0.144459
H14   H     H_    0.317593 0.602127 0.938205 0.193930
H15   H     H_    0.366293 0.617221 0.074208 0.102236
H16   H     H_    0.342698 0.343474 0.991104 0.267290
H17   H     H_    0.348138 0.412062 0.158167 0.207263
H18   H     H_    0.249912 0.511194 0.125532 0.239904
H19   H     H_    0.250310 0.338942 0.123664 0.276307
H20   H     H_    0.245115 0.427487 0.965091 0.278846
H21   H     H_    0.682775 0.523597 0.023872 0.205180
H22   H     H_    0.632207 0.488734 0.894207 0.151886
H23   H     H_    0.536743 0.303964 0.904689 0.143056
H24   H     H_    0.689899 0.296814 0.090099 0.226586
H25   H     H_    0.633772 0.255289 0.974424 0.221183
H26   H     H_    0.693362 0.327735 0.775287 0.266170
H27   H     H_    0.729806 0.207930 0.875029 0.275832
H28   H     H_    0.749760 0.373486 0.890276 0.267577
H29   H     H_    0.369667 0.298816 0.674585 0.084768
H30   H     H_    0.631479 0.692736 0.686897 0.077186
H31   H     H_    0.463278 0.696534 0.094647 0.139118
H32   H     H_    0.443561 0.328981 0.098084 0.140235
H33   H     H_    0.557559 0.669280 0.902083 0.149991
H34   H     H_    0.051853 0.182685 0.460098 0.193838
H35   H     H_    0.948797 0.828052 0.500493 0.194057
H36   H     H_    0.219118 0.635308 0.331806 0.155400
N1    N     N_R   0.852414 0.506476 0.482473 -0.352908
N2    N     N_R   0.148036 0.503178 0.495116 -0.353419
N3    N     N_3   0.499960 0.500030 0.863290 -0.110991
N4    N     N_3   0.500040 0.499970 0.136710 -0.106579
O1    O     O_R   0.500000 0.313960 0.616610 -0.630599
O2    O     O_2   0.148890 0.280608 0.460254 -0.551918
O3    O     O_2   0.851328 0.281434 0.482089 -0.553457
O4    O     O_2   0.148707 0.725982 0.527390 -0.550366
O5    O     O_3   0.395562 0.527653 0.893280 -0.626398
O6    O     O_3   0.604915 0.469566 0.102207 -0.635688
O7    O     O_2   0.296355 0.253333 0.763695 -0.582706
O8    O     O_2   0.701578 0.703360 0.797020 -0.584432
O9    O     O_R   0.500000 0.686040 0.383390 -0.623414
O10   O     O_R   0.500030 0.313950 0.383350 -0.613974
O11   O     O_R   0.499970 0.686050 0.616650 -0.616461
O12   O     O_R   0.416140 0.499970 0.616650 -0.567206
O13   O     O_R   0.583860 0.500030 0.383350 -0.549554
O14   O     O_R   0.416170 0.499960 0.383400 -0.631385
O15   O     O_R   0.583830 0.500040 0.616600 -0.648854
O16   O     O_2   0.851984 0.731590 0.479119 -0.545345
Zn1   Zn    Zn3+2 0.499980 0.500010 0.655740 0.968395
Zn2   Zn    Zn3+2 0.500020 0.499990 0.344260 0.977026

loop_
_geom_bond_atom_site_label_1
_geom_bond_atom_site_label_2
_ccdc_geom_bond_type
C43   H21   S    
C30   C32   A    
O13   Zn2   S    
C26   O2    S    
C23   C45   A    
C27   C29   A    
C41   C42   S    
C27   O3    S    
C43   O6    S    
C39   H35   S    
C17   C51   S    
C29   C36   A    
C33   C39   A    
C38   H34   S    
C24   O6    S    
C44   H25   S    
C19   C21   S    
C16   C50   S    
C17   O15   A    
C46   H27   S    
C11   C14   S    
C14   H11   S    
C15   H13   S    
C42   H18   S    
C47   O7    D    
C44   H24   S    
C7    H9    S    
C36   H1    S    
C16   O12   A    
C7    C14   S    
C20   C24   S    
C49   C51   A    
C40   H15   S    
C18   H32   S    
C22   N3    S    
C31   C33   A    
C5    N2    S    
C16   O14   A    
C43   H22   S    
C22   O5    S    
C40   H14   S    
C21   C22   S    
O15   Zn1   S    
C24   N4    S    
C44   C46   S    
C41   H16   S    
C48   O8    D    
C20   N3    S    
C32   C35   A    
C21   H31   S    
C35   C38   A    
C12   O11   A    
C4    C6    A    
C10   C14   S    
C40   O5    S    
C46   H26   S    
C2    C48   S    
O9    Zn2   S    
C6    C34   A    
C20   H23   S    
C9    H7    S    
C10   H8    S    
C43   C44   S    
C17   O13   A    
C50   C52   A    
C31   C32   A    
C5    C23   A    
C7    C13   S    
C3    C52   A    
C25   C33   A    
C42   H20   S    
C9    C11   S    
C45   H3    S    
C3    H5    S    
C8    C10   S    
C40   C41   S    
C34   H2    S    
C8    C15   S    
C23   H36   S    
C13   C15   S    
O10   Zn2   S    
C1    C13   S    
C4    H6    S    
C49   H4    S    
C3    C5    A    
C37   H12   S    
C41   H17   S    
O14   Zn2   S    
C7    C9    S    
C34   C49   A    
C18   C22   S    
C19   H33   S    
C10   C13   S    
C11   C12   S    
C47   C52   S    
C26   N2    A    
C6    N1    S    
C25   N1    A    
C28   O4    S    
O11   Zn1   S    
C18   N4    S    
N3    Zn1   S    
C36   C38   A    
C19   C24   S    
C9    C15   S    
C12   O9    A    
C29   C31   A    
C46   H28   S    
N4    Zn2   S    
O12   Zn1   S    
C45   C50   A    
C8    C11   S    
C2    C4    A    
C28   C30   A    
C42   H19   S    
C48   H30   S    
C27   N1    A    
C18   C20   S    
C47   H29   S    
C19   N3    S    
C2    C51   A    
C26   C35   A    
C37   C39   A    
C30   C37   A    
C1    O1    A    
O1    Zn1   S    
C28   N2    A    
C1    O10   A    
C25   O16   S    
C8    H10   S    
C21   N4    S    
