data_mof_unit_22850.cif
_audit_creation_date              2012-12-10T17:32:21-0500
_audit_creation_method            fapswitch 2.2
_symmetry_space_group_name_H-M    P1
_symmetry_Int_Tables_number       1
_space_group_crystal_system       triclinic
_cell_length_a                    12.318628
_cell_length_b                    13.192899
_cell_length_c                    15.06127
_cell_angle_alpha                 77.488309
_cell_angle_beta                  101.36982
_cell_angle_gamma                 116.629708
_cell_volume                      2122.03868421

loop_
_atom_site_label
_atom_site_type_symbol
_atom_type_description
_atom_site_fract_x
_atom_site_fract_y
_atom_site_fract_z
_atom_type_partial_charge
C1    C     C_R   0.854872 0.286593 0.507970 0.777169
C2    C     C_R   0.901349 0.506028 0.076016 0.108295
C3    C     C_R   0.191080 0.478871 0.080857 -0.214938
C4    C     C_R   0.190765 0.478720 0.988295 -0.215097
C5    C     C_R   0.094707 0.487694 0.924524 0.107086
C6    C     C_R   0.997744 0.496573 0.953739 0.063682
C7    C     C_R   0.900655 0.505609 0.889954 0.109963
C8    C     C_R   0.804580 0.514116 0.919701 -0.212696
C9    C     C_R   0.804960 0.514387 0.012282 -0.214547
C10   C     C_R   0.094173 0.488339 0.831905 -0.247068
C11   C     C_R   0.998227 0.498067 0.768206 -0.072274
C12   C     C_R   0.999283 0.499323 0.671225 0.810411
C13   C     C_R   0.901568 0.506321 0.797453 -0.260825
C14   C     C_R   0.274959 0.022189 0.379578 -0.193212
C15   C     C_R   0.227917 0.834649 0.468266 -0.049608
C16   C     C_R   0.815731 0.085268 0.567633 -0.186582
C17   C     C_R   0.737027 0.970317 0.585576 -0.145916
C18   C     C_R   0.613576 0.932574 0.553443 -0.180136
C19   C     C_R   0.566644 0.009381 0.499065 0.071085
C20   C     C_R   0.650089 0.123828 0.471824 0.068472
C21   C     C_R   0.439829 0.976287 0.470299 0.070725
C22   C     C_R   0.399855 0.053893 0.408424 0.163951
C23   C     C_R   0.145097 0.713424 0.486701 0.802228
C24   C     C_R   0.485033 0.161088 0.374088 -0.241953
C25   C     C_R   0.608388 0.194872 0.403979 -0.195854
C26   C     C_R   0.351105 0.868470 0.501769 -0.253050
C27   C     C_R   0.189283 0.912587 0.408828 -0.195302
C28   C     C_R   0.773142 0.163606 0.512971 -0.102617
C29   C     C_R   0.346028 0.328303 0.646725 -0.284752
C30   C     C_R   0.758753 0.644977 0.375685 0.075832
C31   C     C_R   0.661664 0.675985 0.348899 -0.260091
C32   C     C_R   0.558468 0.620891 0.395692 -0.179857
C33   C     C_R   0.551015 0.533492 0.470530 -0.010888
C34   C     C_R   0.000109 0.499786 0.328832 0.807859
C35   C     C_R   0.653114 0.505042 0.495570 0.255846
C36   C     C_R   0.446837 0.473786 0.521384 -0.090646
C37   C     C_R   0.446576 0.386387 0.595708 0.137266
C38   C     C_R   0.547129 0.358958 0.618883 0.175115
C39   C     C_R   0.648032 0.418680 0.570112 -0.264613
C40   C     C_R   0.342006 0.497023 0.501996 0.036649
C41   C     C_R   0.246643 0.355557 0.624112 0.045927
C42   C     C_R   0.902800 0.506963 0.168522 -0.252115
C43   C     C_R   0.999524 0.498548 0.232042 -0.071686
C44   C     C_R   0.095310 0.488812 0.202861 -0.246378
C45   C     C_R   0.095336 0.487993 0.110532 0.108172
C46   C     C_R   0.998081 0.496753 0.046806 0.062555
Cu1   Cu    Cu3+1 0.098270 0.475420 0.521130 0.932944
Cu2   Cu    Cu3+1 0.901730 0.524580 0.478870 0.921366
H1    H     H_    0.828309 0.513960 0.190925 0.154196
H2    H     H_    0.456248 0.219205 0.323683 0.144189
H3    H     H_    0.244002 0.081030 0.332241 0.134947
H4    H     H_    0.375194 0.807829 0.551757 0.148126
H5    H     H_    0.909766 0.113280 0.598571 0.151692
H6    H     H_    0.558174 0.842288 0.570845 0.129538
H7    H     H_    0.771192 0.910483 0.627193 0.142251
H8    H     H_    0.670360 0.276393 0.371184 0.176642
H9    H     H_    0.169210 0.310697 0.663170 0.123908
H10   H     H_    0.343668 0.262158 0.704228 0.175357
H11   H     H_    0.170251 0.482508 0.251783 0.153434
H12   H     H_    0.334216 0.561442 0.446765 0.121224
H13   H     H_    0.838441 0.688171 0.338983 0.122272
H14   H     H_    0.486221 0.648474 0.371766 0.133224
H15   H     H_    0.666365 0.742953 0.291610 0.144210
H16   H     H_    0.720402 0.393019 0.593032 0.213218
H17   H     H_    0.266197 0.472070 0.129178 0.141999
H18   H     H_    0.265667 0.471813 0.966547 0.141647
H19   H     H_    0.169042 0.481952 0.809523 0.156076
H20   H     H_    0.826954 0.513153 0.748429 0.155160
H21   H     H_    0.729435 0.520843 0.871368 0.145596
H22   H     H_    0.730091 0.521349 0.034027 0.141337
H23   H     H_    0.093947 0.887402 0.382123 0.148993
N1    N     N_R   0.246280 0.438190 0.553160 -0.177648
N2    N     N_R   0.754320 0.561190 0.447410 -0.197167
O1    O     O_R   0.972510 0.318130 0.526570 -0.578804
O2    O     O_R   0.806530 0.359650 0.490890 -0.604251
O3    O     O_R   0.082980 0.479210 0.647590 -0.587098
O4    O     O_R   0.917000 0.520730 0.611900 -0.601848
O5    O     O_R   0.193470 0.640350 0.509110 -0.587685
O6    O     O_R   0.027490 0.681870 0.473430 -0.585295
O7    O     O_R   0.083000 0.479270 0.388100 -0.586969
O8    O     O_R   0.917020 0.520790 0.352410 -0.599005
N3    N     N_2   0.548205 0.270747 0.692394 -0.442702
H24   H     H_    0.632167 0.289959 0.731121 0.250199
C47   C     C_3   0.497536 0.158282 0.665120 -0.671560
H25   H     H_    0.493682 0.093364 0.726680 0.225463
H26   H     H_    0.555943 0.156039 0.618754 0.234694
H27   H     H_    0.403295 0.135725 0.629751 0.240544

loop_
_geom_bond_atom_site_label_1
_geom_bond_atom_site_label_2
_ccdc_geom_bond_type
C16   C28   A    
C21   C26   A    
C40   H12   S    
C19   C20   A    
C47   H27   S    
C7    C8    A    
C10   H19   S    
C2    C46   A    
C39   H16   S    
C8    H21   S    
C1    O1    A    
Cu2   O6    S    
C36   C37   A    
C19   C21   A    
C47   H26   S    
Cu1   O3    S    
C5    C6    A    
C20   C25   A    
C44   H11   S    
C33   C36   A    
Cu2   O8    S    
C18   C19   A    
C16   H5    S    
C34   O7    A    
C47   H25   S    
Cu1   Cu2   S    
C8    C9    A    
C1    C28   S    
C25   H8    S    
C34   O8    A    
C14   C27   A    
C40   N1    A    
C17   H7    S    
C15   C23   S    
C21   C22   A    
C38   N3    S    
Cu2   O2    S    
C3    H17   S    
Cu1   O7    S    
C24   H2    S    
C38   C39   A    
C1    O2    A    
C31   H15   S    
C36   C40   A    
C24   C25   A    
C30   N2    A    
C16   C17   A    
C15   C26   A    
C20   C28   A    
C45   C46   A    
C3    C45   A    
Cu2   O4    S    
C35   C39   A    
C43   C44   A    
C37   C38   A    
C26   H4    S    
C15   C27   A    
C14   H3    S    
C12   O4    A    
C17   C18   A    
C9    H22   S    
C41   N1    A    
N3    C47   S    
C12   O3    A    
C22   C24   A    
C42   C43   A    
C3    C4    A    
C27   H23   S    
C44   C45   A    
C35   N2    A    
C6    C46   A    
C29   C41   A    
Cu2   N2    S    
C31   C32   A    
C34   C43   S    
Cu1   O1    S    
C4    C5    A    
C11   C12   S    
C6    C7    A    
C32   C33   A    
C14   C22   A    
C41   H9    S    
C5    C10   A    
C4    H18   S    
C11   C13   A    
C30   C31   A    
C2    C42   A    
C33   C35   A    
C23   O5    A    
Cu1   N1    S    
C10   C11   A    
C18   H6    S    
C42   H1    S    
C32   H14   S    
C7    C13   A    
C29   H10   S    
N3    H24   S    
C30   H13   S    
C29   C37   A    
Cu1   O5    S    
C23   O6    A    
C2    C9    A    
C13   H20   S    
