data_mof_unit_11657.cif
_audit_creation_date              2012-12-10T20:34:55-0500
_audit_creation_method            fapswitch 2.2
_symmetry_space_group_name_H-M    P1
_symmetry_Int_Tables_number       1
_space_group_crystal_system       triclinic
_cell_length_a                    10.644038
_cell_length_b                    10.733729
_cell_length_c                    9.859566
_cell_angle_alpha                 89.792465
_cell_angle_beta                  89.795434
_cell_angle_gamma                 89.951319
_cell_volume                      1126.44261469

loop_
_atom_site_label
_atom_site_type_symbol
_atom_type_description
_atom_site_fract_x
_atom_site_fract_y
_atom_site_fract_z
_atom_type_partial_charge
C1    C     C_R   0.506926 0.260215 0.499664 0.883432
C2    C     C_R   0.471768 0.936449 0.614210 0.169064
C3    C     C_3   0.530205 0.925678 0.751212 -0.474764
C4    C     C_R   0.257728 0.503468 0.500245 0.895692
C5    C     C_3   0.536368 0.066176 0.751299 -0.489064
C6    C     C_R   0.392319 0.475551 0.072020 0.230971
C7    C     C_R   0.603438 0.535424 0.071394 -0.140448
C8    C     C_R   0.603462 0.535392 0.927453 -0.146587
C9    C     C_R   0.392008 0.476028 0.929441 0.223811
C10   C     C_3   0.316325 0.359205 0.925775 -0.521527
C11   C     C_3   0.317259 0.358887 0.079592 -0.507978
C12   C     C_3   0.878088 0.507454 0.500223 0.147172
C13   C     C_R   0.501737 0.739647 0.499576 0.939343
C14   C     C_R   0.742088 0.502729 0.499995 0.858208
C15   C     C_3   0.071993 0.381383 0.448110 -0.450920
C16   C     C_3   0.927798 0.379971 0.449376 -0.495498
C17   C     C_3   0.070796 0.530276 0.646028 -0.383349
C18   C     C_3   0.073634 0.615633 0.405734 -0.052858
C19   C     C_3   0.121297 0.508654 0.500241 0.092669
C20   C     C_3   0.837402 0.792691 0.536081 -0.750183
C21   C     C_3   0.575090 0.072783 0.125122 -0.809699
C22   C     C_3   0.928472 0.524779 0.647224 -0.396038
C23   C     C_3   0.927810 0.610953 0.400491 0.060770
C24   C     C_R   0.476540 0.063677 0.614064 0.115816
C25   C     C_R   0.512741 0.127658 0.497200 -0.202824
C26   C     C_R   0.540079 0.062909 0.375382 0.203040
C27   C     C_R   0.531229 0.933866 0.376779 -0.228245
C28   C     C_R   0.501592 0.871350 0.497306 -0.145296
H1    H     H_    0.107826 0.304281 0.513256 0.189030
H2    H     H_    0.106150 0.363968 0.343115 0.177443
H3    H     H_    0.687604 0.562220 0.873035 0.143092
H4    H     H_    0.221046 0.374177 0.884034 0.192158
H5    H     H_    0.368470 0.280526 0.880202 0.213878
H6    H     H_    0.222888 0.374921 0.124768 0.191159
H7    H     H_    0.370673 0.279735 0.124106 0.239875
H8    H     H_    0.892752 0.359813 0.345448 0.175649
H9    H     H_    0.893836 0.303253 0.516450 0.181163
H10   H     H_    0.106211 0.456735 0.715381 0.173213
H11   H     H_    0.898779 0.444226 0.711396 0.176132
H12   H     H_    0.102845 0.621588 0.686017 0.201531
H13   H     H_    0.108797 0.597096 0.301156 0.126725
H14   H     H_    0.905103 0.576745 0.296712 0.092194
H15   H     H_    0.890527 0.793376 0.331187 0.244527
H16   H     H_    0.802807 0.888757 0.516646 0.229773
H17   H     H_    0.921732 0.799046 0.601065 0.263904
H18   H     H_    0.761139 0.742559 0.589674 0.223108
H19   H     H_    0.669162 0.176473 0.274149 0.226073
H20   H     H_    0.645116 0.997076 0.111357 0.233384
H21   H     H_    0.593135 0.145545 0.047184 0.241308
H22   H     H_    0.478393 0.036528 0.110152 0.252958
H23   H     H_    0.890161 0.607981 0.698648 0.174911
H24   H     H_    0.555628 0.881479 0.286945 0.186809
H25   H     H_    0.463799 0.887274 0.827940 0.212663
H26   H     H_    0.624312 0.880616 0.749002 0.199250
H27   H     H_    0.474250 0.107527 0.829361 0.202618
H28   H     H_    0.633933 0.103249 0.749158 0.203665
H29   H     H_    0.687570 0.562246 0.125003 0.145523
I1    I     I_    0.157353 0.795537 0.449707 -0.469947
N1    N     N_R   0.499150 0.499140 0.142800 -0.104658
N2    N     N_R   0.499150 0.499180 0.857150 -0.106376
N3    N     N_2   0.865897 0.732726 0.408191 -0.297458
N4    N     N_2   0.587238 0.127374 0.258433 -0.275329
O1    O     O_R   0.500020 0.316790 0.614690 -0.614603
O2    O     O_R   0.500000 0.316760 0.385350 -0.601440
O3    O     O_R   0.314800 0.500000 0.614670 -0.620852
O4    O     O_R   0.314790 0.499960 0.385330 -0.621954
O5    O     O_R   0.500000 0.683240 0.614650 -0.621825
O6    O     O_R   0.499980 0.683210 0.385310 -0.609052
O7    O     O_R   0.685210 0.500040 0.614670 -0.647169
O8    O     O_R   0.685200 0.500000 0.385330 -0.638297
Zn1   Zn    Zn3+2 0.500010 0.500020 0.653130 0.936694
Zn2   Zn    Zn3+2 0.499990 0.499980 0.346870 0.953844

loop_
_geom_bond_atom_site_label_1
_geom_bond_atom_site_label_2
_ccdc_geom_bond_type
C8    N2    A    
C15   C19   S    
C24   C25   A    
C13   C28   S    
C17   C22   S    
C12   C22   S    
C13   O6    A    
C14   O8    A    
C9    C10   S    
N1    Zn2   S    
C5    H28   S    
C20   H17   S    
C21   H21   S    
C16   H9    S    
O6    Zn2   S    
C9    N2    A    
C21   H20   S    
C6    C9    A    
C11   H7    S    
C2    C3    S    
C26   N4    S    
C7    C8    A    
C16   H8    S    
C14   O7    A    
C1    C25   S    
C20   N3    S    
C3    H25   S    
C12   C23   S    
H15   N3    S    
C26   C27   A    
C23   H14   S    
H19   N4    S    
C6    C11   S    
C22   H11   S    
C1    O1    A    
C7    N1    A    
C21   H22   S    
C17   C19   S    
O1    Zn1   S    
C15   H1    S    
C10   H5    S    
O5    Zn1   S    
C17   H10   S    
O2    Zn2   S    
C2    C24   A    
C4    O3    A    
C3    H26   S    
C7    H29   S    
C20   H18   S    
C20   H16   S    
C2    C28   A    
C10   C11   S    
C22   H23   S    
C18   C23   S    
C1    O2    A    
C10   H4    S    
C23   N3    S    
C27   H24   S    
C4    O4    A    
C15   H2    S    
C18   C19   S    
C13   O5    A    
C18   H13   S    
C27   C28   A    
O7    Zn1   S    
C5    C24   S    
O8    Zn2   S    
C12   C16   S    
N2    Zn1   S    
C21   N4    S    
C25   C26   A    
O3    Zn1   S    
C4    C19   S    
C6    N1    A    
C5    H27   S    
C11   H6    S    
O4    Zn2   S    
C8    H3    S    
C15   C16   S    
C12   C14   S    
C18   I1    S    
C3    C5    S    
C17   H12   S    
