data_mof_unit_20725.cif
_audit_creation_date              2012-12-10T19:12:18-0500
_audit_creation_method            fapswitch 2.2
_symmetry_space_group_name_H-M    P1
_symmetry_Int_Tables_number       1
_space_group_crystal_system       triclinic
_cell_length_a                    7.801653
_cell_length_b                    9.095362
_cell_length_c                    17.049681
_cell_angle_alpha                 89.585418
_cell_angle_beta                  93.054016
_cell_angle_gamma                 90.00077
_cell_volume                      1208.07593261

loop_
_atom_site_label
_atom_site_type_symbol
_atom_type_description
_atom_site_fract_x
_atom_site_fract_y
_atom_site_fract_z
_atom_type_partial_charge
C1    C     C_R   0.499980 0.220085 0.500005 0.847590
C2    C     C_R   0.500020 0.779914 0.499997 0.845818
C3    C     C_R   0.519449 0.498015 0.651376 0.827578
C4    C     C_R   0.480316 0.498738 0.348633 0.826037
C5    C     C_R   0.523307 0.500013 0.737417 -0.125305
C6    C     C_R   0.473355 0.484355 0.262892 -0.114965
C7    C     C_R   0.375975 0.457238 0.775198 -0.272921
C8    C     C_R   0.621812 0.442824 0.225453 -0.274210
C9    C     C_R   0.366742 0.470356 0.856291 0.421757
C10   C     C_R   0.616757 0.421752 0.144406 0.356379
C11   C     C_R   0.512301 0.522883 0.901247 0.257099
C12   C     C_R   0.462596 0.447012 0.099944 0.255199
C13   C     C_R   0.658895 0.566118 0.863010 -0.118187
C14   C     C_R   0.314343 0.487118 0.137136 -0.128497
C15   C     C_R   0.665176 0.554208 0.781697 -0.163873
C16   C     C_R   0.319064 0.505329 0.218270 -0.189792
C17   C     C_1   0.499994 0.065384 0.500002 -0.156097
C18   C     C_1   0.500007 0.934618 0.500000 -0.158989
Cu1   Cu    Cu3+1 0.669080 0.500010 0.500000 1.022485
Cu2   Cu    Cu3+1 0.330920 0.499990 0.500000 1.021806
H1    H     H_    0.741067 0.424245 0.259519 0.206654
H2    H     H_    0.265593 0.416583 0.740765 0.210579
H3    H     H_    0.769077 0.609192 0.896675 0.233121
H4    H     H_    0.195599 0.505305 0.103019 0.253190
H5    H     H_    0.778849 0.590554 0.753339 0.198061
H6    H     H_    0.202707 0.536281 0.245926 0.194383
N1    N     N_1   0.076820 0.499970 0.500010 -0.042647
N2    N     N_1   0.923180 0.500030 0.499990 -0.042667
N3    N     N_2   0.515891 0.538030 0.983967 -0.163840
N4    N     N_2   0.454471 0.430026 0.017851 -0.103999
O1    O     O_R   0.642760 0.288400 0.500000 -0.574652
O2    O     O_R   0.357240 0.711600 0.500000 -0.575284
O3    O     O_R   0.357190 0.288380 0.500000 -0.575066
O4    O     O_R   0.642810 0.711620 0.500000 -0.576473
O5    O     O_R   0.658410 0.498660 0.613920 -0.576783
O6    O     O_R   0.341590 0.501340 0.386080 -0.582199
O7    O     O_R   0.372840 0.498650 0.613930 -0.585233
O8    O     O_R   0.627160 0.501350 0.386070 -0.586942
S1    S     S_3+6 0.803288 0.364146 0.099247 0.005713
O9    O     O_2   0.874094 0.493618 0.056607 -0.243033
O10   O     O_2   0.936584 0.308396 0.159118 -0.317715
O11   O     O_3   0.753950 0.230885 0.034028 -0.488420
H7    H     H_    0.701297 0.151945 0.065019 0.356529
S2    S     S_3+6 0.166971 0.433616 0.897044 0.035405
O12   O     O_2   0.123752 0.558659 0.949570 -0.271444
O13   O     O_2   0.027812 0.418195 0.833259 -0.309766
O14   O     O_3   0.180245 0.276016 0.949208 -0.484387
H8    H     H_    0.068953 0.267698 0.974143 0.428001

loop_
_geom_bond_atom_site_label_1
_geom_bond_atom_site_label_2
_ccdc_geom_bond_type
C4    O6    A    
N3    N4    D    
Cu2   O7    S    
Cu1   O8    S    
C2    C18   S    
C7    H2    S    
C11   C13   A    
C1    C17   S    
Cu1   Cu2   S    
S2    O14   S    
C3    O5    A    
Cu1   O1    S    
C2    O4    A    
C17   C18   T    
C12   C14   A    
C1    O3    A    
S1    O10   D    
Cu1   O5    S    
Cu1   N2    S    
C9    C11   A    
C11   N3    S    
C10   C12   A    
Cu2   O3    S    
C8    C10   A    
Cu2   N1    S    
S2    O13   D    
C8    H1    S    
S1    O11   S    
C5    C7    A    
C13   C15   A    
C16   H6    S    
C14   C16   A    
C15   H5    S    
C4    C6    S    
C5    C15   A    
O11   H7    S    
C6    C16   A    
Cu2   O6    S    
C3    C5    S    
C1    O1    A    
S2    O12   D    
C13   H3    S    
C2    O2    A    
Cu2   O2    S    
C14   H4    S    
S1    O9    D    
C7    C9    A    
C9    S2    S    
C6    C8    A    
C12   N4    S    
O14   H8    S    
C3    O7    A    
C4    O8    A    
C10   S1    S    
N1    N2    T    
Cu1   O4    S    
