data_mof_unit_33419.cif
_audit_creation_date              2012-12-11T14:13:30-0500
_audit_creation_method            fapswitch 2.2
_symmetry_space_group_name_H-M    P1
_symmetry_Int_Tables_number       1
_space_group_crystal_system       monoclinic
_cell_length_a                    11.493355
_cell_length_b                    18.867735
_cell_length_c                    10.093141
_cell_angle_alpha                 90.0
_cell_angle_beta                  109.34292
_cell_angle_gamma                 90.0
_cell_volume                      2065.18648942

loop_
_atom_site_label
_atom_site_type_symbol
_atom_type_description
_atom_site_fract_x
_atom_site_fract_y
_atom_site_fract_z
_atom_type_partial_charge
Br1   Br    Br    0.067113 0.577504 0.596297 -0.495677
Br2   Br    Br    0.932887 0.422496 0.403703 -0.495677
Br3   Br    Br    0.932887 0.077504 0.403703 -0.495677
Br4   Br    Br    0.067113 0.922496 0.596297 -0.495677
Br5   Br    Br    0.105839 0.093925 0.155622 -0.454749
Br6   Br    Br    0.894161 0.906076 0.844378 -0.454750
Br7   Br    Br    0.894161 0.593924 0.844378 -0.454749
Br8   Br    Br    0.105839 0.406075 0.155621 -0.454749
C1    C     C_R   0.078078 0.644934 0.142940 0.541136
C2    C     C_2   0.609375 0.070530 0.060486 -0.093144
C3    C     C_2   0.609375 0.429470 0.060486 -0.093145
C4    C     C_2   0.390625 0.570530 0.939514 -0.093145
C5    C     C_2   0.498157 0.961660 0.989142 -0.178095
C6    C     C_2   0.501843 0.038340 0.010858 -0.178095
C7    C     C_2   0.501843 0.461660 0.010858 -0.178095
C8    C     C_2   0.498157 0.538340 0.989142 -0.178095
C9    C     C_2   0.042211 0.929201 0.128952 -0.095666
C10   C     C_2   0.957789 0.070799 0.871048 -0.095666
C11   C     C_2   0.957789 0.429201 0.871048 -0.095666
C12   C     C_R   0.921922 0.355066 0.857060 0.541136
C13   C     C_2   0.042211 0.570799 0.128952 -0.095666
C14   C     C_2   0.993455 0.961052 0.004826 0.129325
C15   C     C_2   0.006545 0.038948 0.995174 0.129325
C16   C     C_2   0.006545 0.461052 0.995174 0.129325
C17   C     C_2   0.993455 0.538948 0.004826 0.129325
C18   C     C_R   0.437006 0.637685 0.377740 0.542410
C19   C     C_R   0.562994 0.362315 0.622260 0.542410
C20   C     C_R   0.562994 0.137685 0.622260 0.542410
C21   C     C_R   0.437006 0.862315 0.377740 0.542410
C22   C     C_R   0.375381 0.644705 0.965657 0.555358
C23   C     C_R   0.921922 0.144934 0.857060 0.541136
C24   C     C_R   0.624619 0.355295 0.034343 0.555358
C25   C     C_R   0.624619 0.144705 0.034343 0.555358
C26   C     C_R   0.375381 0.855295 0.965657 0.555358
C27   C     C_R   0.542606 0.437070 0.575396 -0.010245
C28   C     C_R   0.457394 0.562930 0.424604 -0.010245
C29   C     C_R   0.457394 0.937070 0.424604 -0.010245
C30   C     C_R   0.542606 0.062930 0.575396 -0.010245
C31   C     C_R   0.376187 0.448291 0.680201 -0.088126
C32   C     C_R   0.623813 0.551709 0.319799 -0.088126
C33   C     C_R   0.623813 0.948291 0.319799 -0.088126
C34   C     C_R   0.078078 0.855066 0.142939 0.541136
C35   C     C_R   0.376187 0.051709 0.680201 -0.088126
C36   C     C_R   0.256421 0.468304 0.666159 0.039947
C37   C     C_R   0.743579 0.531696 0.333840 0.039947
C38   C     C_R   0.743579 0.968304 0.333840 0.039947
C39   C     C_R   0.256421 0.031696 0.666159 0.039947
C40   C     C_R   0.208522 0.527521 0.584341 0.193532
C41   C     C_R   0.791478 0.472479 0.415659 0.193532
C42   C     C_R   0.791478 0.027521 0.415659 0.193532
C43   C     C_R   0.208522 0.972479 0.584341 0.193532
C44   C     C_R   0.272786 0.556961 0.503136 -0.074108
C45   C     C_R   0.437726 0.472680 0.588337 0.018456
C46   C     C_R   0.727214 0.443039 0.496864 -0.074108
C47   C     C_R   0.727214 0.056961 0.496864 -0.074108
C48   C     C_R   0.272786 0.943039 0.503135 -0.074108
C49   C     C_R   0.388826 0.531481 0.503769 -0.009996
C50   C     C_R   0.611174 0.468519 0.496231 -0.009996
C51   C     C_R   0.611174 0.031481 0.496231 -0.009996
C52   C     C_R   0.388826 0.968519 0.503769 -0.009996
C53   C     C_3   0.182060 0.425107 0.736185 -0.258469
C54   C     C_3   0.183230 0.345954 0.703308 -0.389956
C55   C     C_3   0.817940 0.574893 0.263815 -0.258469
C56   C     C_R   0.562274 0.527320 0.411663 0.018456
C57   C     C_3   0.816770 0.654046 0.296692 -0.389956
C58   C     C_3   0.817940 0.925107 0.263815 -0.258469
C59   C     C_3   0.816770 0.845954 0.296693 -0.389956
C60   C     C_3   0.182060 0.074893 0.736185 -0.258469
C61   C     C_3   0.183230 0.154046 0.703307 -0.389956
C62   C     C_R   0.562274 0.972680 0.411663 0.018456
C63   C     C_R   0.437726 0.027320 0.588337 0.018456
C64   C     C_2   0.390624 0.929470 0.939514 -0.093144
Cr1   Cr    Cr6+3 0.187610 0.750000 0.979860 1.157589
Cr2   Cr    Cr6+3 0.812390 0.250000 0.020140 1.157589
Cr3   Cr    Cr6+3 0.245810 0.750000 0.341640 1.047684
Cr4   Cr    Cr6+3 0.754190 0.250000 0.658360 1.047684
Cr5   Cr    Cr6+3 0.485760 0.750000 0.219910 0.983407
Cr6   Cr    Cr6+3 0.514240 0.250000 0.780090 0.983407
H1    H     H_    0.418398 0.410814 0.760802 0.161117
H2    H     H_    0.582162 0.930611 0.020738 0.145286
H3    H     H_    0.582162 0.569389 0.020738 0.145286
H4    H     H_    0.417838 0.430611 0.979262 0.145286
H5    H     H_    0.693240 0.039676 0.096581 0.135751
H6    H     H_    0.306760 0.960324 0.903419 0.135751
H7    H     H_    0.306760 0.539676 0.903419 0.135751
H8    H     H_    0.693240 0.460324 0.096581 0.135751
H9    H     H_    0.920646 0.039713 0.776179 0.140555
H10   H     H_    0.079354 0.960286 0.223821 0.140555
H11   H     H_    0.079354 0.539713 0.223821 0.140555
H12   H     H_    0.581602 0.589186 0.239198 0.161117
H13   H     H_    0.920646 0.460287 0.776179 0.140555
H14   H     H_    0.157127 0.337143 0.588360 0.226218
H15   H     H_    0.275668 0.322725 0.756423 0.148973
H16   H     H_    0.116622 0.317627 0.742430 0.162878
H17   H     H_    0.216464 0.432413 0.851422 0.133787
H18   H     H_    0.085069 0.442427 0.697809 0.222493
H19   H     H_    0.724332 0.677275 0.243577 0.148973
H20   H     H_    0.842873 0.662857 0.411640 0.226218
H21   H     H_    0.883378 0.682373 0.257570 0.162878
H22   H     H_    0.914931 0.557573 0.302191 0.222493
H23   H     H_    0.581602 0.910814 0.239198 0.161117
H24   H     H_    0.783536 0.567586 0.148578 0.133787
H25   H     H_    0.842873 0.837143 0.411640 0.226218
H26   H     H_    0.724332 0.822724 0.243577 0.148973
H27   H     H_    0.883378 0.817627 0.257570 0.162877
H28   H     H_    0.783536 0.932413 0.148578 0.133787
H29   H     H_    0.914931 0.942427 0.302191 0.222493
H30   H     H_    0.275668 0.177275 0.756423 0.148972
H31   H     H_    0.157127 0.162857 0.588360 0.226218
H32   H     H_    0.116622 0.182373 0.742430 0.162877
H33   H     H_    0.085069 0.057573 0.697809 0.222493
H34   H     H_    0.418398 0.089186 0.760802 0.161117
H35   H     H_    0.216464 0.067586 0.851422 0.133787
H36   H     H_    0.226031 0.597994 0.436882 0.194536
H37   H     H_    0.773969 0.402006 0.563118 0.194536
H38   H     H_    0.773969 0.097994 0.563118 0.194536
H39   H     H_    0.226030 0.902006 0.436882 0.194536
H40   H     H_    0.417838 0.069389 0.979262 0.145286
O1    O     O_R   0.267710 0.668200 0.902110 -0.455481
O2    O     O_R   0.883280 0.330790 0.732340 -0.555416
O3    O     O_R   0.883280 0.169210 0.732340 -0.555416
O4    O     O_R   0.116720 0.830790 0.267660 -0.555416
O5    O     O_R   0.366710 0.675440 0.427590 -0.487638
O6    O     O_R   0.633290 0.324560 0.572410 -0.487638
O7    O     O_R   0.633290 0.175440 0.572410 -0.487638
O8    O     O_R   0.366710 0.824560 0.427590 -0.487638
O9    O     O_R   0.534870 0.669390 0.371760 -0.499915
O10   O     O_R   0.465130 0.330610 0.628240 -0.499915
O11   O     O_R   0.465130 0.169390 0.628240 -0.499915
O12   O     O_R   0.732290 0.331800 0.097890 -0.455482
O13   O     O_R   0.534870 0.830610 0.371760 -0.499915
O14   O     O_R   0.453080 0.674480 0.075160 -0.549336
O15   O     O_R   0.546920 0.325520 0.924840 -0.549337
O16   O     O_R   0.546920 0.174480 0.924840 -0.549337
O17   O     O_R   0.453080 0.825520 0.075160 -0.549336
O18   O     O_3   0.306390 0.750000 0.180470 -0.320925
O19   O     O_3   0.693610 0.250000 0.819530 -0.320925
O20   O     O_R   0.732290 0.168200 0.097890 -0.455481
O21   O     O_R   0.267710 0.831800 0.902110 -0.455481
O22   O     O_R   0.099480 0.674460 0.038850 -0.429617
O23   O     O_R   0.900520 0.325540 0.961150 -0.429617
O24   O     O_R   0.900520 0.174460 0.961150 -0.429617
O25   O     O_R   0.099480 0.825540 0.038850 -0.429617
O26   O     O_R   0.116720 0.669210 0.267660 -0.555416

loop_
_geom_bond_atom_site_label_1
_geom_bond_atom_site_label_2
_ccdc_geom_bond_type
C55   C57   S    
Cr1   O1    S    
C47   C51   A    
C27   C45   A    
Cr3   O4    S    
C48   H39   S    
C2    H5    S    
C11   C12   S    
C58   H29   S    
Cr6   O10   S    
C24   O12   A    
C53   H18   S    
C59   H25   S    
C13   H11   S    
Cr4   O19   S    
Cr2   O20   S    
Cr4   O2    S    
C4    H7    S    
C27   C50   A    
Cr3   O5    S    
Cr4   O3    S    
C20   O11   A    
Cr6   O11   S    
C57   H20   S    
C38   C58   S    
C46   C50   A    
C24   O15   A    
C1    O22   A    
C22   O1    A    
C3    H8    S    
C7    C8    S    
Br6   C14   S    
C26   O21   A    
C9    H10   S    
C43   C48   A    
Cr5   O13   S    
C9    C34   S    
C61   H31   S    
C25   O16   A    
Br3   C42   S    
C4    C8    D    
C60   C61   S    
C6    H40   S    
C54   H14   S    
C33   C38   A    
Cr5   O18   S    
C20   C30   S    
C41   C46   A    
Cr5   O9    S    
C60   H35   S    
C61   H30   S    
C58   C59   S    
Cr2   O24   S    
C5    H2    S    
C5    C6    S    
Cr4   O7    S    
C3    C7    D    
C58   H28   S    
C55   H24   S    
C1    O26   A    
C59   H26   S    
C7    H4    S    
C50   C56   A    
C32   C37   A    
Cr2   O19   S    
Br4   C43   S    
C10   C15   D    
Cr4   O6    S    
C16   C17   S    
C23   O3    A    
C28   C49   A    
C2    C6    D    
C45   C49   A    
Cr3   O18   S    
C59   H27   S    
C39   C43   A    
Cr1   O21   S    
C52   C63   A    
C19   C27   S    
C37   C55   S    
C48   C52   A    
C47   H38   S    
Cr5   O14   S    
C31   H1    S    
C55   H22   S    
Br2   C41   S    
C61   H32   S    
Br5   C15   S    
Cr1   O18   S    
C37   C41   A    
C25   O20   A    
C46   H37   S    
C21   O13   A    
Cr6   O16   S    
C19   O10   A    
C57   H21   S    
C64   H6    S    
C18   C28   S    
Cr1   O22   S    
Cr2   O23   S    
C3    C24   S    
C54   H16   S    
C35   H34   S    
C44   C49   A    
Cr6   O19   S    
C26   C64   S    
C39   C60   S    
C12   O2    A    
C20   O7    A    
C34   O4    A    
Cr1   O25   S    
C13   C17   D    
C30   C63   A    
C35   C63   A    
C4    C22   S    
C12   O23   A    
C10   H9    S    
C32   C56   A    
C19   O6    A    
C53   H17   S    
Br1   C40   S    
C31   C36   A    
C5    C64   D    
C44   H36   S    
C36   C53   S    
C38   C42   A    
C42   C47   A    
Br7   C17   S    
Cr3   O8    S    
C23   O24   A    
Cr2   O12   S    
C11   C16   D    
C57   H19   S    
C28   C56   A    
C1    C13   S    
C31   C45   A    
C26   O17   A    
C22   O14   A    
C8    H3    S    
Br8   C16   S    
C33   H23   S    
C2    C25   S    
C18   O9    A    
C53   C54   S    
Cr6   O15   S    
C29   C52   A    
C11   H13   S    
Cr3   O26   S    
C51   C62   A    
C30   C51   A    
C40   C44   A    
C9    C14   D    
C18   O5    A    
C54   H15   S    
C21   C29   S    
C34   O25   A    
C14   C15   S    
C21   O8    A    
C10   C23   S    
Cr5   O17   S    
C32   H12   S    
C29   C62   A    
C35   C39   A    
C60   H33   S    
C36   C40   A    
C33   C62   A    
