data_mof_unit_26859.cif
_audit_creation_date              2012-12-10T17:21:17-0500
_audit_creation_method            fapswitch 2.2
_symmetry_space_group_name_H-M    P1
_symmetry_Int_Tables_number       1
_space_group_crystal_system       triclinic
_cell_length_a                    18.299904
_cell_length_b                    25.879345
_cell_length_c                    18.260907
_cell_angle_alpha                 89.922694
_cell_angle_beta                  89.89794
_cell_angle_gamma                 90.063125
_cell_volume                      8648.14748311

loop_
_atom_site_label
_atom_site_type_symbol
_atom_type_description
_atom_site_fract_x
_atom_site_fract_y
_atom_site_fract_z
_atom_type_partial_charge
C1    C     C_R   0.389797 0.250100 0.139776 0.480444
C2    C     C_R   0.575430 0.348965 0.878288 -0.125717
C3    C     C_R   0.927714 0.351112 0.123041 -0.125248
C4    C     C_R   0.395625 0.804295 0.408638 -0.119864
C5    C     C_R   0.425523 0.150109 0.622158 -0.124451
C6    C     C_R   0.396693 0.192372 0.407290 -0.119273
C7    C     C_R   0.425414 0.849345 0.621226 -0.125430
C8    C     C_R   0.967053 0.289585 0.891032 -0.089329
C9    C     C_R   0.985118 0.683464 0.127643 -0.094857
C10   C     C_R   0.965509 0.713149 0.892402 -0.089591
C11   C     C_R   0.987358 0.317924 0.128887 -0.093060
C12   C     C_R   0.465698 0.786713 0.392306 -0.089710
C13   C     C_R   0.602462 0.309237 0.093295 -0.119786
C14   C     C_R   0.485731 0.182860 0.628084 -0.092083
C15   C     C_R   0.466354 0.211160 0.391488 -0.089968
C16   C     C_R   0.485610 0.816686 0.627416 -0.092545
C17   C     C_R   0.296904 0.053958 0.872830 -0.087595
C18   C     C_R   0.297079 0.946382 0.872848 -0.087752
C19   C     C_R   0.796405 0.553983 0.372647 -0.087761
C20   C     C_R   0.796671 0.446404 0.372696 -0.087995
C21   C     C_R   0.319979 0.027092 0.810907 -0.119057
C22   C     C_R   0.320060 0.973419 0.810913 -0.118996
C23   C     C_R   0.819299 0.527128 0.310658 -0.119270
C24   C     C_R   0.575302 0.651435 0.879268 -0.124651
C25   C     C_R   0.819445 0.473455 0.310689 -0.119231
C26   C     C_R   0.274124 0.972894 0.936807 0.011907
C27   C     C_R   0.274029 0.027267 0.936801 0.012120
C28   C     C_R   0.773896 0.472911 0.436720 0.011837
C29   C     C_R   0.773780 0.527284 0.436698 0.011939
C30   C     C_R   0.250092 0.946275 0.000023 0.013803
C31   C     C_R   0.249888 0.053701 0.000013 0.013919
C32   C     C_R   0.750111 0.446293 0.500038 0.013916
C33   C     C_R   0.749926 0.553719 0.500003 0.013943
C34   C     C_R   0.225844 0.972696 0.063192 0.012147
C35   C     C_R   0.101316 0.189215 0.594037 -0.123005
C36   C     C_R   0.225694 0.027069 0.063178 0.012031
C37   C     C_R   0.726242 0.472734 0.563344 0.012084
C38   C     C_R   0.726152 0.527108 0.563325 0.011983
C39   C     C_R   0.202827 0.945979 0.127096 -0.086881
C40   C     C_R   0.202444 0.053553 0.127053 -0.087295
C41   C     C_R   0.703582 0.446049 0.627394 -0.087259
C42   C     C_R   0.703418 0.553629 0.627355 -0.087334
C43   C     C_R   0.179424 0.972809 0.188913 -0.119683
C44   C     C_R   0.179201 0.026480 0.188875 -0.119751
C45   C     C_R   0.680714 0.472922 0.689389 -0.118401
C46   C     C_R   0.077247 0.847485 0.379690 -0.131193
C47   C     C_R   0.680638 0.526597 0.689373 -0.118317
C48   C     C_R   0.249973 0.109338 0.000054 0.483334
C49   C     C_R   0.250046 0.890652 0.999986 0.483838
C50   C     C_R   0.749979 0.609346 0.500022 0.483644
C51   C     C_R   0.750047 0.390659 0.500004 0.483467
C52   C     C_R   0.251791 0.391319 0.000232 0.510768
C53   C     C_R   0.251144 0.608653 0.000410 0.518238
C54   C     C_R   0.750785 0.891360 0.499911 0.492267
C55   C     C_R   0.750828 0.108658 0.500130 0.494383
C56   C     C_3   0.181311 0.470047 0.025326 -0.273893
C57   C     C_R   0.104137 0.805522 0.591701 -0.120911
C58   C     C_3   0.267755 0.530222 0.922965 -0.269142
C59   C     C_3   0.180886 0.529394 0.026459 -0.265417
C60   C     C_3   0.270552 0.470941 0.922974 -0.267640
C61   C     C_3   0.707989 0.970483 0.563834 -0.255392
C62   C     C_3   0.713653 0.029468 0.432715 -0.254889
C63   C     C_3   0.713368 0.029573 0.568222 -0.265242
C64   C     C_3   0.719427 0.970432 0.428763 -0.264499
C65   C     C_3   0.320442 0.468472 0.057514 0.329715
C66   C     C_3   0.322214 0.531010 0.053353 0.325184
C67   C     C_3   0.839206 0.968583 0.502465 0.345384
C68   C     C_R   0.070934 0.147473 0.376041 -0.126971
C69   C     C_3   0.839162 0.031661 0.504605 0.346735
C70   C     C_3   0.257898 0.448913 0.001796 0.066476
C71   C     C_3   0.256255 0.551025 0.002357 0.084951
C72   C     C_3   0.755771 0.949107 0.499577 0.057582
C73   C     C_3   0.755757 0.050957 0.500719 0.057982
C74   C     C_R   0.140322 0.209636 0.716697 -0.088839
C75   C     C_R   0.123262 0.815768 0.264509 -0.092686
C76   C     C_R   0.141899 0.787202 0.715391 -0.088838
C77   C     C_R   0.120314 0.181511 0.263245 -0.093316
C78   C     C_R   0.641723 0.712707 0.215395 -0.088872
C79   C     C_R   0.533814 0.712236 0.108018 -0.094462
C80   C     C_R   0.622270 0.316657 0.763731 -0.091845
C81   C     C_R   0.640889 0.289481 0.216373 -0.089650
C82   C     C_R   0.622076 0.683342 0.764241 -0.092927
C83   C     C_R   0.155277 0.189658 0.647449 -0.118922
C84   C     C_R   0.130458 0.847743 0.325349 -0.130061
C85   C     C_R   0.157878 0.805316 0.645296 -0.119482
C86   C     C_R   0.125273 0.147887 0.322739 -0.128959
C87   C     C_R   0.657515 0.694468 0.145391 -0.118150
C88   C     C_R   0.628771 0.349216 0.824052 -0.126784
C89   C     C_R   0.656288 0.308901 0.146834 -0.118816
C90   C     C_R   0.515155 0.316234 0.872420 -0.094268
C91   C     C_R   0.628512 0.650930 0.824878 -0.128181
C92   C     C_3   0.356578 0.437016 0.185788 -0.266999
C93   C     C_3   0.416037 0.600712 0.020854 -0.298844
C94   C     C_3   0.260462 0.554385 0.179024 -0.265399
C95   C     C_3   0.420290 0.419064 0.978874 -0.321159
C96   C     C_3   0.857605 0.948206 0.641902 -0.289335
C97   C     C_3   0.868983 0.052637 0.367272 -0.294095
C98   C     C_3   0.950656 0.048206 0.584050 -0.291087
C99   C     C_3   0.956644 0.952493 0.431722 -0.296733
C100  C     C_R   0.532974 0.290096 0.108960 -0.091216
C101  C     C_R   0.389853 0.749938 0.860289 0.480183
C102  C     C_R   0.515317 0.684301 0.873239 -0.091998
C103  C     C_R   0.032174 0.208896 0.609513 -0.092838
C104  C     C_R   0.016107 0.815617 0.373217 -0.094776
C105  C     C_R   0.034123 0.787606 0.607885 -0.092084
C106  C     C_R   0.011628 0.180965 0.370428 -0.094758
C107  C     C_R   0.516605 0.731625 0.178557 0.011657
C108  C     C_R   0.507039 0.283086 0.811341 0.014933
C109  C     C_R   0.516183 0.269554 0.179022 0.009456
C110  C     C_R   0.507131 0.717162 0.811754 0.014928
C111  C     C_R   0.015828 0.229965 0.679273 0.011962
C112  C     C_R   0.389782 0.749932 0.139839 0.477636
C113  C     C_R   0.007507 0.782820 0.311773 0.014045
C114  C     C_R   0.016736 0.768294 0.678510 0.011150
C115  C     C_R   0.005468 0.215570 0.310563 0.013494
C116  C     C_R   0.070559 0.230213 0.733661 0.011877
C117  C     C_R   0.061946 0.782744 0.256923 0.015359
C118  C     C_R   0.071347 0.768128 0.733018 0.011929
C119  C     C_R   0.060338 0.215713 0.256145 0.014200
C120  C     C_R   0.571265 0.731808 0.233009 0.012041
C121  C     C_R   0.561458 0.283123 0.756498 0.015512
C122  C     C_R   0.570831 0.269324 0.233502 0.011276
C123  C     C_R   0.389843 0.250130 0.860267 0.480505
C124  C     C_R   0.561409 0.716909 0.756782 0.015025
C125  C     C_R   0.445824 0.749767 0.195997 0.009714
C126  C     C_R   0.445926 0.250063 0.804064 0.014525
C127  C     C_R   0.445828 0.250251 0.195964 0.007037
C128  C     C_R   0.446033 0.750077 0.804190 0.014699
C129  C     C_R   0.945788 0.249752 0.696024 0.010434
C130  C     C_R   0.945995 0.750193 0.304155 0.013798
C131  C     C_R   0.945854 0.750186 0.695969 0.008989
C132  C     C_R   0.945783 0.249834 0.304067 0.013625
C133  C     C_R   0.428535 0.767701 0.267073 0.012187
C134  C     C_R   0.889794 0.750079 0.639792 0.479113
C135  C     C_R   0.438591 0.216696 0.743343 0.015575
C136  C     C_R   0.428920 0.231166 0.266598 0.010821
C137  C     C_R   0.438628 0.783209 0.743114 0.015547
C138  C     C_R   0.929193 0.269210 0.766439 0.012038
C139  C     C_R   0.938313 0.717110 0.243153 0.015471
C140  C     C_R   0.928494 0.732181 0.767076 0.011721
C141  C     C_R   0.939425 0.283827 0.243828 0.014806
C142  C     C_R   0.983832 0.269288 0.820912 0.011758
C143  C     C_R   0.992943 0.716885 0.188505 0.012382
C144  C     C_R   0.983066 0.732105 0.821620 0.011412
C145  C     C_R   0.889744 0.249959 0.360224 0.481366
C146  C     C_R   0.994128 0.283830 0.189257 0.013340
C147  C     C_R   0.483156 0.767808 0.321558 0.011328
C148  C     C_R   0.493248 0.216522 0.688716 0.013422
C149  C     C_R   0.483485 0.231094 0.321153 0.011095
C150  C     C_R   0.493199 0.783244 0.688401 0.013413
C151  C     C_R   0.054114 0.249970 0.803963 0.010134
C152  C     C_R   0.054120 0.749798 0.195861 0.012926
C153  C     C_R   0.054058 0.749973 0.804064 0.009489
C154  C     C_R   0.054164 0.249880 0.196033 0.013291
C155  C     C_R   0.554093 0.749993 0.303991 0.009174
C156  C     C_R   0.889751 0.249955 0.639866 0.480445
C157  C     C_R   0.554088 0.249784 0.695812 0.013825
C158  C     C_R   0.554044 0.250004 0.304050 0.009503
C159  C     C_R   0.554016 0.750061 0.695757 0.013675
C160  C     C_R   0.357935 0.786497 0.284812 -0.089262
C161  C     C_R   0.377759 0.183200 0.735975 -0.091403
C162  C     C_R   0.358745 0.211225 0.283801 -0.089643
C163  C     C_R   0.377818 0.816616 0.735488 -0.092118
C164  C     C_R   0.859248 0.289443 0.783532 -0.088300
C165  C     C_R   0.877194 0.683895 0.235573 -0.092249
C166  C     C_R   0.857876 0.713247 0.784770 -0.089156
C167  C     C_R   0.889943 0.750239 0.360372 0.480970
C168  C     C_R   0.879269 0.317871 0.236648 -0.092301
C169  C     C_R   0.341890 0.804181 0.355039 -0.119806
C170  C     C_R   0.371660 0.150312 0.675921 -0.127611
C171  C     C_R   0.343042 0.192375 0.353577 -0.119030
C172  C     C_R   0.371644 0.849284 0.675088 -0.128802
C173  C     C_R   0.843874 0.308619 0.853128 -0.117970
C174  C     C_R   0.870807 0.651222 0.175315 -0.129120
C175  C     C_R   0.841751 0.695457 0.855004 -0.119276
C176  C     C_R   0.873765 0.351030 0.176718 -0.128003
C177  C     C_R   0.110242 0.249970 0.860087 0.481336
C178  C     C_R   0.603692 0.694202 0.091868 -0.120172
C179  C     C_R   0.110096 0.749789 0.139638 0.482072
C180  C     C_R   0.110181 0.749957 0.860201 0.480547
C181  C     C_R   0.110316 0.249900 0.139905 0.481430
C182  C     C_R   0.610212 0.749998 0.360119 0.481253
C183  C     C_R   0.610106 0.249801 0.639643 0.482296
C184  C     C_R   0.610178 0.249962 0.360194 0.481195
C185  C     C_R   0.610120 0.750106 0.639661 0.482481
C186  C     C_R   0.897629 0.308690 0.906734 -0.118789
C187  C     C_R   0.924643 0.650978 0.121526 -0.126189
C188  C     C_R   0.895416 0.695425 0.908681 -0.119463
H1    H     H_    0.161585 0.454974 0.078571 0.111665
H2    H     H_    0.334510 0.181968 0.776454 0.098459
H3    H     H_    0.380843 0.399233 0.170328 0.183460
H4    H     H_    0.407270 0.528794 0.971557 0.246548
H5    H     H_    0.393755 0.622086 0.973250 0.138054
H6    H     H_    0.476540 0.601770 0.016984 0.119317
H7    H     H_    0.400192 0.620599 0.072193 0.183822
H8    H     H_    0.371658 0.551309 0.154302 0.254555
H9    H     H_    0.281398 0.555065 0.236101 0.127006
H10   H     H_    0.224499 0.520372 0.174691 0.138496
H11   H     H_    0.227519 0.589822 0.172233 0.184162
H12   H     H_    0.436464 0.464010 0.071322 0.260982
H13   H     H_    0.315379 0.209686 0.243681 0.116693
H14   H     H_    0.470775 0.398054 0.994395 0.119562
H15   H     H_    0.435447 0.445973 0.934095 0.124768
H16   H     H_    0.381780 0.389322 0.960024 0.168037
H17   H     H_    0.895643 0.906972 0.554131 0.243616
H18   H     H_    0.824125 0.914532 0.659071 0.161586
H19   H     H_    0.828470 0.984128 0.655489 0.168361
H20   H     H_    0.908321 0.947398 0.675112 0.143432
H21   H     H_    0.899967 0.093388 0.458114 0.239786
H22   H     H_    0.836341 0.086108 0.348097 0.160911
H23   H     H_    0.841890 0.016421 0.351069 0.171164
H24   H     H_    0.334651 0.817955 0.776039 0.098505
H25   H     H_    0.922204 0.054322 0.338107 0.145293
H26   H     H_    0.850459 0.082142 0.597159 0.259216
H27   H     H_    0.963373 0.052655 0.643137 0.141308
H28   H     H_    0.976950 0.080743 0.554315 0.118357
H29   H     H_    0.974841 0.011309 0.565858 0.182672
H30   H     H_    0.858554 0.916886 0.413207 0.254512
H31   H     H_    0.974194 0.944387 0.374640 0.142362
H32   H     H_    0.981081 0.922671 0.467720 0.117324
H33   H     H_    0.978771 0.990753 0.446566 0.181946
H34   H     H_    0.815812 0.290907 0.743479 0.116113
H35   H     H_    0.833956 0.682692 0.276064 0.098834
H36   H     H_    0.814474 0.711652 0.744704 0.118369
H37   H     H_    0.835946 0.319179 0.277035 0.098505
H38   H     H_    0.790117 0.323701 0.865423 0.109314
H39   H     H_    0.823930 0.625931 0.170403 0.093861
H40   H     H_    0.787483 0.681377 0.867722 0.110564
H41   H     H_    0.317522 0.546494 0.896768 0.136147
H42   H     H_    0.827427 0.376758 0.171908 0.093368
H43   H     H_    0.287632 0.818109 0.367832 0.110403
H44   H     H_    0.324991 0.124822 0.671142 0.092408
H45   H     H_    0.289105 0.177473 0.365897 0.109963
H46   H     H_    0.324975 0.874699 0.670112 0.093505
H47   H     H_    0.007239 0.291190 0.934347 0.116126
H48   H     H_    0.025603 0.681960 0.084417 0.101596
H49   H     H_    0.005583 0.711480 0.935804 0.117597
H50   H     H_    0.027897 0.319285 0.085693 0.103022
H51   H     H_    0.505823 0.788432 0.435654 0.117846
H52   H     H_    0.162231 0.544311 0.079838 0.121258
H53   H     H_    0.526228 0.181399 0.584865 0.102831
H54   H     H_    0.506449 0.209570 0.434886 0.116577
H55   H     H_    0.526026 0.818031 0.584106 0.102952
H56   H     H_    0.161308 0.047224 0.237070 0.107468
H57   H     H_    0.161753 0.951862 0.237151 0.107977
H58   H     H_    0.663223 0.547392 0.737725 0.109582
H59   H     H_    0.663350 0.452009 0.737752 0.109325
H60   H     H_    0.296822 0.095703 0.869642 0.115745
H61   H     H_    0.297149 0.904642 0.869685 0.115979
H62   H     H_    0.796301 0.595729 0.369467 0.115702
H63   H     H_    0.321998 0.457953 0.897709 0.132013
H64   H     H_    0.796789 0.404663 0.369555 0.115506
H65   H     H_    0.337492 0.048009 0.762604 0.109650
H66   H     H_    0.337626 0.952629 0.762612 0.109776
H67   H     H_    0.836638 0.548054 0.262292 0.109458
H68   H     H_    0.836919 0.452688 0.262353 0.108950
H69   H     H_    0.139444 0.456675 0.985333 0.117916
H70   H     H_    0.221721 0.542743 0.887244 0.144852
H71   H     H_    0.138189 0.543140 0.987614 0.110862
H72   H     H_    0.226902 0.456586 0.885712 0.147312
H73   H     H_    0.649818 0.959822 0.553982 0.115614
H74   H     H_    0.720091 0.953007 0.617637 0.142863
H75   H     H_    0.654832 0.040006 0.437758 0.117988
H76   H     H_    0.657148 0.046019 0.569863 0.122271
H77   H     H_    0.663555 0.953912 0.422378 0.125739
H78   H     H_    0.202985 0.904234 0.130293 0.116271
H79   H     H_    0.202276 0.095291 0.130214 0.115920
H80   H     H_    0.703644 0.404303 0.630567 0.115569
H81   H     H_    0.703342 0.595370 0.630492 0.115802
H82   H     H_    0.885601 0.323841 0.960629 0.109122
H83   H     H_    0.919597 0.625460 0.074887 0.098614
H84   H     H_    0.882797 0.681331 0.963072 0.110255
H85   H     H_    0.730193 0.046895 0.380032 0.143642
H86   H     H_    0.923351 0.376995 0.076644 0.098454
H87   H     H_    0.383071 0.818327 0.463013 0.110115
H88   H     H_    0.420700 0.124420 0.575685 0.098011
H89   H     H_    0.384400 0.177496 0.461336 0.109260
H90   H     H_    0.420521 0.874843 0.574458 0.098496
H91   H     H_    0.183855 0.208384 0.756663 0.115085
H92   H     H_    0.166211 0.817200 0.223724 0.099232
H93   H     H_    0.185339 0.788694 0.755425 0.117367
H94   H     H_    0.163833 0.180374 0.223059 0.098128
H95   H     H_    0.685211 0.711272 0.255383 0.116879
H96   H     H_    0.739274 0.041132 0.620581 0.143728
H97   H     H_    0.665267 0.318119 0.722998 0.098517
H98   H     H_    0.684346 0.290828 0.256409 0.116117
H99   H     H_    0.664955 0.681706 0.723407 0.098616
H100  H     H_    0.208847 0.174190 0.635306 0.108349
H101  H     H_    0.177591 0.872782 0.330398 0.094131
H102  H     H_    0.212089 0.819527 0.632626 0.109802
H103  H     H_    0.171475 0.122031 0.327475 0.093629
H104  H     H_    0.711640 0.680207 0.132735 0.109886
H105  H     H_    0.675451 0.374703 0.828776 0.093527
H106  H     H_    0.710108 0.324021 0.134575 0.109307
H107  H     H_    0.749887 0.958939 0.378794 0.145609
H108  H     H_    0.675058 0.625389 0.829733 0.094457
H109  H     H_    0.616044 0.679729 0.037694 0.108541
H110  H     H_    0.580882 0.374271 0.925063 0.093476
H111  H     H_    0.614510 0.324611 0.039489 0.107936
H112  H     H_    0.580546 0.626262 0.926328 0.095373
H113  H     H_    0.112965 0.173356 0.540464 0.107360
H114  H     H_    0.083469 0.872171 0.427004 0.089760
H115  H     H_    0.116673 0.819865 0.537450 0.108821
H116  H     H_    0.074757 0.121154 0.422006 0.095065
H117  H     H_    0.493603 0.710424 0.064750 0.110981
H118  H     H_    0.314476 0.788032 0.244803 0.118524
H119  H     H_    0.475177 0.317117 0.916096 0.095920
H120  H     H_    0.492711 0.291949 0.065726 0.116051
H121  H     H_    0.475655 0.683783 0.917160 0.093462
H122  H     H_    0.991794 0.207016 0.566389 0.112989
H123  H     H_    0.975929 0.816932 0.416749 0.099593
H124  H     H_    0.993965 0.789426 0.564565 0.113864
H125  H     H_    0.970823 0.179393 0.413356 0.096691
H126  H     H_    0.250932 0.436537 0.144478 0.255776
H127  H     H_    0.331085 0.432939 0.240739 0.133302
H128  H     H_    0.399839 0.466860 0.190083 0.133712
N1    N     N_2   0.301313 0.451916 0.132798 -0.486662
N2    N     N_2   0.391770 0.547253 0.018954 -0.534461
N3    N     N_2   0.321877 0.553484 0.128001 -0.458516
N4    N     N_2   0.394326 0.447186 0.042381 -0.504078
N5    N     N_2   0.877361 0.943897 0.565018 -0.491113
N6    N     N_2   0.882389 0.056560 0.445468 -0.494974
N7    N     N_2   0.871754 0.049189 0.574298 -0.519383
N8    N     N_2   0.877234 0.950836 0.435623 -0.518837
O1    O     O_3   0.249990 0.250010 0.000000 -0.441773
O2    O     O_R   0.835430 0.219350 0.353840 -0.548936
O3    O     O_R   0.835430 0.219350 0.646160 -0.547701
O4    O     O_R   0.835430 0.780650 0.353840 -0.545536
O5    O     O_R   0.164550 0.280640 0.853840 -0.541696
O6    O     O_R   0.164550 0.719360 0.146160 -0.549988
O7    O     O_R   0.164550 0.719360 0.853840 -0.542115
O8    O     O_R   0.164550 0.280640 0.146160 -0.545443
O9    O     O_R   0.664550 0.780640 0.353840 -0.541958
O10   O     O_R   0.664550 0.219360 0.646160 -0.541041
O11   O     O_R   0.664550 0.219360 0.353840 -0.543297
O12   O     O_3   0.249990 0.749990 0.000000 -0.441563
O13   O     O_R   0.664550 0.780640 0.646160 -0.543029
O14   O     O_R   0.396160 0.219380 0.914560 -0.540571
O15   O     O_R   0.396160 0.780620 0.085440 -0.537138
O16   O     O_R   0.396160 0.780620 0.914560 -0.541542
O17   O     O_R   0.396160 0.219380 0.085440 -0.536878
O18   O     O_R   0.896160 0.719380 0.414560 -0.541116
O19   O     O_R   0.896160 0.280620 0.585440 -0.537264
O20   O     O_R   0.896160 0.280620 0.414560 -0.539972
O21   O     O_R   0.896160 0.719380 0.585440 -0.537508
O22   O     O_R   0.103840 0.219370 0.085450 -0.541341
O23   O     O_3   0.749990 0.750010 0.500000 -0.439628
O24   O     O_R   0.103840 0.780630 0.914550 -0.540213
O25   O     O_R   0.103840 0.780630 0.085450 -0.540142
O26   O     O_R   0.103840 0.219370 0.914550 -0.539677
O27   O     O_R   0.603840 0.719370 0.585450 -0.541465
O28   O     O_R   0.603840 0.280630 0.414550 -0.540167
O29   O     O_R   0.603840 0.280630 0.585450 -0.541381
O30   O     O_R   0.603840 0.719370 0.414550 -0.540148
O31   O     O_R   0.310730 0.133160 0.000000 -0.540532
O32   O     O_R   0.310730 0.866840 0.000000 -0.540270
O33   O     O_R   0.810730 0.633160 0.500000 -0.540500
O34   O     O_3   0.749990 0.249990 0.500000 -0.439844
O35   O     O_R   0.810730 0.366840 0.500000 -0.541044
O36   O     O_R   0.249970 0.366860 0.060720 -0.537482
O37   O     O_R   0.249970 0.633140 0.939280 -0.556472
O38   O     O_R   0.249970 0.633140 0.060720 -0.538844
O39   O     O_R   0.249970 0.366860 0.939280 -0.559451
O40   O     O_R   0.749970 0.866860 0.560720 -0.550620
O41   O     O_R   0.749970 0.133140 0.439280 -0.549984
O42   O     O_R   0.749970 0.133140 0.560720 -0.562966
O43   O     O_R   0.749970 0.866860 0.439280 -0.560783
O44   O     O_R   0.189290 0.133150 0.000000 -0.542414
O45   O     O_R   0.335430 0.280650 0.146160 -0.548319
O46   O     O_R   0.189290 0.866850 0.000000 -0.541524
O47   O     O_R   0.689290 0.633150 0.500000 -0.541986
O48   O     O_R   0.689290 0.366850 0.500000 -0.541867
O49   O     O_R   0.335430 0.719350 0.853840 -0.544072
O50   O     O_R   0.335430 0.719350 0.146160 -0.549719
O51   O     O_R   0.335430 0.280650 0.853840 -0.545437
O52   O     O_R   0.835430 0.780650 0.646160 -0.551394
Zn1   Zn    Zn3+2 0.249990 0.293780 0.913250 0.912184
Zn2   Zn    Zn3+2 0.336760 0.793760 0.000000 0.922133
Zn3   Zn    Zn3+2 0.836760 0.706240 0.500000 0.923614
Zn4   Zn    Zn3+2 0.836760 0.293760 0.500000 0.924486
Zn5   Zn    Zn3+2 0.163250 0.206230 0.000000 0.923405
Zn6   Zn    Zn3+2 0.163250 0.793770 0.000000 0.923305
Zn7   Zn    Zn3+2 0.663250 0.706230 0.500000 0.924434
Zn8   Zn    Zn3+2 0.663250 0.293770 0.500000 0.923978
Zn9   Zn    Zn3+2 0.249990 0.706220 0.086750 0.901291
Zn10  Zn    Zn3+2 0.249990 0.706220 0.913250 0.910431
Zn11  Zn    Zn3+2 0.249990 0.293780 0.086750 0.912864
Zn12  Zn    Zn3+2 0.749990 0.793780 0.413250 0.910331
Zn13  Zn    Zn3+2 0.749990 0.206220 0.586750 0.909252
Zn14  Zn    Zn3+2 0.749990 0.206220 0.413250 0.906461
Zn15  Zn    Zn3+2 0.749990 0.793780 0.586750 0.904357
Zn16  Zn    Zn3+2 0.336760 0.206240 0.000000 0.925036

loop_
_geom_bond_atom_site_label_1
_geom_bond_atom_site_label_2
_ccdc_geom_bond_type
O38   Zn9   S    
C92   H128  S    
C134  O21   A    
C75   C117  A    
C74   C83   A    
C9    C143  A    
C155  C182  S    
C136  C162  A    
C95   H14   S    
C48   O44   A    
C64   H77   S    
C31   C36   A    
C105  H124  S    
C24   H112  S    
C96   H20   S    
C58   C60   S    
C29   C33   A    
C101  C128  S    
O47   Zn7   S    
C118  C153  A    
C185  O27   A    
C61   C63   S    
C52   O36   A    
C62   C64   S    
C131  C140  A    
C175  C188  A    
C130  C167  S    
C109  C127  A    
C162  C171  A    
C63   H96   S    
C77   H94   S    
C4    C12   A    
C147  C155  A    
O7    Zn10  S    
C54   O40   A    
C101  O49   A    
C15   H54   S    
O1    Zn5   S    
C100  C109  A    
C21   C22   A    
C184  O11   A    
O34   Zn4   S    
O35   Zn4   S    
C82   C124  A    
C25   H68   S    
C80   C121  A    
C45   C47   A    
C173  C186  A    
O12   Zn10  S    
C150  C159  A    
C27   C31   A    
C28   C32   A    
C127  C136  A    
C97   H22   S    
C123  C126  S    
C20   C28   A    
C17   H60   S    
C33   C50   S    
C120  C155  A    
C76   C118  A    
C175  H40   S    
C169  H43   S    
C142  C151  A    
C78   C120  A    
C174  H39   S    
C79   H117  S    
C37   C38   A    
C146  C154  A    
C182  O9    A    
C87   H104  S    
C122  C158  A    
C164  C173  A    
C82   H99   S    
C112  C125  S    
C46   C84   A    
C30   C49   S    
O1    Zn16  S    
C31   C48   S    
C53   C71   S    
C112  O15   A    
C107  C120  A    
C15   C149  A    
C165  H35   S    
C3    H86   S    
C67   C69   S    
C183  O10   A    
C141  C168  A    
O45   Zn11  S    
O41   Zn14  S    
O24   Zn6   S    
C62   H75   S    
O3    Zn13  S    
C129  C156  S    
C19   H62   S    
C33   C38   A    
C56   C59   S    
C106  C115  A    
C133  C160  A    
C60   H72   S    
C156  O19   A    
C49   O46   A    
C61   H73   S    
C80   C88   A    
C57   C85   A    
O14   Zn16  S    
O10   Zn13  S    
C177  O5    A    
C78   H95   S    
C3    C11   A    
C40   H79   S    
O27   Zn7   S    
C3    C176  A    
C99   H32   S    
O48   Zn8   S    
C41   C45   A    
C8    H47   S    
C108  C126  A    
C76   C85   A    
C110  C128  A    
C78   C87   A    
C93   H6    S    
C167  O4    A    
C63   H76   S    
C104  H123  S    
C85   H102  S    
O33   Zn3   S    
O23   Zn7   S    
C58   H70   S    
C132  C145  S    
O19   Zn4   S    
C89   H106  S    
C20   H64   S    
C95   H15   S    
C65   C70   S    
C91   H108  S    
C13   H111  S    
C2    C90   A    
C67   C72   S    
C139  C165  A    
C48   O31   A    
C139  C143  A    
C170  H44   S    
C10   C188  A    
C5    C170  A    
C62   C73   S    
C133  C147  A    
C60   C70   S    
C149  C158  A    
C65   N4    S    
C66   N3    S    
C176  H42   S    
C188  H84   S    
C1    O17   A    
C135  C161  A    
C99   N8    S    
C54   O43   A    
O4    Zn12  S    
C115  C132  A    
C113  C130  A    
C30   C34   A    
C34   C39   A    
C17   C27   A    
H30   N8    S    
C107  C125  A    
C166  H36   S    
C137  C163  A    
C90   H119  S    
C8    C186  A    
C165  C174  A    
O9    Zn12  S    
O34   Zn14  S    
C174  C187  A    
O1    Zn1   S    
C10   C144  A    
C32   C37   A    
C123  O51   A    
O49   Zn10  S    
O44   Zn5   S    
C113  C117  A    
O30   Zn7   S    
C98   N7    S    
C26   C30   A    
C115  C119  A    
C137  C150  A    
O6    Zn9   S    
C44   H56   S    
C184  O28   A    
C171  H45   S    
C132  C141  A    
C168  C176  A    
C86   H103  S    
C97   H23   S    
C18   C22   A    
C4    H87   S    
C53   O38   A    
C161  H2    S    
C97   N6    S    
C163  H24   S    
C11   C146  A    
O5    Zn1   S    
C75   H92   S    
C94   H9    S    
C183  O29   A    
C59   H52   S    
C90   C108  A    
C1    O45   A    
C43   H57   S    
O31   Zn16  S    
C178  H109  S    
O32   Zn2   S    
C148  C157  A    
C37   C41   A    
C180  O24   A    
C181  O8    A    
C21   H65   S    
C104  C113  A    
C55   C73   S    
O43   Zn12  S    
C40   C44   A    
C10   H49   S    
O18   Zn3   S    
O42   Zn13  S    
C97   H25   S    
C7    C172  A    
H12   N4    S    
C116  C151  A    
C106  H125  S    
C98   H27   S    
C99   H33   S    
H26   N7    S    
C114  C131  A    
C56   H69   S    
C18   C26   A    
C108  C121  A    
O20   Zn4   S    
C131  C134  S    
C136  C149  A    
C11   H50   S    
C26   C27   A    
C12   C147  A    
C28   C29   A    
C35   C103  A    
C55   O42   A    
O46   Zn6   S    
O8    Zn11  S    
C58   C71   S    
C20   C25   A    
C18   H61   S    
C35   H113  S    
C154  C181  S    
C123  O14   A    
C103  C111  A    
C181  O22   A    
C110  C124  A    
C67   N5    S    
C111  C129  A    
O36   Zn11  S    
C60   H63   S    
C160  C169  A    
C69   C73   S    
C111  C116  A    
C51   O48   A    
C179  O6    A    
C81   C89   A    
H126  N1    S    
C68   H116  S    
C92   H127  S    
C187  H83   S    
O23   Zn3   S    
C93   N2    S    
C49   O32   A    
C112  O50   A    
C59   H71   S    
C95   N4    S    
O29   Zn8   S    
C130  C139  A    
C65   N1    S    
C140  C166  A    
C76   H93   S    
O40   Zn15  S    
C138  C142  A    
C35   C83   A    
C96   H19   S    
C63   C73   S    
H8    N3    S    
C9    C187  A    
C46   C104  A    
C32   C51   S    
C66   C71   S    
C79   C107  A    
C5    C14   A    
C141  C146  A    
C50   O33   A    
C61   C72   S    
C143  C152  A    
C99   H31   S    
C126  C135  A    
C119  C154  A    
C101  O16   A    
C102  C110  A    
C19   C29   A    
C94   H11   S    
O11   Zn14  S    
H17   N5    S    
O12   Zn9   S    
C93   H5    S    
C140  C144  A    
C38   C42   A    
O37   Zn10  S    
O21   Zn3   S    
C81   C122  A    
O52   Zn15  S    
C152  C179  S    
O50   Zn9   S    
C87   C178  A    
C159  C185  S    
C13   C100  A    
C64   H107  S    
C24   C102  A    
O15   Zn2   S    
C75   C84   A    
C17   C21   A    
C151  C177  S    
C82   C91   A    
C92   N1    S    
C98   H29   S    
O2    Zn14  S    
C94   N3    S    
C41   H80   S    
C8    C142  A    
C157  C183  S    
C57   H115  S    
C6    H89   S    
C158  C184  S    
C47   H58   S    
C57   C105  A    
C153  C180  S    
C68   C86   A    
C19   C23   A    
C43   C44   A    
C45   H59   S    
C39   H78   S    
O12   Zn2   S    
C80   H97   S    
O12   Zn6   S    
C179  O25   A    
C61   H74   S    
C88   H105  S    
O34   Zn8   S    
C173  H38   S    
C109  C122  A    
C124  C159  A    
C14   C148  A    
O28   Zn8   S    
C144  C153  A    
O25   Zn6   S    
C182  O30   A    
C167  O18   A    
H21   N6    S    
C12   H51   S    
C129  C138  A    
H4    N2    S    
C2    C88   A    
C145  O20   A    
C34   C36   A    
C180  O7    A    
C23   C25   A    
C6    C15   A    
C121  C157  A    
C9    H48   S    
C93   H7    S    
C68   C106  A    
C2    H110  S    
O13   Zn15  S    
C6    C171  A    
O51   Zn1   S    
C74   H91   S    
C4    C169  A    
C84   H101  S    
C162  H13   S    
C53   O37   A    
C105  C114  A    
C36   C40   A    
C23   H67   S    
C168  H37   S    
C39   C43   A    
O23   Zn12  S    
C95   H16   S    
C102  H121  S    
C94   H10   S    
C62   H85   S    
C128  C137  A    
C46   H114  S    
C166  C175  A    
C163  C172  A    
C177  O26   A    
C14   H53   S    
C186  H82   S    
O16   Zn2   S    
C96   H18   S    
C69   N7    S    
O1    Zn11  S    
C74   C116  A    
C79   C178  A    
O23   Zn15  S    
C145  O2    A    
C5    H88   S    
C114  C118  A    
C161  C170  A    
C66   N2    S    
C134  O52   A    
C69   N6    S    
C77   C86   A    
C135  C148  A    
C56   C70   S    
O39   Zn1   S    
C51   O35   A    
C7    H90   S    
C24   C91   A    
C50   O47   A    
O26   Zn5   S    
C125  C133  A    
C98   H28   S    
C56   H1    S    
C7    C16   A    
C13   C89   A    
C1    C127  S    
C52   O39   A    
C77   C119  A    
C16   C150  A    
C92   H3    S    
C172  H46   S    
C103  H122  S    
C42   H81   S    
O34   Zn13  S    
C58   H41   S    
C55   O41   A    
C160  H118  S    
C96   N5    S    
O22   Zn5   S    
C117  C152  A    
C42   C47   A    
C64   C72   S    
C185  O13   A    
C22   H66   S    
C156  O3    A    
C52   C70   S    
O17   Zn16  S    
C67   N8    S    
C100  H120  S    
C16   H55   S    
C164  H34   S    
C54   C72   S    
C65   C66   S    
C138  C164  A    
C81   H98   S    
C83   H100  S    
C59   C71   S    
