data_mof_unit_35322.cif
_audit_creation_date              2012-12-11T15:28:39-0500
_audit_creation_method            fapswitch 2.2
_symmetry_space_group_name_H-M    P1
_symmetry_Int_Tables_number       1
_space_group_crystal_system       triclinic
_cell_length_a                    6.961019
_cell_length_b                    19.598863
_cell_length_c                    23.321713
_cell_angle_alpha                 95.904854
_cell_angle_beta                  90.899466
_cell_angle_gamma                 88.955599
_cell_volume                      3164.02261882

loop_
_atom_site_label
_atom_site_type_symbol
_atom_type_description
_atom_site_fract_x
_atom_site_fract_y
_atom_site_fract_z
_atom_type_partial_charge
O1    O     O_R   0.617180 0.809390 0.808140 -0.530178
O2    O     O_R   0.382820 0.190610 0.191860 -0.527734
O3    O     O_R   0.293300 0.672410 0.795490 -0.523991
O4    O     O_R   0.706700 0.327590 0.204510 -0.524600
O5    O     O_R   0.117220 0.690610 0.691850 -0.528383
O6    O     O_R   0.882780 0.309390 0.308150 -0.525185
C1    C     C_R   0.463943 0.647594 0.804959 0.805676
C2    C     C_R   0.536056 0.352406 0.195040 0.804661
O7    O     O_R   0.287840 0.807750 0.814460 -0.524126
O8    O     O_R   0.712160 0.192250 0.185540 -0.526437
O9    O     O_R   0.111720 0.826910 0.710960 -0.535086
O10   O     O_R   0.888280 0.173090 0.289040 -0.521145
C3    C     C_R   0.456460 0.830755 0.833179 0.742346
C4    C     C_R   0.543535 0.169242 0.166823 0.745618
O11   O     O_R   0.622680 0.673080 0.789040 -0.543031
O12   O     O_R   0.377320 0.326920 0.210960 -0.542972
O13   O     O_3   0.448820 0.756130 0.716020 -0.363991
O14   O     O_3   0.551180 0.243870 0.283980 -0.361490
V1    V     V_3+5 0.176220 0.748860 0.756300 1.506478
V2    V     V_3+5 0.823780 0.251140 0.243700 1.517089
O15   O     O_R   0.781670 0.827580 0.704500 -0.529985
O16   O     O_R   0.218330 0.172420 0.295500 -0.539638
C5    C     C_R   0.948952 0.851648 0.693702 0.814659
C6    C     C_R   0.051613 0.148176 0.306137 0.806104
O17   O     O_R   0.787130 0.692240 0.685530 -0.528006
O18   O     O_R   0.212870 0.307760 0.314470 -0.531382
C7    C     C_R   0.956113 0.669232 0.666809 0.739948
C8    C     C_R   0.043888 0.330766 0.333191 0.734662
V3    V     V_3+5 0.675510 0.751130 0.743690 1.491643
V4    V     V_3+5 0.324490 0.248870 0.256310 1.485078
O19   O     O_3   0.952780 0.743870 0.783980 -0.365069
O20   O     O_3   0.047220 0.256130 0.216020 -0.365347
C9    C     C_1   0.966679 0.617162 0.614756 -0.164366
C10   C     C_1   0.033327 0.382836 0.385245 -0.163840
C11   C     C_1   0.978240 0.573649 0.571937 0.036077
C12   C     C_1   0.021773 0.426349 0.428064 0.039689
C13   C     C_1   0.993444 0.521853 0.521322 0.032006
C14   C     C_1   0.006574 0.478144 0.478680 0.033595
C15   C     C_R   0.955657 0.915617 0.664794 -0.382957
C16   C     C_R   0.054014 0.084198 0.335260 -0.361218
C17   C     C_R   0.972255 0.039652 0.669623 0.689349
C18   C     C_R   0.150750 0.964591 0.335691 0.685134
C19   C     C_R   0.954998 0.980478 0.697598 0.216452
C20   C     C_R   0.121566 0.021973 0.305647 0.218255
C21   C     C_R   0.973437 0.911930 0.604286 0.630031
C22   C     C_R   0.013831 0.086719 0.394654 0.550921
C23   C     C_R   0.013317 0.971615 0.576191 -0.096899
C24   C     C_R   0.063546 0.030431 0.426899 -0.122757
C25   C     C_R   0.001182 0.035943 0.609805 -0.268474
C26   C     C_R   0.123078 0.968183 0.395542 -0.189221
C27   C     C_R   0.060659 0.970355 0.516027 0.046554
C28   C     C_R   0.054885 0.033084 0.488846 -0.055098
C29   C     C_R   0.059726 0.095848 0.525467 0.436556
C30   C     C_R   0.135643 0.910699 0.483772 0.440246
C31   C     C_R   0.026138 0.096451 0.584137 -0.070593
C32   C     C_R   0.162320 0.910257 0.424259 -0.180662
H1    H     H_    0.029068 0.145401 0.610400 0.213622
H2    H     H_    0.218712 0.864070 0.400349 0.188193
C33   C     C_R   0.479279 0.583997 0.833747 -0.276867
C34   C     C_R   0.520717 0.416003 0.166253 -0.276073
C35   C     C_R   0.519455 0.459772 0.830338 0.383767
C36   C     C_R   0.480509 0.540227 0.169661 0.381920
C37   C     C_R   0.511714 0.519724 0.801532 0.178425
C38   C     C_R   0.488260 0.480274 0.198468 0.177471
C39   C     C_R   0.463666 0.588283 0.894004 0.514767
C40   C     C_R   0.536335 0.411718 0.105995 0.514538
C41   C     C_R   0.490939 0.529221 0.924387 -0.095296
C42   C     C_R   0.509051 0.470779 0.075612 -0.095103
C43   C     C_R   0.505596 0.464583 0.891006 -0.049454
C44   C     C_R   0.494381 0.535417 0.108994 -0.048432
C45   C     C_R   0.499113 0.531255 0.986403 0.102160
C46   C     C_R   0.500877 0.468745 0.013597 0.101706
C47   C     C_R   0.487965 0.406585 0.977788 -0.128490
C48   C     C_R   0.512020 0.593414 0.022213 -0.128867
C49   C     C_R   0.499328 0.404456 0.918408 -0.101976
C50   C     C_R   0.500647 0.595544 0.081592 -0.104088
H3    H     H_    0.496931 0.354516 0.893732 0.195989
H4    H     H_    0.503036 0.645483 0.106269 0.194983
H5    H     H_    0.464175 0.358124 0.993985 0.213666
H6    H     H_    0.535810 0.641876 0.006016 0.213323
C51   C     C_1   0.467089 0.882829 0.885234 -0.166279
C52   C     C_1   0.532887 0.117165 0.114771 -0.165835
C53   C     C_1   0.478536 0.926345 0.928056 0.040219
C54   C     C_1   0.521422 0.073649 0.071950 0.039654
C55   C     C_1   0.493513 0.978141 0.978679 0.037265
C56   C     C_1   0.506434 0.021851 0.021327 0.036827
F1    F     F_    0.919043 0.143073 0.419437 -0.646861
F2    F     F_    0.933008 0.851118 0.573566 -0.645021
O21   O     O_3   0.160355 0.014430 0.247322 -0.587890
H7    H     H_    0.111640 0.054865 0.229125 0.281599
O22   O     O_3   0.935751 0.989089 0.756878 -0.586243
H8    H     H_    0.917220 0.944389 0.771961 0.281178
F3    F     F_    0.965408 0.101542 0.701826 -0.616541
F4    F     F_    0.211561 0.904996 0.305944 -0.620538
O23   O     O_3   0.124990 0.156241 0.507929 -0.588603
H9    H     H_    0.224073 0.144515 0.478290 0.313234
O24   O     O_3   0.207873 0.856784 0.511850 -0.593183
H10   H     H_    0.257825 0.819913 0.483370 0.308636
F5    F     F_    0.591977 0.350046 0.079060 -0.703679
F6    F     F_    0.408037 0.649957 0.920939 -0.703793
O25   O     O_3   0.469294 0.487157 0.257871 -0.640719
H11   H     H_    0.483444 0.442315 0.273460 0.283867
O26   O     O_3   0.530671 0.512840 0.742128 -0.638957
H12   H     H_    0.516542 0.557683 0.726540 0.284236
O27   O     O_3   0.541574 0.395285 0.800452 -0.620567
H13   H     H_    0.546300 0.398678 0.758477 0.359057
O28   O     O_3   0.458368 0.604712 0.199548 -0.622515
H14   H     H_    0.453624 0.601319 0.241522 0.356601

loop_
_geom_bond_atom_site_label_1
_geom_bond_atom_site_label_2
_ccdc_geom_bond_type
C40   C42   A    
O25   H11   S    
O6    C8    A    
C29   O23   S    
O13   V3    S    
O23   H9    S    
O4    C2    A    
V1    O19   S    
O24   H10   S    
C23   C25   A    
C55   C56   T    
C7    C9    S    
C16   C22   A    
O9    V1    S    
C48   C50   A    
C11   C13   S    
C54   C56   S    
O3    C1    A    
O12   V4    S    
C3    C51   S    
C36   C44   A    
C21   C23   A    
C17   C25   A    
C35   C37   A    
O7    C3    A    
C36   C38   A    
C9    C11   T    
O5    C7    A    
O7    V1    S    
C17   F3    S    
O8    V2    S    
C39   C41   A    
O28   H14   S    
C30   O24   S    
O3    V1    S    
O14   V4    S    
C35   O27   S    
C41   C45   A    
C15   C21   A    
C24   C26   A    
C34   C40   A    
C2    O12   A    
C48   H6    S    
C17   C19   A    
C18   C20   A    
C1    C33   S    
C51   C53   T    
O11   V3    S    
C30   C32   A    
C29   C31   A    
O17   V3    S    
C38   O25   S    
C22   C24   A    
C27   C28   A    
C21   F2    S    
C37   O26   S    
O8    C4    A    
O22   H8    S    
C15   C19   A    
C36   O28   S    
C25   C31   A    
O15   V3    S    
C26   C32   A    
C41   C43   A    
C40   F5    S    
C13   C14   T    
C16   C20   A    
C42   C46   A    
O10   V2    S    
O1    V3    S    
C47   H5    S    
C49   H3    S    
C18   C26   A    
C53   C55   S    
O18   V4    S    
C52   C54   T    
C31   H1    S    
C44   C50   A    
O16   C6    A    
O1    C3    A    
C47   C49   A    
C12   C14   S    
C28   C29   A    
C22   F1    S    
V2    O20   S    
C35   C43   A    
C6    C16   S    
O16   V4    S    
C18   F4    S    
C33   C37   A    
C39   F6    S    
C50   H4    S    
C46   C47   A    
C45   C48   A    
C23   C27   A    
O5    V1    S    
O17   C7    A    
O6    V2    S    
O27   H13   S    
O10   C6    A    
O18   C8    A    
C34   C38   A    
O2    V4    S    
C27   C30   A    
O15   C5    A    
C45   C46   A    
V3    O19   S    
C2    C34   S    
V4    O20   S    
C5    C15   S    
C1    O11   A    
O9    C5    A    
O13   V1    S    
C10   C12   T    
C32   H2    S    
C43   C49   A    
O14   V2    S    
O2    C4    A    
C19   O22   S    
C8    C10   S    
O4    V2    S    
C24   C28   A    
C42   C44   A    
O26   H12   S    
C4    C52   S    
O21   H7    S    
C33   C39   A    
C20   O21   S    
