data_mof_unit_14786.cif
_audit_creation_date              2012-12-10T17:22:07-0500
_audit_creation_method            fapswitch 2.2
_symmetry_space_group_name_H-M    P1
_symmetry_Int_Tables_number       1
_space_group_crystal_system       triclinic
_cell_length_a                    15.871443
_cell_length_b                    10.773929
_cell_length_c                    9.611722
_cell_angle_alpha                 88.066946
_cell_angle_beta                  90.205624
_cell_angle_gamma                 92.377546
_cell_volume                      1641.22999459

loop_
_atom_site_label
_atom_site_type_symbol
_atom_type_description
_atom_site_fract_x
_atom_site_fract_y
_atom_site_fract_z
_atom_type_partial_charge
C1    C     C_R   0.503859 0.262443 0.503498 0.828360
C2    C     C_3   0.948793 0.406944 0.615344 0.482134
C3    C     C_3   0.917008 0.499259 0.501213 0.217929
C4    C     C_3   0.954769 0.630778 0.530725 -0.505474
C5    C     C_3   0.052425 0.630749 0.530481 -0.367183
C6    C     C_1   0.824827 0.499790 0.501200 -0.049297
C7    C     C_1   0.174887 0.499460 0.499844 -0.058527
C8    C     C_1   0.250522 0.499547 0.499581 -0.117666
C9    C     C_R   0.637585 0.113386 0.656192 0.339662
C10   C     C_R   0.716958 0.060719 0.655926 -0.145255
C11   C     C_R   0.726568 0.944575 0.600172 -0.187816
C12   C     C_R   0.340309 0.499628 0.499868 0.852164
C13   C     C_R   0.656234 0.878434 0.550250 -0.181567
C14   C     C_R   0.578101 0.935563 0.537852 -0.001818
C15   C     C_R   0.572658 0.061406 0.570933 0.015564
C16   C     C_R   0.504035 0.127478 0.513146 -0.169216
C17   C     C_R   0.436809 0.063422 0.449006 -0.216601
C18   C     C_R   0.435426 0.935068 0.444247 0.610380
C19   C     C_R   0.505488 0.871097 0.490346 -0.188481
C20   C     C_R   0.610840 0.665965 0.139158 -0.090325
C21   C     C_R   0.665910 0.746370 0.064909 -0.168675
C22   C     C_R   0.667302 0.744969 0.921708 -0.173940
C23   C     C_R   0.500302 0.737193 0.497252 0.835091
C24   C     C_R   0.613227 0.663763 0.851784 -0.082866
C25   C     C_R   0.555372 0.580642 0.922929 0.212505
C26   C     C_R   0.554813 0.581188 0.072360 0.097196
C27   C     C_R   0.447177 0.423462 0.076241 0.705398
C28   C     C_R   0.446960 0.424118 0.928494 -0.038341
C29   C     C_R   0.659626 0.500113 0.500193 0.768003
C30   C     C_3   0.046557 0.406558 0.614065 -0.401397
C31   C     C_3   0.047022 0.460484 0.357266 -0.370511
C32   C     C_3   0.949404 0.460815 0.357532 -0.341247
C33   C     C_1   0.749270 0.500039 0.500830 -0.152714
C34   C     C_3   0.082624 0.499337 0.500418 0.220033
Cu1   Cu    Cu3+1 0.499990 0.499990 0.640660 1.008422
Cu2   Cu    Cu3+1 0.500010 0.500010 0.359340 1.032189
H1    H     H_    0.071398 0.432388 0.718078 0.132213
H2    H     H_    0.927385 0.435322 0.719319 0.071285
H3    H     H_    0.933029 0.699118 0.450312 0.198618
H4    H     H_    0.384086 0.113046 0.406144 0.191537
H5    H     H_    0.768702 0.101678 0.714857 0.185701
H6    H     H_    0.786882 0.901337 0.606844 0.153471
H7    H     H_    0.663868 0.784543 0.517012 0.103327
H8    H     H_    0.067502 0.311374 0.594530 0.210040
H9    H     H_    0.615018 0.674578 0.248551 0.184152
H10   H     H_    0.707987 0.810077 0.119214 0.162124
H11   H     H_    0.710664 0.807413 0.864172 0.165894
H12   H     H_    0.619676 0.670712 0.742172 0.183031
H13   H     H_    0.403458 0.361891 0.875266 0.170890
H14   H     H_    0.072102 0.525629 0.273580 0.179288
H15   H     H_    0.067548 0.365971 0.333477 0.187360
H16   H     H_    0.923050 0.366759 0.332823 0.215708
H17   H     H_    0.927729 0.526633 0.274429 0.161415
H18   H     H_    0.077004 0.660696 0.633183 0.180179
H19   H     H_    0.077523 0.699232 0.450120 0.199028
H20   H     H_    0.932495 0.661068 0.633404 0.169152
N1    N     N_R   0.500800 0.501210 0.147910 -0.252484
N2    N     N_R   0.500820 0.501290 0.852040 -0.210697
O1    O     O_R   0.499990 0.319640 0.618810 -0.513034
O2    O     O_R   0.500000 0.319660 0.381240 -0.523456
O3    O     O_R   0.379430 0.499990 0.618840 -0.593015
O4    O     O_R   0.379440 0.500020 0.381260 -0.518304
O5    O     O_R   0.500000 0.680340 0.618760 -0.601521
O6    O     O_R   0.500010 0.680360 0.381190 -0.583519
O7    O     O_R   0.620560 0.499980 0.618740 -0.564390
O8    O     O_R   0.620570 0.500010 0.381160 -0.601386
F1    F     F_    0.915421 0.287976 0.594297 -0.678591
S1    S     S_3+6 0.612634 0.181061 0.815653 0.022453
O9    O     O_2   0.519175 0.172662 0.840862 -0.247517
O10   O     O_2   0.654704 0.111278 0.932989 -0.290083
O11   O     O_3   0.648326 0.329697 0.817055 -0.501792
H21   H     H_    0.709913 0.326851 0.801948 0.336075
F2    F     F_    0.366355 0.873241 0.393117 -0.655805
F3    F     F_    0.392793 0.344507 0.147042 -0.643459

loop_
_geom_bond_atom_site_label_1
_geom_bond_atom_site_label_2
_ccdc_geom_bond_type
Cu1   Cu2   S    
C3    C6    S    
C7    C8    T    
Cu1   N2    S    
C1    O1    A    
Cu2   O8    S    
Cu1   O7    S    
C15   C16   A    
C29   C33   S    
C11   H6    S    
Cu1   O1    S    
C18   C19   A    
C32   H16   S    
C16   C17   A    
C27   F3    S    
C9    C10   A    
C20   H9    S    
C23   O5    A    
C22   H11   S    
C21   C22   A    
C4    H20   S    
C10   H5    S    
C30   H8    S    
Cu2   O4    S    
C30   C34   S    
C24   H12   S    
C5    H18   S    
C24   C25   A    
Cu2   N1    S    
C27   N1    A    
C1    O2    A    
S1    O9    D    
C25   C26   A    
C30   H1    S    
C17   H4    S    
C19   C23   S    
C12   O4    A    
C28   H13   S    
C2    H2    S    
C31   C32   S    
C4    H3    S    
C8    C12   S    
C5    C34   S    
C17   C18   A    
C31   C34   S    
Cu1   O3    S    
C1    C16   S    
C29   O7    A    
C23   O6    A    
C2    F1    S    
C18   F2    S    
C7    C34   S    
C22   C24   A    
C25   N2    A    
C31   H14   S    
C3    C4    S    
C32   H17   S    
C13   H7    S    
C21   H10   S    
C14   C19   A    
C5    H19   S    
C31   H15   S    
C4    C5    S    
Cu2   O2    S    
C28   N2    A    
C6    C33   T    
C2    C30   S    
C2    C3    S    
C9    C15   A    
C9    S1    S    
O11   H21   S    
Cu2   O6    S    
C12   O3    A    
C11   C13   A    
C20   C26   A    
S1    O11   S    
C3    C32   S    
C26   N1    A    
C10   C11   A    
C29   O8    A    
C20   C21   A    
S1    O10   D    
C27   C28   A    
C14   C15   A    
Cu1   O5    S    
C13   C14   A    
