data_mof_unit_56952.cif
_audit_creation_date              2012-10-26T18:26:36-0400
_audit_creation_method            fapswitch 2.2
_symmetry_space_group_name_H-M    P1
_symmetry_Int_Tables_number       1
_space_group_crystal_system       triclinic
_cell_length_a                    15.835132
_cell_length_b                    8.739595
_cell_length_c                    7.438786
_cell_angle_alpha                 102.532202
_cell_angle_beta                  94.094692
_cell_angle_gamma                 92.2527
_cell_volume                      1000.79112925

loop_
_atom_site_label
_atom_site_type_symbol
_atom_type_description
_atom_site_fract_x
_atom_site_fract_y
_atom_site_fract_z
_atom_type_partial_charge
C1    C     C_R   0.496225 0.200404 0.454824 0.594149
C2    C     C_3   0.976764 0.647340 0.565063 -0.100166
C3    C     C_1   0.250456 0.500272 0.507422 0.053363
C4    C     C_1   0.749544 0.499728 0.492578 0.053363
C5    C     C_3   0.033441 0.552711 0.675714 -0.101408
C6    C     C_3   0.966559 0.447289 0.324286 -0.101408
C7    C     C_3   0.083123 0.499957 0.504650 0.002014
C8    C     C_3   0.916877 0.500043 0.495350 0.002014
C9    C     C_1   0.174882 0.500248 0.507811 0.037422
C10   C     C_1   0.825118 0.499752 0.492189 0.037422
C11   C     C_R   0.503774 0.799596 0.545176 0.594149
C12   C     C_R   0.339951 0.499887 0.502458 0.554590
C13   C     C_R   0.660049 0.500113 0.497542 0.554590
C14   C     C_2   0.482955 0.035068 0.434897 0.186211
C15   C     C_2   0.517045 0.964932 0.565102 0.186211
C16   C     C_3   0.972386 0.406631 0.604649 0.260321
C17   C     C_3   0.027614 0.593368 0.395350 0.260321
C18   C     C_3   0.023236 0.352660 0.434937 -0.100166
Cl1   Cl    Cl    0.934526 0.281591 0.744704 -0.544701
Cl2   Cl    Cl    0.065474 0.718409 0.255296 -0.544701
Cl3   Cl    Cl    0.410230 0.939893 0.246927 -0.521345
Cl4   Cl    Cl    0.589770 0.060107 0.753073 -0.521345
Cu1   Cu    Cu3+1 0.509330 0.517380 0.684380 1.100099
Cu2   Cu    Cu3+1 0.490670 0.482620 0.315620 1.100099
H1    H     H_    0.043258 0.231721 0.383379 0.184199
H2    H     H_    0.956742 0.768278 0.616620 0.184199
H3    H     H_    0.938218 0.405621 0.180203 0.200795
H4    H     H_    0.061782 0.594379 0.819797 0.200795
H5    H     H_    0.434850 0.377606 0.948730 0.256303
H6    H     H_    0.565150 0.622394 0.051269 0.256303
N1    N     N_2   0.476600 0.456420 0.038510 -0.224641
N2    N     N_2   0.523400 0.543580 0.961490 -0.224641
O1    O     O_R   0.506070 0.286130 0.619780 -0.489321
O2    O     O_R   0.493930 0.713870 0.380220 -0.489320
O3    O     O_R   0.490300 0.256770 0.308360 -0.456679
O4    O     O_R   0.509700 0.743230 0.691640 -0.456679
O5    O     O_R   0.386960 0.514660 0.655680 -0.511486
O6    O     O_R   0.613040 0.485340 0.344320 -0.511487
O7    O     O_R   0.371190 0.485310 0.344260 -0.479718
O8    O     O_R   0.628810 0.514690 0.655740 -0.479718

loop_
_geom_bond_atom_site_label_1
_geom_bond_atom_site_label_2
_ccdc_geom_bond_type
Cu2   O6    S    
Cu1   Cu2   S    
C3    C9    T    
C1    C14   S    
C5    H4    S    
N1    N2    D    
H5    N1    S    
C7    C18   S    
Cu1   N2    S    
C17   Cl2   S    
C12   O7    A    
Cu2   N1    S    
C1    O1    A    
C2    H2    S    
C2    C17   S    
H6    N2    S    
C13   O6    A    
C18   H1    S    
C16   Cl1   S    
C14   Cl3   S    
C8    C10   S    
C11   O4    A    
C15   Cl4   S    
C6    C18   S    
C2    C8    S    
C2    C5    S    
C4    C10   T    
Cu1   O8    S    
Cu2   O3    S    
C7    C9    S    
C12   O5    A    
Cu2   O7    S    
C1    O3    A    
C16   C18   S    
Cu1   O4    S    
C8    C16   S    
C4    C13   S    
C5    C7    S    
C6    C17   S    
C14   C15   D    
C13   O8    A    
C6    C8    S    
C3    C12   S    
Cu1   O1    S    
Cu1   O5    S    
C11   C15   S    
C11   O2    A    
Cu2   O2    S    
C6    H3    S    
C5    C16   S    
C7    C17   S    
