data_mof_unit_42276.cif
_audit_creation_date              2013-03-05T16:19:43-0500
_audit_creation_method            fapswitch 2.2
_symmetry_space_group_name_H-M    P1
_symmetry_Int_Tables_number       1
_space_group_crystal_system       triclinic
_cell_length_a                    10.641046
_cell_length_b                    9.68184
_cell_length_c                    27.761485
_cell_angle_alpha                 90.049215
_cell_angle_beta                  89.974608
_cell_angle_gamma                 89.81746
_cell_volume                      2860.10849461

loop_
_atom_site_label
_atom_site_type_symbol
_atom_site_description
_atom_site_fract_x
_atom_site_fract_y
_atom_site_fract_z
_atom_type_partial_charge
O1    O     O_R   0.314910 0.616040 0.499990 -0.640636
O2    O     O_R   0.314910 0.383960 0.499990 -0.643925
C1    C     C_R   0.257737 0.500460 0.499913 0.891429
O3    O     O_R   0.500140 0.616020 0.428740 -0.586118
O4    O     O_R   0.500140 0.383980 0.428740 -0.588365
C2    C     C_R   0.500485 0.499955 0.405965 0.893146
Zn1   Zn    Zn3+2 0.500150 0.654960 0.499980 0.958406
Zn2   Zn    Zn3+2 0.500150 0.345040 0.499980 1.014439
O5    O     O_R   0.685320 0.616040 0.499970 -0.627268
O6    O     O_R   0.685320 0.383960 0.499970 -0.523511
O7    O     O_R   0.500090 0.616050 0.571230 -0.647972
O8    O     O_R   0.500090 0.383950 0.571230 -0.574950
C3    C     C_R   0.742513 0.499926 0.499914 0.898238
C4    C     C_R   0.500241 0.500116 0.594070 0.922176
C5    C     C_R   0.392098 0.532085 0.178494 0.506693
O9    O     O_2   0.288305 0.559131 0.204821 -0.538508
N1    N     N_R   0.501334 0.500929 0.201798 -0.366403
C6    C     C_R   0.609743 0.471553 0.177779 0.560469
C7    C     C_R   0.500080 0.625653 0.278163 -0.087330
C8    C     C_R   0.499698 0.625632 0.328170 -0.175151
C9    C     C_R   0.504378 0.374549 0.327971 -0.170927
C10   C     C_R   0.504854 0.374975 0.277933 -0.090595
C11   C     C_R   0.502405 0.500449 0.253108 0.296270
C12   C     C_R   0.500629 0.506480 0.102018 -0.131710
C13   C     C_R   0.388366 0.535736 0.127705 -0.027264
C14   C     C_R   0.277334 0.566042 0.101667 -0.015807
C15   C     C_R   0.611981 0.473360 0.127381 -0.170958
C16   C     C_R   0.501493 0.499989 0.353395 -0.061722
H1    H     H_    0.506055 0.276387 0.346650 0.194581
H2    H     H_    0.506536 0.278159 0.258376 0.149440
C17   C     C_R   0.501978 0.501751 0.646785 -0.176862
C18   C     C_R   0.396999 0.564639 0.974781 0.038384
C19   C     C_R   0.610995 0.467796 0.974558 0.085944
C20   C     C_R   0.503995 0.517445 0.949333 0.077223
C21   C     C_R   0.298262 0.626850 0.948692 -0.256696
C22   C     C_R   0.298429 0.631660 0.898611 0.003644
C23   C     C_R   0.400321 0.574341 0.872542 -0.071322
C24   C     C_R   0.503980 0.519220 0.898261 -0.065084
C25   C     C_R   0.607941 0.464915 0.872912 -0.023587
C26   C     C_R   0.606725 0.464195 0.822684 0.527915
N2    N     N_R   0.505577 0.515366 0.798463 -0.343229
C27   C     C_R   0.403790 0.569921 0.821708 0.518896
C28   C     C_R   0.488400 0.384506 0.723603 -0.171366
C29   C     C_R   0.486428 0.379482 0.673571 0.610861
C30   C     C_R   0.519541 0.627906 0.670944 -0.277378
C31   C     C_R   0.521367 0.632116 0.720898 -0.080580
C32   C     C_R   0.505641 0.510571 0.747174 0.223689
O10   O     O_2   0.306389 0.617467 0.795358 -0.537918
C33   C     C_R   0.392462 0.550370 0.025562 0.067786
C34   C     C_R   0.501997 0.510298 0.050924 0.073952
C35   C     C_R   0.613048 0.473899 0.025540 -0.042869
C36   C     C_R   0.280513 0.572115 0.051659 -0.249574
H3    H     H_    0.475619 0.290675 0.744221 0.169905
H4    H     H_    0.220610 0.677131 0.966659 0.144631
H5    H     H_    0.191916 0.589689 0.033725 0.142730
O11   O     O_2   0.714897 0.441745 0.202944 -0.446405
C37   C     C_R   0.722820 0.444634 0.101889 0.696475
H6    H     H_    0.497709 0.723676 0.346981 0.191176
H7    H     H_    0.498409 0.722667 0.258782 0.148071
C38   C     C_R   0.712096 0.411908 0.947840 -0.213021
C39   C     C_R   0.710439 0.410853 0.898009 -0.132416
O12   O     O_2   0.705906 0.413011 0.798016 -0.538172
C40   C     C_R   0.723146 0.445448 0.052047 -0.310515
H8    H     H_    0.792746 0.363963 0.964357 0.150497
H9    H     H_    0.532200 0.723477 0.651318 0.190337
H10   H     H_    0.790211 0.366558 0.879191 0.196655
H11   H     H_    0.534841 0.729651 0.739283 0.163830
H12   H     H_    0.812892 0.426829 0.035241 0.171033
C41   C     C_3   0.074237 0.427838 0.545915 -0.431932
C42   C     C_3   0.074402 0.424454 0.454390 -0.462360
H13   H     H_    0.113423 0.480729 0.578277 0.139437
H14   H     H_    0.112916 0.475684 0.421606 0.136498
H15   H     H_    0.110341 0.319764 0.546926 0.223656
H16   H     H_    0.111229 0.316637 0.454047 0.220386
C43   C     C_3   0.929237 0.426260 0.546587 0.592155
C44   C     C_3   0.929415 0.421614 0.454001 0.597867
H17   H     H_    0.105079 0.709566 0.531350 0.207961
H18   H     H_    0.105664 0.707082 0.466511 0.205788
H19   H     H_    0.893967 0.710791 0.530710 0.217760
H20   H     H_    0.894403 0.707211 0.466413 0.248030
C45   C     C_3   0.071290 0.651888 0.499136 -0.424317
C46   C     C_3   0.121738 0.501239 0.499841 -0.001830
C47   C     C_3   0.879247 0.499699 0.499861 -0.125479
C48   C     C_3   0.928723 0.651583 0.498961 -0.575070
C49   C     C_3   0.398443 0.081624 0.467857 -0.276288
C50   C     C_3   0.398741 0.918926 0.467720 -0.256627
H21   H     H_    0.409079 0.120455 0.430405 0.202887
H22   H     H_    0.410153 0.880433 0.430226 0.201889
H23   H     H_    0.305424 0.119495 0.480613 0.170801
H24   H     H_    0.305687 0.881168 0.480196 0.162592
C51   C     C_3   0.621105 0.081035 0.481135 0.564203
C52   C     C_3   0.621320 0.918050 0.481343 0.547167
C53   C     C_3   0.479613 0.081416 0.548014 -0.369351
C54   C     C_3   0.479125 0.918886 0.547996 -0.419855
N3    N     N_3   0.499750 0.138610 0.498940 -0.135404
N4    N     N_3   0.499750 0.861390 0.498940 -0.106105
H25   H     H_    0.554858 0.118621 0.572556 0.225674
H26   H     H_    0.553602 0.880577 0.572757 0.178603
H27   H     H_    0.389211 0.120791 0.562877 0.238459
H28   H     H_    0.388260 0.880789 0.562629 0.214022
H29   H     H_    0.698668 0.117452 0.504740 0.116673
H30   H     H_    0.698511 0.882014 0.505286 0.024802
F1    F     F_    0.832468 0.415240 0.124779 -0.611573
F2    F     F_    0.889456 0.289949 0.547919 -0.628620
F3    F     F_    0.890757 0.284886 0.454508 -0.583243
C55   C     C_1   0.881723 0.493438 0.590965 0.128359
N5    N     N_1   0.844358 0.545946 0.625619 -0.178334
C56   C     C_1   0.881002 0.483350 0.408875 0.173538
N6    N     N_1   0.842905 0.531575 0.373631 -0.136007
F4    F     F_    0.646158 0.130577 0.435290 -0.574423
F5    F     F_    0.647535 0.867133 0.435724 -0.611783
C57   C     C_1   0.156900 0.591420 0.124326 0.311908
N7    N     N_1   0.060365 0.611931 0.142232 -0.071142
F6    F     F_    0.467678 0.255756 0.651785 -0.675568
C58   C     C_1   0.191728 0.697901 0.875901 0.281593
N8    N     N_1   0.106134 0.751009 0.857959 -0.150207

loop_
_geom_bond_atom_site_label_1
_geom_bond_atom_site_label_2
_geom_bond_distance
_ccdc_geom_bond_type
C53   C54   1.573608 S    
C14   C57   1.447561 S    
N2    C27   1.365178 A    
C7    C8    1.388290 A    
C12   C15   1.414674 A    
C4    C17   1.463636 S    
H20   C48   1.113461 S    
C45   C46   1.552750 S    
C30   C31   1.387521 A    
Zn1   O7    2.013881 S    
Zn1   N4    1.998847 S    
N1    C11   1.424501 S    
O4    C2    1.289107 A    
C51   F4    1.386541 S    
C22   C23   1.414942 A    
H19   C48   1.113435 S    
O7    C4    1.289638 A    
C50   H22   1.111769 S    
C5    C13   1.411036 A    
C55   N5    1.157417 T    
C54   H26   1.112288 S    
C58   N8    1.157544 T    
C52   N4    1.489118 S    
C26   O12   1.350506 S    
C56   N6    1.157400 T    
N1    C6    1.361317 A    
C23   C27   1.412318 A    
C41   H13   1.115419 S    
O5    C3    1.276651 A    
C41   C46   1.549135 S    
C31   C32   1.395544 A    
C30   H9    1.082941 S    
C39   H10   1.083643 S    
C28   H3    1.083068 S    
C2    C16   1.459451 S    
C21   C22   1.391154 A    
C42   H16   1.113863 S    
C41   H15   1.113895 S    
H17   C45   1.114271 S    
C53   H27   1.112649 S    
C36   H5    1.079437 S    
C6    O11   1.349966 S    
C29   F6    1.356810 S    
C44   C56   1.480544 S    
O1    Zn1   2.008020 S    
C9    C10   1.389146 A    
C21   H4    1.079443 S    
Zn2   N3    1.998825 S    
C51   H29   1.112157 S    
O3    Zn1   2.013024 S    
C37   F1    1.358295 S    
C44   C47   1.572441 S    
C57   N7    1.157513 T    
C19   C20   1.419737 A    
C49   H21   1.111772 S    
C12   C34   1.419028 A    
C25   C39   1.395226 A    
C17   C29   1.408666 A    
C18   C21   1.410189 A    
C35   C40   1.410312 A    
C12   C13   1.418651 A    
O3    C2    1.288905 A    
C15   C37   1.402177 A    
C51   C52   1.578002 S    
C49   H23   1.112087 S    
C8    C16   1.404226 A    
C7    H7    1.082959 S    
C13   C14   1.415422 A    
C49   C50   1.575209 S    
C9    H1    1.083154 S    
C38   C39   1.383549 A    
O1    C1    1.275420 A    
C18   C20   1.414078 A    
C7    C11   1.397212 A    
C28   C29   1.389948 A    
C23   C24   1.417345 A    
C14   C36   1.389998 A    
C47   C48   1.563710 S    
C54   H28   1.112719 S    
Zn2   O8    2.013245 S    
C33   C36   1.409139 A    
C1    C46   1.447171 S    
C34   C35   1.418943 A    
N2    C32   1.424584 S    
C27   O10   1.348870 S    
C54   N4    1.486742 S    
C50   N4    1.488162 S    
Zn2   O6    2.007289 S    
C26   N2    1.361571 A    
C9    C16   1.404422 A    
O8    C4    1.290657 A    
C19   C38   1.412531 A    
C50   H24   1.111900 S    
C43   F2    1.387774 S    
C8    H6    1.083158 S    
C53   H25   1.112194 S    
C25   C26   1.394473 A    
C45   C48   1.517084 S    
C5    N1    1.363620 A    
C40   H12   1.077300 S    
C10   H2    1.082920 S    
C20   C24   1.417965 A    
O2    Zn2   2.005662 S    
C6    C15   1.399435 A    
C37   C40   1.383717 A    
O6    C3    1.278811 A    
O4    Zn2   2.013660 S    
C52   F5    1.386526 S    
C52   H30   1.112335 S    
C19   C35   1.416688 A    
C3    C47   1.454992 S    
C38   H8    1.077236 S    
O2    C1    1.279843 A    
C31   H11   1.082988 S    
C42   C44   1.543186 S    
C49   N3    1.488262 S    
H18   C45   1.114213 S    
C43   C47   1.571940 S    
C24   C25   1.410819 A    
C41   C43   1.543181 S    
C42   C46   1.549138 S    
C18   C33   1.417441 A    
C51   N3    1.488966 S    
Zn1   O5    2.004930 S    
C43   C55   1.480682 S    
C53   N3    1.486742 S    
C33   C34   1.415308 A    
C17   C30   1.405982 A    
C10   C11   1.397379 A    
C42   H14   1.115388 S    
C22   C58   1.447284 S    
C28   C32   1.397040 A    
C44   F3    1.387551 S    
C5    O9    1.348972 S    
