data_mof_unit_9579.cif
_audit_creation_date              2012-12-10T17:51:32-0500
_audit_creation_method            fapswitch 2.2
_symmetry_space_group_name_H-M    P1
_symmetry_Int_Tables_number       1
_space_group_crystal_system       triclinic
_cell_length_a                    9.940258
_cell_length_b                    10.716999
_cell_length_c                    16.729245
_cell_angle_alpha                 93.419558
_cell_angle_beta                  85.024837
_cell_angle_gamma                 88.282763
_cell_volume                      1771.17961096

loop_
_atom_site_label
_atom_site_type_symbol
_atom_type_description
_atom_site_fract_x
_atom_site_fract_y
_atom_site_fract_z
_atom_type_partial_charge
C1    C     C_R   0.496685 0.740425 0.498554 0.910077
C2    C     C_R   0.531176 0.448945 0.262329 -0.028114
C3    C     C_R   0.242931 0.901820 0.552895 -0.176856
C4    C     C_R   0.480924 0.499194 0.653151 0.917913
C5    C     C_R   0.144079 0.973068 0.601281 -0.102188
C6    C     C_R   0.171930 0.092304 0.630891 -0.113120
C7    C     C_R   0.294147 0.143995 0.606254 -0.159948
C8    C     C_R   0.391487 0.074832 0.553014 0.090724
C9    C     C_R   0.373749 0.947690 0.534548 0.097404
C10   C     C_R   0.487956 0.874760 0.497942 -0.142884
C11   C     C_R   0.605469 0.931777 0.469134 -0.215200
C12   C     C_R   0.350390 0.438648 0.776467 -0.156777
C13   C     C_R   0.611807 0.059235 0.475211 -0.217192
C14   C     C_R   0.504258 0.130392 0.515119 -0.111621
C15   C     C_R   0.847684 0.646578 0.627031 0.485371
C16   C     C_R   0.501351 0.261435 0.505330 0.859265
C17   C     C_R   0.915984 0.681134 0.695353 -0.413984
C18   C     C_R   0.054476 0.680490 0.690272 0.355104
C19   C     C_R   0.125782 0.635355 0.619946 -0.255779
C20   C     C_R   0.063649 0.567665 0.559977 0.026662
C21   C     C_R   0.918757 0.569794 0.561430 0.070505
C22   C     C_R   0.938963 0.434279 0.442681 -0.128309
C23   C     C_R   0.434155 0.337423 0.152792 -0.170407
C24   C     C_R   0.081725 0.434420 0.442701 -0.080596
C25   C     C_R   0.519123 0.491789 0.346909 0.855093
C26   C     C_R   0.469362 0.483312 0.739079 -0.094075
C27   C     C_R   0.581360 0.503207 0.782761 -0.301458
C28   C     C_R   0.578759 0.471629 0.862730 0.573367
C29   C     C_R   0.459867 0.421881 0.898627 0.078160
C30   C     C_R   0.345643 0.408808 0.856082 -0.224608
C31   C     C_3   0.689766 0.812966 0.660557 -0.291680
C32   C     C_3   0.808431 0.451142 0.872605 -0.355108
C33   C     C_R   0.422951 0.386430 0.231490 -0.191772
C34   C     C_R   0.653518 0.455914 0.214588 -0.212135
C35   C     C_R   0.663957 0.408182 0.134958 -0.128017
C36   C     C_R   0.552478 0.353104 0.103306 0.179591
C37   C     C_2   0.448533 0.391665 0.982634 -0.177762
C38   C     C_2   0.550917 0.337791 0.016382 -0.181150
Cl1   Cl    Cl    0.138815 0.748401 0.769044 -0.626458
H1    H     H_    0.670353 0.543792 0.754736 0.180620
H2    H     H_    0.862355 0.721680 0.750174 0.199362
H3    H     H_    0.329354 0.374951 0.268124 0.149965
H4    H     H_    0.229263 0.657864 0.613003 0.241075
H5    H     H_    0.143638 0.380383 0.395832 0.132015
H6    H     H_    0.739378 0.500558 0.238175 0.152220
H7    H     H_    0.643017 0.305776 0.980434 0.174104
H8    H     H_    0.253390 0.373363 0.884271 0.153936
H9    H     H_    0.348035 0.293129 0.129226 0.133701
H10   H     H_    0.262298 0.423594 0.743733 0.168714
H11   H     H_    0.356823 0.424667 0.018821 0.153494
H12   H     H_    0.755651 0.421156 0.096819 0.143875
H13   H     H_    0.772308 0.877566 0.644822 0.155131
H14   H     H_    0.668672 0.809452 0.726619 0.169277
H15   H     H_    0.596253 0.852431 0.639304 0.190113
H16   H     H_    0.852114 0.513259 0.827131 0.194941
H17   H     H_    0.799871 0.354519 0.845393 0.144477
H18   H     H_    0.880434 0.445559 0.919464 0.201190
H19   H     H_    0.691881 0.877634 0.440031 0.171297
H20   H     H_    0.209898 0.816008 0.526269 0.169908
H21   H     H_    0.045477 0.935686 0.615494 0.141756
H22   H     H_    0.096793 0.146699 0.670128 0.132962
H23   H     H_    0.311748 0.238294 0.628786 0.144598
H24   H     H_    0.699480 0.102302 0.446911 0.167358
H25   H     H_    0.894048 0.380320 0.395827 0.136802
N1    N     N_R   0.857140 0.501200 0.500750 -0.099525
N2    N     N_R   0.142740 0.501280 0.500770 -0.097985
O1    O     O_R   0.385310 0.683220 0.500000 -0.656461
O2    O     O_3   0.683754 0.501954 0.909266 -0.604154
O3    O     O_R   0.614640 0.683250 0.500010 -0.545040
O4    O     O_R   0.371780 0.500010 0.615800 -0.650681
O5    O     O_R   0.601110 0.500030 0.615800 -0.564989
O6    O     O_R   0.385360 0.316750 0.499990 -0.617770
O7    O     O_R   0.614690 0.316780 0.500000 -0.626072
O8    O     O_R   0.398890 0.499970 0.384200 -0.618563
O9    O     O_R   0.628220 0.499990 0.384200 -0.624368
O10   O     O_3   0.716493 0.691166 0.623636 -0.556006
Zn1   Zn    Zn3+2 0.346870 0.499980 0.499990 0.933739
Zn2   Zn    Zn3+2 0.653130 0.500020 0.500010 0.982943

loop_
_geom_bond_atom_site_label_1
_geom_bond_atom_site_label_2
_ccdc_geom_bond_type
C35   C36   A    
C16   O6    A    
C31   H13   S    
C4    O4    A    
C12   H10   S    
C7    C8    A    
C7    H23   S    
C26   C27   A    
C29   C30   A    
C33   H3    S    
C6    H22   S    
C20   N2    A    
C28   C29   A    
C28   O2    S    
C25   O8    A    
C5    C6    A    
C34   C35   A    
O6    Zn1   S    
C19   C20   A    
C8    C9    A    
C23   C33   A    
O8    Zn1   S    
O1    Zn1   S    
O7    Zn2   S    
N1    Zn2   S    
C11   H19   S    
C9    C10   A    
C32   H16   S    
C24   N2    A    
C32   O2    S    
C12   C30   A    
C2    C34   A    
C15   O10   S    
C13   C14   A    
O4    Zn1   S    
O3    Zn2   S    
C32   H18   S    
C19   H4    S    
C16   O7    A    
C30   H8    S    
C18   C19   A    
C1    O3    A    
C12   C26   A    
C25   O9    A    
C18   Cl1   S    
C22   N1    A    
C37   C38   D    
C3    C9    A    
C13   H24   S    
C27   H1    S    
C17   C18   A    
C34   H6    S    
C31   H14   S    
C2    C33   A    
C35   H12   S    
C24   H5    S    
C14   C16   S    
C15   C17   A    
N2    Zn1   S    
C8    C14   A    
C23   H9    S    
C5    H21   S    
C21   N1    A    
C1    C10   S    
C3    C5    A    
C4    C26   S    
C6    C7    A    
C36   C38   S    
C37   H11   S    
C11   C13   A    
C31   O10   S    
C1    O1    A    
C2    C25   S    
C22   C24   A    
O5    Zn2   S    
C31   H15   S    
O9    Zn2   S    
C17   H2    S    
C38   H7    S    
C10   C11   A    
C22   H25   S    
C15   C21   A    
C20   C21   A    
C23   C36   A    
C29   C37   S    
C27   C28   A    
C32   H17   S    
C4    O5    A    
C3    H20   S    
