data_mof_unit_45798.cif
_audit_creation_date              2012-12-11T15:31:41-0500
_audit_creation_method            fapswitch 2.2
_symmetry_space_group_name_H-M    P1
_symmetry_Int_Tables_number       1
_space_group_crystal_system       triclinic
_cell_length_a                    6.946407
_cell_length_b                    14.875923
_cell_length_c                    21.408998
_cell_angle_alpha                 74.311365
_cell_angle_beta                  90.389266
_cell_angle_gamma                 89.918211
_cell_volume                      2129.8029406

loop_
_atom_site_label
_atom_site_type_symbol
_atom_type_description
_atom_site_fract_x
_atom_site_fract_y
_atom_site_fract_z
_atom_type_partial_charge
O1    O     O_R   0.648150 0.130050 0.214300 -0.550580
O2    O     O_R   0.351850 0.869950 0.785700 -0.547673
O3    O     O_R   0.320490 0.006660 0.340150 -0.544845
O4    O     O_R   0.679510 0.993340 0.659850 -0.555084
O5    O     O_R   0.146100 0.869940 0.285700 -0.543857
O6    O     O_R   0.853900 0.130060 0.714300 -0.551382
C1    C     C_R   0.488766 0.999841 0.367245 0.756262
C2    C     C_R   0.510737 0.999981 0.632725 0.747022
O7    O     O_R   0.318690 0.137980 0.218120 -0.544211
O8    O     O_R   0.681310 0.862020 0.781880 -0.541074
O9    O     O_R   0.144280 0.002190 0.162800 -0.515787
O10   O     O_R   0.855720 0.997810 0.837200 -0.513478
C3    C     C_R   0.487082 0.175441 0.206100 0.872846
C4    C     C_R   0.512957 0.824558 0.793908 0.883363
O11   O     O_R   0.649960 0.997790 0.337200 -0.543623
O12   O     O_R   0.350040 0.002210 0.662800 -0.559622
O13   O     O_3   0.479300 0.955290 0.231990 -0.362575
O14   O     O_3   0.520700 0.044710 0.768010 -0.354807
V1    V     V_3+5 0.206040 0.008290 0.253340 1.623072
V2    V     V_3+5 0.793960 0.991710 0.746660 1.580550
O15   O     O_R   0.814320 0.993320 0.159850 -0.518852
O16   O     O_R   0.185680 0.006680 0.840150 -0.514187
C5    C     C_R   0.982511 0.998904 0.132936 0.907778
C6    C     C_R   0.017488 0.001086 0.867066 0.924907
O17   O     O_R   0.816120 0.862000 0.281880 -0.541305
O18   O     O_R   0.183880 0.138000 0.718120 -0.538713
C7    C     C_R   0.986306 0.824550 0.292631 0.888049
C8    C     C_R   0.013850 0.175487 0.706202 0.818837
V3    V     V_3+5 0.705540 0.991700 0.246660 1.640829
V4    V     V_3+5 0.294460 0.008300 0.753340 1.621117
O19   O     O_3   0.982150 0.044700 0.268010 -0.409216
O20   O     O_3   0.017850 0.955300 0.731990 -0.414650
C9    C     C_R   0.002834 0.723430 0.318500 -0.397313
C10   C     C_R   0.997221 0.275421 0.673911 -0.381531
C11   C     C_R   0.118977 0.574490 0.309081 0.661155
C12   C     C_R   0.909459 0.428450 0.682881 0.666545
C13   C     C_R   0.100883 0.670794 0.283548 0.475019
C14   C     C_R   0.933037 0.333552 0.710834 0.512749
C15   C     C_R   0.934924 0.680550 0.380864 0.492734
C16   C     C_R   0.024716 0.311070 0.605874 0.415484
C17   C     C_R   0.993936 0.588169 0.412583 -0.142405
C18   C     C_R   0.981873 0.407623 0.575419 -0.086361
C19   C     C_R   0.061651 0.532271 0.373243 -0.386366
C20   C     C_R   0.938750 0.466795 0.616038 -0.388926
C21   C     C_R   0.979947 0.548070 0.480974 -0.171100
C22   C     C_R   0.989132 0.449110 0.506435 -0.138213
C23   C     C_R   0.996908 0.395966 0.461043 0.561648
C24   C     C_R   0.967776 0.603837 0.524532 0.551875
C25   C     C_R   0.054606 0.435339 0.397501 0.629463
C26   C     C_R   0.935542 0.564085 0.590011 0.612068
C27   C     C_3   0.876197 0.937064 0.988744 0.546973
C28   C     C_3   0.123791 0.062911 0.011264 0.548746
C29   C     C_3   0.046700 0.915483 0.037101 0.161066
C30   C     C_3   0.953278 0.084491 0.962910 0.163119
C31   C     C_3   0.990866 0.999545 0.062680 -0.508482
C32   C     C_3   0.009121 0.000432 0.937327 -0.513494
C33   C     C_3   0.820225 0.021436 0.013829 0.507582
C34   C     C_3   0.179763 0.978535 0.986180 0.508934
C35   C     C_3   0.669593 0.025797 0.473824 0.463824
C36   C     C_3   0.327186 0.974678 0.525962 0.453072
C37   C     C_3   0.539099 0.085793 0.504373 0.328014
C38   C     C_3   0.456938 0.914723 0.495310 0.380551
C39   C     C_3   0.502120 0.000376 0.562474 -0.269155
C40   C     C_3   0.495036 0.999883 0.437325 -0.236000
C41   C     C_3   0.634989 0.939221 0.531995 -0.330708
C42   C     C_3   0.361534 0.060957 0.467672 -0.353425
H1    H     H_    0.747083 0.890094 0.558110 0.188977
H2    H     H_    0.249125 0.109251 0.440846 0.173807
C43   C     C_R   0.494670 0.276450 0.177944 -0.333020
C44   C     C_R   0.505663 0.723538 0.822046 -0.334273
C45   C     C_R   0.525928 0.431842 0.190743 -0.003924
C46   C     C_R   0.477787 0.568007 0.809200 -0.010691
C47   C     C_R   0.502041 0.336447 0.218012 0.540967
C48   C     C_R   0.500553 0.663497 0.781972 0.538459
C49   C     C_R   0.499405 0.312339 0.110383 0.630412
C50   C     C_R   0.500465 0.687623 0.889599 0.631768
C51   C     C_R   0.497680 0.410208 0.081516 -0.081003
C52   C     C_R   0.503176 0.589765 0.918441 -0.079618
C53   C     C_R   0.529655 0.468883 0.123001 -0.282546
C54   C     C_R   0.472587 0.531023 0.876934 -0.281990
C55   C     C_R   0.477869 0.451675 0.013109 -0.208762
C56   C     C_R   0.522881 0.548325 0.986841 -0.208593
C57   C     C_R   0.592257 0.598807 0.029709 0.633674
C58   C     C_R   0.408729 0.401224 0.970179 0.633763
C59   C     C_R   0.579863 0.562184 0.096506 0.585731
C60   C     C_R   0.422241 0.437733 0.903390 0.585083
H3    H     H_    0.545050 0.476430 0.222805 0.238976
H4    H     H_    0.460802 0.523296 0.777118 0.234082
F1    F     F_    0.079896 0.378743 0.357903 -0.601881
F2    F     F_    0.914848 0.622275 0.628744 -0.598724
O21   O     O_3   0.855314 0.046383 0.447480 -0.536343
C61   C     C_3   0.855284 0.132939 0.399856 -0.092050
H5    H     H_    0.722679 0.146820 0.369445 0.115981
H6    H     H_    0.977845 0.134106 0.366773 0.160618
H7    H     H_    0.877008 0.189947 0.422958 0.226150
O22   O     O_3   0.141407 0.953805 0.552263 -0.548470
C62   C     C_3   0.139728 0.865029 0.597375 -0.061056
H8    H     H_    0.270879 0.850043 0.628539 0.109971
H9    H     H_    0.118822 0.810158 0.571810 0.237760
H10   H     H_    0.016005 0.861742 0.630343 0.150824
F3    F     F_    0.634464 0.616195 0.135550 -0.599956
F4    F     F_    0.368284 0.383694 0.864293 -0.593468
F5    F     F_    0.468572 0.749016 0.925197 -0.617077
F6    F     F_    0.530212 0.250819 0.074809 -0.616587
F7    F     F_    0.505546 0.697934 0.716462 -0.678590
F8    F     F_    0.498294 0.302016 0.283534 -0.679104
F9    F     F_    0.690728 0.679753 0.008297 -0.565221
F10   F     F_    0.309577 0.320460 0.991465 -0.563952
O23   O     O_3   0.127665 0.259093 0.571907 -0.551947
C63   C     C_3   0.036727 0.173282 0.572982 0.000724
H11   H     H_    0.880103 0.172429 0.583452 0.161097
H12   H     H_    0.109416 0.114805 0.607788 0.116440
H13   H     H_    0.054205 0.159019 0.525226 0.192819
O24   O     O_3   0.795713 0.726017 0.406927 -0.512779
C64   C     C_3   0.613553 0.693543 0.392948 -0.185685
H14   H     H_    0.585149 0.622823 0.425473 0.123190
H15   H     H_    0.598251 0.692798 0.341190 0.140268
H16   H     H_    0.501013 0.741612 0.401375 0.191328
F11   F     F_    0.900164 0.298374 0.775338 -0.587436
F12   F     F_    0.167512 0.711857 0.223090 -0.595687
F13   F     F_    0.196110 0.523372 0.271609 -0.585057
F14   F     F_    0.857149 0.482674 0.721858 -0.570087
F15   F     F_    0.917792 0.310762 0.474050 -0.700884
F16   F     F_    0.002754 0.696935 0.505398 -0.646573
O25   O     O_3   0.088687 0.827180 0.079804 -0.493875
C65   C     C_3   0.163228 0.767572 0.044702 0.193223
H17   H     H_    0.314057 0.786654 0.030216 0.218991
H18   H     H_    0.073279 0.767321 0.001521 0.133150
H19   H     H_    0.165378 0.695219 0.076810 0.159195
O26   O     O_3   0.911173 0.172792 0.920222 -0.491574
C66   C     C_3   0.837029 0.232429 0.955372 0.190740
H20   H     H_    0.927344 0.232711 0.998466 0.134155
H21   H     H_    0.686301 0.213355 0.970004 0.216894
H22   H     H_    0.834722 0.304771 0.923250 0.160303
F17   F     F_    0.748419 0.872313 0.977058 -0.510686
F18   F     F_    0.251570 0.127665 0.022947 -0.510580
F19   F     F_    0.635552 0.042823 0.028762 -0.536788
F20   F     F_    0.364434 0.957144 0.971248 -0.536571
O27   O     O_3   0.590375 0.173357 0.513423 -0.555366
C67   C     C_3   0.495696 0.246188 0.467519 -0.053901
H23   H     H_    0.337767 0.242898 0.474725 0.162243
H24   H     H_    0.530310 0.245615 0.417074 0.175293
H25   H     H_    0.544276 0.313872 0.474376 0.189227
O28   O     O_3   0.399837 0.827645 0.486816 -0.545892
C68   C     C_3   0.496507 0.754469 0.531767 -0.125870
H26   H     H_    0.476967 0.757984 0.582500 0.175787
H27   H     H_    0.652067 0.754790 0.520226 0.216376
H28   H     H_    0.435881 0.687048 0.528241 0.169442

loop_
_geom_bond_atom_site_label_1
_geom_bond_atom_site_label_2
_ccdc_geom_bond_type
C42   H2    S    
C39   C41   S    
C65   H17   S    
O13   V3    S    
C67   H25   S    
C6    C32   S    
O4    C2    A    
C66   H22   S    
V1    O19   S    
C55   C58   A    
C45   C53   A    
C55   C56   A    
C23   C25   A    
C21   C22   A    
C7    C9    S    
O9    V1    S    
C35   C40   S    
C9    C15   A    
C36   C39   S    
C10   C16   A    
C57   F9    S    
C11   C13   A    
C50   C52   A    
O5    V1    S    
O3    C1    A    
C68   H26   S    
C52   C54   A    
O12   V4    S    
C64   H14   S    
C62   H8    S    
C36   C38   S    
C27   C32   S    
C18   C22   A    
O9    C5    A    
C37   C39   S    
O7    C3    A    
C63   H11   S    
C54   C60   A    
C46   H4    S    
O5    C7    A    
C27   F17   S    
C37   C42   S    
C26   F2    S    
O6    C8    A    
O8    V2    S    
C41   H1    S    
C44   C48   A    
C38   C40   S    
C28   C34   S    
O3    V1    S    
C27   C33   S    
C16   C18   A    
C11   C19   A    
O14   V2    S    
C28   C31   S    
C34   F20   S    
C50   F5    S    
C24   C26   A    
C36   C42   S    
C5    C31   S    
C2    O12   A    
C17   C19   A    
C4    C44   S    
C18   C20   A    
C61   H6    S    
C62   H9    S    
O7    V1    S    
O11   V3    S    
C29   C31   S    
O17   V3    S    
C30   O26   S    
C15   O24   S    
C30   C32   S    
C35   C37   S    
C68   H27   S    
C33   F19   S    
C11   F13   S    
C67   H23   S    
C46   C48   A    
O8    C4    A    
C38   O28   S    
O21   C61   S    
C45   C47   A    
C19   C25   A    
C65   H19   S    
C64   H15   S    
O15   V3    S    
C61   H7    S    
C9    C13   A    
C27   C29   S    
C40   C42   S    
C12   F14   S    
C52   C56   A    
C23   F15   S    
C51   C55   A    
C29   C34   S    
C64   H16   S    
O22   C62   S    
O10   V2    S    
O1    V3    S    
C51   C53   A    
C28   C30   S    
C35   O21   S    
C43   C47   A    
C49   C51   A    
C63   H13   S    
C29   O25   S    
O14   V4    S    
C14   F11   S    
C36   O22   S    
C57   C59   A    
O18   V4    S    
C31   C33   S    
C44   C50   A    
O25   C65   S    
C28   F18   S    
C45   H3    S    
C12   C20   A    
O1    C3    A    
C66   H20   S    
C60   F4    S    
C53   C59   A    
C68   H28   S    
C59   F3    S    
V2    O20   S    
C21   C24   A    
C20   C26   A    
C22   C23   A    
C65   H18   S    
C62   H10   S    
O16   V4    S    
C38   C41   S    
C10   C14   A    
C37   O27   S    
C25   F1    S    
O28   C68   S    
C66   H21   S    
C24   F16   S    
O27   C67   S    
O24   C64   S    
C16   O23   S    
C67   H24   S    
O17   C7    A    
O6    V2    S    
O10   C6    A    
O18   C8    A    
O2    V4    S    
O15   C5    A    
O26   C66   S    
C46   C54   A    
O23   C63   S    
C35   C41   S    
C12   C14   A    
V4    O20   S    
C47   F8    S    
C49   F6    S    
C13   F12   S    
C3    C43   S    
C1    O11   A    
C61   H5    S    
O13   V1    S    
C32   C34   S    
C43   C49   A    
O16   C6    A    
O2    C4    A    
C63   H12   S    
C1    C40   S    
C2    C39   S    
C8    C10   S    
O4    V2    S    
C58   F10   S    
C15   C17   A    
V3    O19   S    
C56   C57   A    
C17   C21   A    
C58   C60   A    
C48   F7    S    
C30   C33   S    
