data_mof_unit_50477.cif
_audit_creation_date              2012-12-10T16:52:07-0500
_audit_creation_method            fapswitch 2.2
_symmetry_space_group_name_H-M    P1
_symmetry_Int_Tables_number       1
_space_group_crystal_system       triclinic
_cell_length_a                    7.845823
_cell_length_b                    8.576115
_cell_length_c                    14.875179
_cell_angle_alpha                 92.337389
_cell_angle_beta                  85.174942
_cell_angle_gamma                 93.908962
_cell_volume                      994.415558953

loop_
_atom_site_label
_atom_site_type_symbol
_atom_type_description
_atom_site_fract_x
_atom_site_fract_y
_atom_site_fract_z
_atom_type_partial_charge
C1    C     C_R   0.545624 0.794449 0.497751 0.932581
C2    C     C_R   0.454375 0.205551 0.502253 0.932598
C3    C     C_R   0.553162 0.785772 0.961998 -0.171876
C4    C     C_R   0.447041 0.214188 0.037994 -0.171930
C5    C     C_2   0.569340 0.958225 0.496413 -0.367217
C6    C     C_2   0.430659 0.041775 0.503599 -0.367489
C7    C     C_R   0.501108 0.502708 0.672484 0.856587
C8    C     C_R   0.498894 0.497293 0.327517 0.856706
C9    C     C_R   0.483394 0.348503 0.182853 0.338980
C10   C     C_R   0.516649 0.651472 0.817153 0.339386
C11   C     C_R   0.498146 0.492131 0.232191 -0.155216
C12   C     C_R   0.501874 0.507854 0.767810 -0.155122
C13   C     C_R   0.520229 0.634801 0.190404 -0.290962
C14   C     C_R   0.479890 0.365174 0.809590 -0.290969
C15   C     C_R   0.524979 0.638622 0.097603 0.130339
C16   C     C_R   0.475216 0.361342 0.902389 0.130317
C17   C     C_R   0.500252 0.497767 0.046828 -0.001385
C18   C     C_R   0.499963 0.502192 0.953164 -0.001464
C19   C     C_R   0.476783 0.352508 0.089564 0.097428
C20   C     C_R   0.523391 0.647455 0.910432 0.097508
C21   C     C_R   0.554132 0.781179 0.055063 -0.232070
C22   C     C_R   0.446087 0.218781 0.944929 -0.232024
H1    H     H_    0.535915 0.742746 0.230548 0.164768
H2    H     H_    0.464202 0.257232 0.769444 0.164800
H3    H     H_    0.578707 0.888683 0.093934 0.170961
H4    H     H_    0.421507 0.111279 0.906057 0.171008
H5    H     H_    0.578109 0.897353 0.930588 0.195027
H6    H     H_    0.422081 0.102607 0.069404 0.195054
H7    H     H_    0.700269 0.009475 0.489491 0.193085
H8    H     H_    0.299730 0.990525 0.510522 0.193082
N1    N     N_2   0.950330 0.457950 0.475660 0.164428
N2    N     N_2   0.049670 0.542050 0.524340 0.164475
O1    O     O_R   0.389250 0.738570 0.505970 -0.647272
O2    O     O_R   0.610750 0.261430 0.494030 -0.647334
O3    O     O_R   0.678390 0.711620 0.490370 -0.570855
O4    O     O_R   0.321610 0.288380 0.509630 -0.570969
O5    O     O_R   0.355420 0.513510 0.639950 -0.673053
O6    O     O_R   0.644580 0.486490 0.360050 -0.673064
O7    O     O_R   0.644560 0.486560 0.624350 -0.578273
O8    O     O_R   0.355440 0.513440 0.375650 -0.578051
Zn1   Zn    Zn3+2 0.306940 0.517990 0.510420 1.017276
Zn2   Zn    Zn3+2 0.693060 0.482010 0.489580 1.017197
O9    O     O_3   0.477700 0.204391 0.222445 -0.813854
H9    H     H_    0.491037 0.217620 0.287862 0.325284
O10   O     O_3   0.522153 0.795585 0.777583 -0.814072
H10   H     H_    0.508402 0.782363 0.712210 0.325121
O11   O     O_3   0.031291 0.342986 0.428771 -0.526051
C23   C     C_3   0.944078 0.303234 0.351615 0.185396
H11   H     H_    0.939192 0.407513 0.309944 0.157879
H12   H     H_    0.814087 0.250682 0.369734 0.179808
C24   C     C_3   0.039364 0.181102 0.294587 -0.855692
H13   H     H_    0.054800 0.077737 0.335191 0.264431
H14   H     H_    0.966920 0.143285 0.235562 0.222421
H15   H     H_    0.166997 0.232276 0.269870 0.287322
O12   O     O_3   0.968823 0.657222 0.571081 -0.525986
C25   C     C_3   0.055771 0.696879 0.648338 0.185478
H16   H     H_    0.186053 0.748867 0.630364 0.179994
H17   H     H_    0.059928 0.592670 0.690146 0.157600
C26   C     C_3   0.960861 0.819617 0.705051 -0.856751
H18   H     H_    0.832407 0.769552 0.728965 0.288098
H19   H     H_    0.032280 0.856414 0.764548 0.222631
H20   H     H_    0.947530 0.923391 0.664499 0.263945

loop_
_geom_bond_atom_site_label_1
_geom_bond_atom_site_label_2
_ccdc_geom_bond_type
C16   C22   A    
N2    Zn1   S    
N1    Zn2   S    
C25   H17   S    
C11   C13   A    
N2    O12   S    
C18   C20   A    
N1    N2    D    
O2    Zn2   S    
C25   C26   S    
C15   C21   A    
O9    H9    S    
C24   H15   S    
O1    Zn1   S    
C2    O2    A    
C10   O10   S    
C23   H12   S    
C17   C18   A    
C7    O5    A    
C1    O1    A    
C26   H18   S    
N1    O11   S    
O10   H10   S    
C9    C11   A    
C1    O3    A    
O4    Zn1   S    
C2    C6    S    
C10   C12   A    
C8    C11   S    
C1    C5    S    
C3    H5    S    
C23   H11   S    
C4    H6    S    
C12   C14   A    
O6    Zn2   S    
O7    Zn2   S    
C5    H7    S    
C8    O6    A    
C13   C15   A    
O5    Zn1   S    
C5    C6    D    
C6    H8    S    
C14   C16   A    
C7    C12   S    
C3    C21   A    
C9    O9    S    
O12   C25   S    
C14   H2    S    
C24   H13   S    
C3    C20   A    
C4    C22   A    
C25   H16   S    
C13   H1    S    
C16   C18   A    
C22   H4    S    
C26   H19   S    
C2    O4    A    
C15   C17   A    
O3    Zn2   S    
C7    O7    A    
O8    Zn1   S    
C26   H20   S    
C21   H3    S    
C8    O8    A    
C17   C19   A    
C4    C19   A    
C9    C19   A    
C23   C24   S    
O11   C23   S    
C10   C20   A    
C24   H14   S    
