data_mof_unit_6847.cif
_audit_creation_date              2012-12-10T19:11:27-0500
_audit_creation_method            fapswitch 2.2
_symmetry_space_group_name_H-M    P1
_symmetry_Int_Tables_number       1
_space_group_crystal_system       triclinic
_cell_length_a                    10.702686
_cell_length_b                    10.040494
_cell_length_c                    10.686429
_cell_angle_alpha                 90.354004
_cell_angle_beta                  89.844659
_cell_angle_gamma                 90.316658
_cell_volume                      1148.32280879

loop_
_atom_site_label
_atom_site_type_symbol
_atom_type_description
_atom_site_fract_x
_atom_site_fract_y
_atom_site_fract_z
_atom_type_partial_charge
C1    C     C_R   0.258838 0.499761 0.499626 0.841113
C2    C     C_3   0.461004 0.500454 0.124251 -0.274263
C3    C     C_3   0.073194 0.618229 0.577686 -0.334644
C4    C     C_3   0.071713 0.368256 0.554567 -0.380448
C5    C     C_3   0.930801 0.618211 0.578373 -0.334061
C6    C     C_3   0.929821 0.370427 0.559478 -0.353743
C7    C     C_3   0.073274 0.513231 0.363967 -0.377783
C8    C     C_3   0.122294 0.499636 0.499188 0.087373
C9    C     C_3   0.879650 0.499922 0.500737 0.026225
C10   C     C_3   0.929193 0.510685 0.364842 -0.298803
C11   C     C_3   0.370112 0.077851 0.515351 -0.227520
C12   C     C_3   0.371232 0.917933 0.524086 -0.273202
C13   C     C_3   0.552368 0.079205 0.376576 0.220925
C14   C     C_3   0.542603 0.916954 0.372781 0.280614
C15   C     C_3   0.574486 0.080194 0.603742 -0.173533
C16   C     C_3   0.580040 0.921621 0.599577 -0.228482
C17   C     C_R   0.479662 0.499811 0.260272 0.982278
C18   C     C_R   0.741964 0.500144 0.500958 0.919430
C19   C     C_R   0.500834 0.500316 0.741881 1.036646
C20   C     C_3   0.404689 0.604879 0.034968 -0.162535
C21   C     C_3   0.418952 0.387408 0.035116 -0.148551
C22   C     C_3   0.365262 0.491753 0.945265 0.296322
C23   C     C_3   0.490987 0.500827 0.877092 -0.376055
C24   C     C_3   0.529867 0.615119 0.964606 0.290073
C25   C     C_3   0.544767 0.396152 0.965664 0.312268
C26   C     C_3   0.585975 0.510793 0.052569 0.363444
H1    H     H_    0.893830 0.603297 0.321042 0.248859
H2    H     H_    0.895575 0.423972 0.308785 0.250629
H3    H     H_    0.312153 0.100512 0.433075 0.065714
H4    H     H_    0.303425 0.881510 0.454138 0.139256
H5    H     H_    0.526408 0.103193 0.693013 0.232224
H6    H     H_    0.541890 0.889953 0.691051 0.195282
H7    H     H_    0.105532 0.713037 0.535081 0.221768
H8    H     H_    0.100756 0.283351 0.493939 0.177184
H9    H     H_    0.108820 0.614618 0.674944 0.250053
H10   H     H_    0.109267 0.352794 0.650220 0.239742
H11   H     H_    0.896171 0.612699 0.676466 0.248915
H12   H     H_    0.899883 0.364040 0.658824 0.245893
H13   H     H_    0.900484 0.712601 0.535618 0.210571
H14   H     H_    0.894848 0.282442 0.506867 0.220231
H15   H     H_    0.106574 0.608679 0.323378 0.233664
H16   H     H_    0.109261 0.430901 0.303967 0.235513
N1    N     N_3   0.499750 0.138610 0.497240 -0.167133
N2    N     N_3   0.499750 0.861390 0.497240 -0.194195
O1    O     O_R   0.314910 0.616040 0.499970 -0.666778
O2    O     O_R   0.314910 0.383960 0.499970 -0.639026
O3    O     O_R   0.500080 0.616020 0.313900 -0.591052
O4    O     O_R   0.500080 0.383980 0.313900 -0.616443
O5    O     O_R   0.685320 0.616040 0.499930 -0.584020
O6    O     O_R   0.685320 0.383960 0.499930 -0.576194
O7    O     O_R   0.500150 0.616060 0.686000 -0.632764
O8    O     O_R   0.500150 0.383940 0.686000 -0.520760
Zn1   Zn    Zn3+2 0.500150 0.654960 0.499940 0.989049
Zn2   Zn    Zn3+2 0.500150 0.345040 0.499940 1.032649
Cl1   Cl    Cl    0.217173 0.478855 0.869542 -0.563671
C27   C     C_2   0.291405 0.140450 0.618874 0.570118
H17   H     H_    0.191088 0.125883 0.615633 0.082683
O9    O     O_2   0.334794 0.201048 0.707765 -0.548832
C28   C     C_2   0.312804 0.862284 0.644058 0.450990
H18   H     H_    0.363802 0.800633 0.707967 0.131487
O10   O     O_2   0.203522 0.883876 0.669648 -0.606388
C29   C     C_2   0.486065 0.135424 0.264706 0.536682
H19   H     H_    0.391649 0.170926 0.270965 0.013387
O11   O     O_2   0.537269 0.136473 0.162647 -0.439322
C30   C     C_2   0.456562 0.868508 0.267912 0.418017
H20   H     H_    0.369685 0.817216 0.285351 0.061811
O12   O     O_2   0.487330 0.882584 0.158799 -0.480125
C31   C     C_2   0.700406 0.145122 0.625331 0.582616
H21   H     H_    0.784297 0.109150 0.580673 0.044567
O13   O     O_2   0.711438 0.237814 0.697823 -0.519979
C32   C     C_2   0.711035 0.867509 0.605974 0.532690
H22   H     H_    0.780625 0.894360 0.537318 0.086132
O14   O     O_2   0.743962 0.801655 0.695325 -0.515818
Cl2   Cl    Cl    0.711438 0.137122 0.350799 -0.497548
Cl3   Cl    Cl    0.688181 0.840646 0.324706 -0.438143
C33   C     C_2   0.309557 0.710781 0.057500 0.602856
H23   H     H_    0.313921 0.802770 0.004942 0.108608
O15   O     O_2   0.222506 0.690925 0.128889 -0.571096
C34   C     C_2   0.335394 0.269742 0.055908 0.605480
H24   H     H_    0.354048 0.176353 0.008013 0.126016
O16   O     O_2   0.241824 0.280697 0.120625 -0.561882
Cl4   Cl    Cl    0.606308 0.767317 0.927537 -0.384358
Cl5   Cl    Cl    0.643904 0.257318 0.943117 -0.348344
Cl6   Cl    Cl    0.739085 0.526192 0.115884 -0.440553

loop_
_geom_bond_atom_site_label_1
_geom_bond_atom_site_label_2
_ccdc_geom_bond_type
C10   H1    S    
C7    C10   S    
C4    H10   S    
C5    H11   S    
C1    C8    S    
C17   O4    A    
C4    C8    S    
C6    C9    S    
C7    C8    S    
O4    Zn2   S    
O6    Zn2   S    
C24   C26   S    
C1    O2    A    
C3    H7    S    
C15   C16   S    
C27   H17   S    
C20   C33   S    
C7    H16   S    
C24   Cl4   S    
C29   O11   D    
C12   C28   S    
C19   O8    A    
C13   C29   S    
C20   C24   S    
C31   H21   S    
C30   O12   D    
C23   C24   S    
C6    H12   S    
C11   N1    S    
C9    C10   S    
C16   N2    S    
O3    Zn1   S    
C23   C25   S    
O1    Zn1   S    
C28   H18   S    
C21   C22   S    
C2    C17   S    
O2    Zn2   S    
C16   C32   S    
N2    Zn1   S    
O8    Zn2   S    
C4    H8    S    
C28   O10   D    
C2    C20   S    
C33   H23   S    
C4    C6    S    
C3    C8    S    
C34   O16   D    
C25   C26   S    
O7    Zn1   S    
C19   C23   S    
C5    C9    S    
C29   H19   S    
N1    Zn2   S    
C3    H9    S    
C21   C34   S    
C2    C21   S    
C2    C26   S    
C20   C22   S    
C5    H13   S    
C6    H14   S    
C13   N1    S    
C18   O6    A    
C14   N2    S    
C10   H2    S    
C21   C25   S    
C26   Cl6   S    
C12   H4    S    
C17   O3    A    
C33   O15   D    
C3    C5    S    
C11   C12   S    
C15   H5    S    
C22   Cl1   S    
C16   H6    S    
C14   Cl3   S    
C15   N1    S    
C32   H22   S    
C12   N2    S    
C1    O1    A    
O5    Zn1   S    
C15   C31   S    
C14   C30   S    
C27   O9    D    
C7    H15   S    
C34   H24   S    
C19   O7    A    
C9    C18   S    
C13   Cl2   S    
C11   H3    S    
C31   O13   D    
C30   H20   S    
C32   O14   D    
C25   Cl5   S    
C22   C23   S    
C13   C14   S    
C11   C27   S    
C18   O5    A    
