data_mof_unit_60110.cif
_audit_creation_date              2012-12-10T21:01:51-0500
_audit_creation_method            fapswitch 2.2
_symmetry_space_group_name_H-M    P1
_symmetry_Int_Tables_number       1
_space_group_crystal_system       triclinic
_cell_length_a                    22.214418
_cell_length_b                    22.243375
_cell_length_c                    22.205445
_cell_angle_alpha                 108.47302
_cell_angle_beta                  109.977963
_cell_angle_gamma                 110.026508
_cell_volume                      8438.27290633

loop_
_atom_site_label
_atom_site_type_symbol
_atom_type_description
_atom_site_fract_x
_atom_site_fract_y
_atom_site_fract_z
_atom_type_partial_charge
C1    C     C_R   0.699571 0.849911 0.349923 0.507141
C2    C     C_3   0.025004 0.561717 0.995546 -0.090866
C3    C     C_1   0.760598 0.217019 0.821702 0.172823
C4    C     C_3   0.024378 0.457736 0.970606 -0.105081
C5    C     C_3   0.975622 0.542274 0.029403 -0.104867
C6    C     C_1   0.220922 0.609896 0.110226 0.012541
C7    C     C_1   0.779078 0.390109 0.889778 0.012481
C8    C     C_3   0.024853 0.517375 0.070851 -0.103083
C9    C     C_3   0.975148 0.482635 0.929158 -0.103288
C10   C     C_3   0.072942 0.536170 0.036346 0.045933
C11   C     C_3   0.927058 0.463840 0.963663 0.046048
C12   C     C_1   0.154118 0.576501 0.076824 -0.054111
C13   C     C_R   0.300429 0.150089 0.650077 0.506489
C14   C     C_1   0.845882 0.423507 0.923183 -0.053814
C15   C     C_R   0.252524 0.460397 0.985750 -0.065206
C16   C     C_R   0.747645 0.539530 0.014667 -0.065474
C17   C     C_R   0.300386 0.649933 0.150092 0.516252
C18   C     C_R   0.699614 0.350068 0.849908 0.517270
C19   C     C_R   0.319190 0.461547 0.998398 0.098558
C20   C     C_R   0.680827 0.538197 0.001719 0.110696
C21   C     C_R   0.360005 0.494124 0.969429 0.081624
C22   C     C_R   0.639954 0.505698 0.030700 0.060785
C23   C     C_R   0.332503 0.524398 0.927191 0.136422
C24   C     C_3   0.533638 0.486249 0.461200 -0.116572
C25   C     C_R   0.667832 0.475670 0.073214 0.129697
C26   C     C_R   0.265465 0.522734 0.915464 -0.087528
C27   C     C_R   0.734784 0.477671 0.085376 -0.050949
C28   C     C_R   0.225933 0.491020 0.944715 -0.143777
C29   C     C_R   0.774372 0.509247 0.056092 -0.153838
C30   C     C_R   0.434974 0.447189 0.932534 -0.149862
C31   C     C_R   0.565032 0.552824 0.067475 -0.157554
C32   C     C_R   0.501487 0.447422 0.946663 0.014077
C33   C     C_R   0.498513 0.552573 0.053355 0.027852
C34   C     C_R   0.567361 0.500942 0.014620 -0.036206
C35   C     C_3   0.466361 0.513752 0.538800 -0.116811
C36   C     C_R   0.432627 0.499001 0.985439 -0.002150
C37   C     C_3   0.024833 0.997386 0.561173 0.120949
C38   C     C_3   0.975167 0.002614 0.438827 0.121039
C39   C     C_3   0.975549 0.030800 0.542195 -0.092275
C40   C     C_3   0.024451 0.969200 0.457805 -0.091949
C41   C     C_R   0.499183 0.890227 0.389503 0.501244
C42   C     C_R   0.500817 0.109773 0.610496 0.501354
C43   C     C_1   0.778848 0.889576 0.389801 0.008801
C44   C     C_1   0.221152 0.110424 0.610199 0.008029
C45   C     C_3   0.975219 0.928995 0.484098 -0.117684
C46   C     C_3   0.500174 0.536770 0.463513 0.023696
C47   C     C_3   0.024781 0.071005 0.515903 -0.118119
C48   C     C_3   0.926529 0.963102 0.464105 0.048213
C49   C     C_3   0.073471 0.036898 0.535896 0.048153
C50   C     C_1   0.845537 0.922816 0.423373 -0.034704
C51   C     C_1   0.154463 0.077184 0.576628 -0.035254
C52   C     C_3   0.441250 0.010664 0.986035 -0.091551
C53   C     C_3   0.558741 0.989327 0.013956 -0.091196
C54   C     C_3   0.438411 0.936319 0.960869 0.121208
C55   C     C_3   0.561580 0.063671 0.039122 0.120635
C56   C     C_1   0.500112 0.889453 0.110611 0.009094
C57   C     C_3   0.499825 0.463230 0.536488 0.023710
C58   C     C_1   0.499885 0.110545 0.889388 0.008365
C59   C     C_3   0.505343 0.039339 0.064254 -0.091133
C60   C     C_3   0.494648 0.960652 0.935737 -0.091065
C61   C     C_3   0.500853 0.963918 0.037409 0.026248
C62   C     C_3   0.499138 0.036074 0.962582 0.026092
C63   C     C_1   0.500413 0.923022 0.077513 -0.053457
C64   C     C_1   0.499581 0.076974 0.922482 -0.053736
C65   C     C_R   0.499559 0.609367 0.109755 0.504325
C66   C     C_R   0.500434 0.390626 0.890249 0.498766
C67   C     C_R   0.264110 0.796999 0.252808 0.014453
C68   C     C_1   0.500101 0.577327 0.422972 -0.040307
C69   C     C_R   0.735900 0.203013 0.747178 0.014391
C70   C     C_R   0.333373 0.857842 0.310159 -0.076027
C71   C     C_R   0.666639 0.142164 0.689833 -0.075990
C72   C     C_R   0.357761 0.871816 0.383068 0.037597
C73   C     C_R   0.642237 0.128190 0.616923 0.037536
C74   C     C_R   0.311531 0.824825 0.397944 -0.088205
C75   C     C_R   0.688451 0.175187 0.602039 -0.088173
C76   C     C_R   0.242553 0.763977 0.340585 -0.119575
C77   C     C_R   0.757427 0.236042 0.659392 -0.119673
C78   C     C_R   0.218883 0.749904 0.268115 -0.097367
C79   C     C_1   0.499898 0.422673 0.577028 -0.040543
C80   C     C_R   0.781112 0.250115 0.731864 -0.097561
C81   C     C_R   0.434412 0.989515 0.500283 -0.145770
C82   C     C_R   0.565587 0.010485 0.499715 -0.145737
C83   C     C_R   0.501989 0.053641 0.555702 0.023691
C84   C     C_R   0.498010 0.946359 0.444297 0.023754
C85   C     C_R   0.568612 0.064128 0.556239 -0.025534
C86   C     C_R   0.431386 0.935873 0.443758 -0.025512
C87   C     C_R   0.500024 0.849822 0.150258 0.510930
C88   C     C_R   0.499974 0.150178 0.849742 0.510093
C89   C     C_R   0.500002 0.650260 0.349855 0.508941
C90   C     C_3   0.974996 0.438293 0.004463 -0.090720
C91   C     C_R   0.499998 0.349740 0.650145 0.509232
C92   C     C_3   0.463049 0.427332 0.452027 -0.117606
C93   C     C_3   0.536950 0.572668 0.547973 -0.117574
C94   C     C_3   0.430720 0.478817 0.454469 0.018565
C95   C     C_3   0.569279 0.521183 0.545531 0.018637
C96   C     C_1   0.500018 0.610644 0.389582 0.013593
C97   C     C_1   0.499982 0.389356 0.610417 0.013283
C98   C     C_1   0.354075 0.455613 0.403874 0.199926
C99   C     C_1   0.645924 0.544387 0.596126 0.200526
C100  C     C_1   0.239430 0.782992 0.178285 0.172746
H1    H     H_    0.243837 0.546214 0.883783 0.109785
H2    H     H_    0.607699 0.981909 0.026736 0.122402
H3    H     H_    0.488709 0.927771 0.882425 0.121209
H4    H     H_    0.511282 0.072220 0.117566 0.121680
H5    H     H_    0.165355 0.702517 0.224117 0.109643
H6    H     H_    0.834640 0.297506 0.775857 0.109475
H7    H     H_    0.432189 0.367454 0.412948 0.119217
H8    H     H_    0.567810 0.632546 0.587052 0.119176
H9    H     H_    0.368300 0.894320 0.298241 0.099384
H10   H     H_    0.631723 0.105682 0.701756 0.099504
H11   H     H_    0.329297 0.834853 0.453786 0.115141
H12   H     H_    0.756063 0.454291 0.117397 0.137659
H13   H     H_    0.670674 0.165159 0.546196 0.115259
H14   H     H_    0.207413 0.727623 0.352322 0.114776
H15   H     H_    0.792556 0.272401 0.647650 0.114591
H16   H     H_    0.383323 0.982513 0.499529 0.131641
H17   H     H_    0.616676 0.017488 0.500469 0.131624
H18   H     H_    0.438195 0.524215 0.570355 0.119979
H19   H     H_    0.561805 0.475785 0.429645 0.121077
H20   H     H_    0.045451 0.423531 0.946954 0.103426
H21   H     H_    0.954547 0.576478 0.053056 0.103928
H22   H     H_    0.953378 0.387038 0.007561 0.131962
H23   H     H_    0.384233 0.405455 0.880710 0.129293
H24   H     H_    0.046623 0.612972 0.992448 0.131781
H25   H     H_    0.953676 0.467783 0.870406 0.109185
H26   H     H_    0.046324 0.532226 0.129604 0.109523
H27   H     H_    0.174484 0.490180 0.935562 0.112044
H28   H     H_    0.825942 0.510262 0.065525 0.110462
H29   H     H_    0.221247 0.435840 0.008046 0.135190
H30   H     H_    0.778957 0.564012 0.992360 0.135104
H31   H     H_    0.371115 0.516764 0.856734 0.224965
H32   H     H_    0.349082 0.582822 0.873400 0.224000
H33   H     H_    0.575419 0.398802 0.060033 0.248910
H34   H     H_    0.615777 0.594572 0.119290 0.134962
H35   H     H_    0.622414 0.480471 0.138293 0.232282
H36   H     H_    0.008057 0.963297 0.631587 0.229098
H37   H     H_    0.083055 0.967860 0.626631 0.232810
H38   H     H_    0.991943 0.036703 0.368413 0.229008
H39   H     H_    0.916945 0.032141 0.373370 0.232817
H40   H     H_    0.344272 0.862812 0.948943 0.236648
H41   H     H_    0.384732 0.824929 0.910895 0.233752
H42   H     H_    0.655703 0.137189 0.051035 0.237248
H43   H     H_    0.615262 0.175063 0.089122 0.236353
H44   H     H_    0.351194 0.388804 0.008782 0.233505
H45   H     H_    0.955321 0.054857 0.577201 0.117404
H46   H     H_    0.395847 0.469691 0.087344 0.233476
H47   H     H_    0.648647 0.610720 0.990894 0.239785
H48   H     H_    0.604227 0.529740 0.912489 0.237717
H49   H     H_    0.044680 0.945144 0.422799 0.117760
H50   H     H_    0.045193 0.128748 0.527581 0.110409
H51   H     H_    0.954807 0.871252 0.472420 0.111389
H52   H     H_    0.392293 0.018082 0.973256 0.121694
N1    N     N_1   0.293624 0.437331 0.363950 -0.289878
N2    N     N_1   0.780465 0.228335 0.881629 -0.309165
N3    N     N_3   0.344254 0.429117 0.040526 -0.636414
N4    N     N_3   0.655741 0.570426 0.959351 -0.632474
N5    N     N_1   0.706375 0.562669 0.636050 -0.289324
N6    N     N_3   0.373961 0.558410 0.898315 -0.608556
N7    N     N_3   0.628349 0.441610 0.103236 -0.630722
N8    N     N_3   0.053636 0.995587 0.629731 -0.615076
N9    N     N_3   0.946365 0.004413 0.370270 -0.614381
N10   N     N_3   0.369984 0.865441 0.917512 -0.615909
N11   N     N_3   0.630008 0.134549 0.082479 -0.613764
N12   N     N_1   0.219577 0.771675 0.118359 -0.309920
O1    O     O_3   0.500050 0.750060 0.250070 -0.444308
O2    O     O_R   0.664320 0.341000 0.884100 -0.528634
O3    O     O_R   0.664480 0.780430 0.323540 -0.536421
O4    O     O_R   0.335520 0.219570 0.676460 -0.537637
O5    O     O_R   0.335610 0.676590 0.219700 -0.533986
O6    O     O_R   0.664390 0.323410 0.780300 -0.533610
O7    O     O_R   0.543050 0.908950 0.365840 -0.549133
O8    O     O_R   0.456950 0.091050 0.634160 -0.548941
O9    O     O_R   0.457060 0.634290 0.091200 -0.518031
O10   O     O_R   0.542940 0.365710 0.908800 -0.537401
O11   O     O_R   0.543140 0.884190 0.219790 -0.535590
O12   O     O_3   0.499950 0.249940 0.749930 -0.442269
O13   O     O_R   0.456860 0.115810 0.780210 -0.535141
O14   O     O_R   0.543170 0.659080 0.323490 -0.537659
O15   O     O_R   0.456830 0.340920 0.676510 -0.537749
O16   O     O_R   0.456990 0.780350 0.115960 -0.531216
O17   O     O_R   0.543010 0.219650 0.884040 -0.534103
O18   O     O_R   0.456900 0.676640 0.341050 -0.532247
O19   O     O_R   0.543100 0.323360 0.658950 -0.531999
O20   O     O_R   0.456830 0.822700 0.365800 -0.529954
O21   O     O_R   0.543170 0.177300 0.634200 -0.529897
O22   O     O_R   0.543260 0.634320 0.177440 -0.552512
O23   O     O_R   0.456740 0.365680 0.822560 -0.546716
O24   O     O_R   0.664430 0.884240 0.341140 -0.537485
O25   O     O_R   0.335570 0.115760 0.658860 -0.537430
O26   O     O_R   0.335680 0.659000 0.115900 -0.529707
Zn1   Zn    Zn3+2 0.438420 0.731820 0.293400 0.956007
Zn2   Zn    Zn3+2 0.561580 0.268180 0.706600 0.957286
Zn3   Zn    Zn3+2 0.561600 0.855040 0.293450 0.942918
Zn4   Zn    Zn3+2 0.438400 0.144960 0.706550 0.942500
Zn5   Zn    Zn3+2 0.438510 0.706680 0.145100 0.966212
Zn6   Zn    Zn3+2 0.561490 0.293320 0.854900 0.955893
Zn7   Zn    Zn3+2 0.561670 0.706730 0.268320 0.942314
Zn8   Zn    Zn3+2 0.438330 0.293270 0.731680 0.941644

loop_
_geom_bond_atom_site_label_1
_geom_bond_atom_site_label_2
_ccdc_geom_bond_type
C38   C40   S    
C23   N6    S    
O10   Zn6   S    
C57   C92   S    
C55   C59   S    
C27   C29   A    
C19   N3    S    
C57   C79   S    
O8    Zn4   S    
O7    Zn3   S    
O19   Zn2   S    
C18   O2    A    
C33   C65   S    
C88   O13   A    
C47   C49   S    
C21   C36   S    
C54   C60   S    
C15   C19   A    
C41   O7    A    
C68   C96   T    
C74   C76   A    
C78   H5    S    
C59   H4    S    
C76   C78   A    
C37   N8    S    
C32   C66   S    
C3    C69   S    
O2    Zn6   S    
O20   Zn1   S    
C5    C11   S    
C91   O19   A    
C93   H8    S    
C6    C12   T    
C10   C12   S    
C11   C14   S    
C17   O5    A    
O12   Zn2   S    
C1    O3    A    
H40   N10   S    
C40   C49   S    
C71   H10   S    
O6    Zn2   S    
C33   C36   A    
C13   O25   A    
C69   C71   A    
C23   C26   A    
C61   C63   S    
O17   Zn6   S    
C62   C64   S    
C87   O16   A    
C53   C61   S    
O25   Zn4   S    
C1    C43   S    
C7    C14   T    
C90   H22   S    
H46   N3    S    
C24   H19   S    
C49   C51   S    
C22   C25   A    
C91   O15   A    
O9    Zn5   S    
C76   H14   S    
C31   C33   A    
O22   Zn7   S    
C75   H13   S    
C60   H3    S    
C16   H30   S    
C38   C48   S    
C81   C86   A    
C28   H27   S    
C16   C20   A    
C7    C18   S    
C48   C50   S    
C98   N1    T    
H41   N10   S    
C93   C95   S    
C66   O23   A    
C73   C75   A    
C67   C78   A    
C31   H34   S    
O1    Zn5   S    
H43   N11   S    
C81   C83   A    
C53   C60   S    
C52   C54   S    
C4    C90   S    
C53   C55   S    
C21   C23   A    
C58   C64   T    
C40   C45   S    
C22   C34   S    
C59   C61   S    
H35   N7    S    
O13   Zn4   S    
O23   Zn8   S    
C1    O24   A    
H39   N9    S    
C72   C74   A    
C24   C95   S    
O12   Zn8   S    
H42   N11   S    
C71   C73   A    
C56   C87   S    
C16   C29   A    
C41   C84   S    
C3    N2    T    
C9    H25   S    
C58   C88   S    
C45   H51   S    
C32   C34   A    
C29   H28   S    
H31   N6    S    
C100  N12   T    
C25   N7    S    
C52   C59   S    
O1    Zn7   S    
O15   Zn8   S    
C37   C49   S    
C92   H7    S    
C15   H29   S    
C47   H50   S    
C53   H2    S    
C52   H52   S    
C35   C93   S    
C39   H45   S    
C92   C94   S    
O3    Zn7   S    
C31   C34   A    
C41   O20   A    
C89   O14   A    
O12   Zn6   S    
H47   N4    S    
C75   C77   A    
C73   C85   S    
C38   C47   S    
O16   Zn5   S    
O4    Zn8   S    
C67   C100  S    
O12   Zn4   S    
O26   Zn5   S    
C44   C51   T    
C8    H26   S    
C83   C85   A    
O14   Zn7   S    
C20   C22   A    
C27   H12   S    
C82   C84   A    
C70   H9    S    
C9    C11   S    
C25   C27   A    
C24   C92   S    
C46   C68   S    
C2    C5    S    
C8    C90   S    
O18   Zn1   S    
O5    Zn1   S    
C37   C45   S    
C2    C10   S    
C74   H11   S    
C42   O21   A    
O21   Zn2   S    
C39   C47   S    
C45   C48   S    
C46   C94   S    
C6    C17   S    
C65   O22   A    
C5    H21   S    
C20   N4    S    
H37   N8    S    
C65   O9    A    
C79   C97   T    
C8    C10   S    
C4    H20   S    
C42   C83   S    
C42   O8    A    
C84   C86   A    
C13   O4    A    
O1    Zn3   S    
C80   H6    S    
C5    C8    S    
C72   C86   S    
C43   C50   T    
C54   C61   S    
C2    H24   S    
C17   O26   A    
C54   N10   S    
C82   C85   A    
C87   O11   A    
C26   C28   A    
C30   C36   A    
C35   C57   S    
C67   C70   A    
C24   C46   S    
C89   O18   A    
C35   C94   S    
C89   C96   S    
C99   N5    T    
C91   C97   S    
C55   N11   S    
C26   H1    S    
C52   C62   S    
C60   C62   S    
C30   C32   A    
C77   C80   A    
C11   C90   S    
C88   O17   A    
C69   C80   A    
C46   C93   S    
H44   N3    S    
C55   C62   S    
C56   C63   T    
C81   H16   S    
O1    Zn1   S    
C38   N9    S    
C40   H49   S    
H38   N9    S    
C95   C99   S    
H32   N6    S    
C15   C28   A    
C30   H23   S    
C37   C39   S    
O24   Zn3   S    
C57   C95   S    
C18   O6    A    
C94   C98   S    
C66   O10   A    
C35   H18   S    
C70   C72   A    
H48   N4    S    
C82   H17   S    
H33   N7    S    
C4    C9    S    
C77   H15   S    
C2    C9    S    
C4    C10   S    
O11   Zn3   S    
C13   C44   S    
H36   N8    S    
C39   C48   S    
C19   C21   A    
