data_mof_unit_9296.cif
_audit_creation_date              2012-12-10T18:09:47-0500
_audit_creation_method            fapswitch 2.2
_symmetry_space_group_name_H-M    P1
_symmetry_Int_Tables_number       1
_space_group_crystal_system       triclinic
_cell_length_a                    10.768742
_cell_length_b                    12.623633
_cell_length_c                    13.201258
_cell_angle_alpha                 83.737054
_cell_angle_beta                  89.931075
_cell_angle_gamma                 102.392799
_cell_volume                      1741.75119822

loop_
_atom_site_label
_atom_site_type_symbol
_atom_type_description
_atom_site_fract_x
_atom_site_fract_y
_atom_site_fract_z
_atom_type_partial_charge
C1    C     C_R   0.481988 0.440301 0.692271 0.942889
C2    C     C_R   0.586804 0.474611 0.957525 0.042964
C3    C     C_R   0.517450 0.491466 0.869521 0.024491
C4    C     C_R   0.741068 0.499438 0.503650 0.923307
C5    C     C_R   0.598945 0.551154 0.029510 0.055009
C6    C     C_R   0.594526 0.660019 0.994435 0.001263
C7    C     C_R   0.538317 0.680696 0.901230 -0.199876
C8    C     C_R   0.479135 0.593040 0.850966 0.128667
C9    C     C_R   0.582179 0.517807 0.135244 0.016339
C10   C     C_R   0.608538 0.708590 0.166677 0.021598
C11   C     C_R   0.490964 0.407986 0.803038 -0.169956
C12   C     C_3   0.119904 0.497040 0.500677 -0.069312
C13   C     C_R   0.344871 0.091309 0.332256 -0.041627
C14   C     C_R   0.655092 0.801153 0.625546 -0.072908
C15   C     C_R   0.700936 0.908755 0.643691 0.010315
C16   C     C_R   0.527799 0.559921 0.309374 0.926508
C17   C     C_R   0.650207 0.992316 0.591083 0.143723
C18   C     C_R   0.547021 0.965810 0.523758 0.001389
C19   C     C_R   0.512645 0.855288 0.503139 0.178570
C20   C     C_R   0.480918 0.043085 0.471964 -0.038827
C21   C     C_R   0.397836 0.011518 0.390658 0.084350
C22   C     C_R   0.370226 0.901196 0.370680 -0.072640
C23   C     C_3   0.080751 0.550831 0.395608 -0.261630
C24   C     C_R   0.425960 0.826266 0.427610 -0.279365
C25   C     C_R   0.490506 0.149776 0.499417 -0.016222
C26   C     C_R   0.361946 0.196030 0.362973 0.210803
C27   C     C_R   0.257775 0.499251 0.499974 0.841934
C28   C     C_3   0.896907 0.381650 0.546921 -0.247920
C29   C     C_3   0.038567 0.377637 0.532044 -0.227484
C30   C     C_3   0.933152 0.535550 0.394083 -0.290021
C31   C     C_3   0.952634 0.587229 0.573331 -0.174702
C32   C     C_3   0.876887 0.499136 0.506465 -0.113820
C33   C     C_2   0.650883 0.857099 0.021540 0.871717
C34   C     C_3   0.090468 0.569660 0.584765 -0.157563
C35   C     C_2   0.438022 0.206073 0.791083 0.947657
C36   C     C_2   0.647310 0.194143 0.948603 0.966768
C37   C     C_2   0.845400 0.342586 0.655533 0.958391
C38   C     C_2   0.277688 0.857135 0.295057 0.955983
C39   C     C_2   0.050709 0.289586 0.465316 0.949562
C40   C     C_2   0.869873 0.471501 0.309416 0.971455
C41   C     C_2   0.141635 0.529849 0.297755 0.965274
C42   C     C_2   0.893701 0.604678 0.673648 0.947527
C43   C     C_R   0.619303 0.740531 0.061332 -0.012632
C44   C     C_R   0.572196 0.596134 0.202452 -0.067072
C45   C     C_R   0.512897 0.302812 0.836134 -0.049099
C46   C     C_R   0.598022 0.293212 0.916941 -0.050305
C47   C     C_R   0.639210 0.381927 0.972172 -0.269104
H1    H     H_    0.839329 0.321026 0.501342 0.190250
H2    H     H_    0.076508 0.348144 0.605197 0.205114
H3    H     H_    0.960329 0.668204 0.527666 0.124728
H4    H     H_    0.726123 0.834902 0.223804 0.204734
H5    H     H_    0.570687 0.842109 0.223282 0.251210
H6    H     H_    0.783316 0.982127 0.952623 0.371702
H7    H     H_    0.636586 0.373895 0.180717 0.229426
H8    H     H_    0.489024 0.358796 0.126878 0.195987
H9    H     H_    0.273033 0.138707 0.728056 0.362107
H10   H     H_    0.705978 0.101311 0.065713 0.363792
H11   H     H_    0.878389 0.303573 0.804114 0.366710
H12   H     H_    0.155024 0.652195 0.573075 0.173246
H13   H     H_    0.368857 0.633695 0.732699 0.221676
H14   H     H_    0.299746 0.521986 0.817948 0.182709
H15   H     H_    0.204327 0.243405 0.312084 0.216153
H16   H     H_    0.330533 0.287828 0.234165 0.177750
H17   H     H_    0.250433 0.802396 0.157272 0.385472
H18   H     H_    0.328195 0.120968 0.178733 0.205076
H19   H     H_    0.187122 0.081045 0.245535 0.207295
H20   H     H_    0.808004 0.113364 0.573186 0.205010
H21   H     H_    0.714097 0.115115 0.675670 0.280703
H22   H     H_    0.775644 0.888613 0.782333 0.244576
H23   H     H_    0.914303 0.618391 0.371788 0.150712
H24   H     H_    0.881411 0.908489 0.684183 0.229267
H25   H     H_    0.094656 0.142445 0.459343 0.330600
H26   H     H_    0.844579 0.472416 0.157678 0.333249
H27   H     H_    0.182616 0.580185 0.148762 0.350152
H28   H     H_    0.760266 0.555469 0.785065 0.343387
H29   H     H_    0.188765 0.486246 0.688004 0.174928
H30   H     H_    0.125925 0.581116 0.736730 0.228325
H31   H     H_    0.119411 0.639975 0.396372 0.144965
H32   H     H_    0.514299 0.759169 0.880238 0.183313
H33   H     H_    0.710411 0.377282 0.029075 0.170717
H34   H     H_    0.538891 0.176994 0.565935 0.200998
H35   H     H_    0.695091 0.736735 0.664329 0.177021
H36   H     H_    0.400099 0.744228 0.410225 0.223029
N1    N     N_R   0.433240 0.222190 0.444680 -0.106165
N2    N     N_3   0.108603 0.519977 0.687964 -0.387455
N3    N     N_R   0.566070 0.776970 0.554790 -0.137169
N4    N     N_3   0.633101 0.789526 0.236874 -0.412078
N5    N     N_3   0.553809 0.403800 0.173154 -0.415636
N6    N     N_3   0.358691 0.599694 0.808685 -0.455813
N7    N     N_3   0.301836 0.275593 0.310526 -0.318758
N8    N     N_3   0.279571 0.068557 0.239634 -0.417373
N9    N     N_3   0.713681 0.102748 0.598670 -0.452638
N10   N     N_3   0.803339 0.934379 0.712115 -0.419940
O1    O     O_R   0.468120 0.366740 0.627160 -0.576528
O2    O     O_R   0.770961 0.901644 0.976946 -0.790210
O3    O     O_2   0.481601 0.125762 0.782501 -0.585509
O4    O     O_R   0.314782 0.207641 0.758386 -0.787915
O5    O     O_2   0.684812 0.143976 0.885128 -0.596484
O6    O     O_R   0.660987 0.163956 0.052478 -0.794464
O7    O     O_2   0.730560 0.321985 0.671977 -0.610609
O8    O     O_R   0.925946 0.327514 0.736397 -0.773027
O9    O     O_2   0.163982 0.849820 0.310370 -0.618773
O10   O     O_R   0.321203 0.824429 0.206285 -0.776146
O11   O     O_2   0.009859 0.291123 0.379092 -0.583770
O12   O     O_R   0.510770 0.544830 0.662520 -0.630612
O13   O     O_R   0.100663 0.201188 0.506787 -0.798798
O14   O     O_2   0.808784 0.377817 0.326635 -0.594490
O15   O     O_R   0.880914 0.523265 0.209620 -0.762933
O16   O     O_2   0.196413 0.455198 0.295582 -0.611043
O17   O     O_R   0.137895 0.600397 0.209132 -0.752298
O18   O     O_2   0.941787 0.685125 0.715244 -0.651069
O19   O     O_R   0.785919 0.533049 0.718125 -0.782547
O20   O     O_R   0.663880 0.410950 0.482330 -0.582713
O21   O     O_R   0.706530 0.589040 0.517700 -0.633170
O22   O     O_R   0.489230 0.455170 0.337480 -0.559867
O23   O     O_R   0.531880 0.633260 0.372840 -0.622059
O24   O     O_R   0.293470 0.410960 0.482300 -0.553010
O25   O     O_R   0.336120 0.589050 0.517670 -0.677226
O26   O     O_2   0.572425 0.913319 0.027443 -0.580905
Zn1   Zn    Zn3+2 0.471520 0.381090 0.476390 1.055313
Zn2   Zn    Zn3+2 0.528480 0.618910 0.523610 0.941435

loop_
_geom_bond_atom_site_label_1
_geom_bond_atom_site_label_2
_ccdc_geom_bond_type
C39   O13   S    
C30   C32   S    
C31   C42   S    
C12   C29   S    
H6    O2    S    
C1    C11   S    
C19   N3    A    
C39   O11   D    
C29   H2    S    
C35   O3    D    
C12   C23   S    
H28   O19   S    
H9    O4    S    
C4    O21   A    
C28   C29   S    
C24   H36   S    
H22   N10   S    
C9    N5    S    
C5    C6    A    
C20   C25   A    
C22   C38   S    
C16   O23   A    
H18   N8    S    
C18   C19   A    
H8    N5    S    
C42   O19   S    
O21   Zn2   S    
O1    Zn1   S    
C1    O1    A    
C25   N1    A    
C36   C46   S    
C16   C44   S    
C40   O15   S    
H30   N2    S    
C41   O16   D    
C21   C22   A    
C13   N8    S    
C25   H34   S    
C17   N9    S    
C47   H33   S    
C33   O2    S    
C30   H23   S    
H14   N6    S    
C6    C7    A    
C27   O24   A    
C10   N4    S    
O23   Zn2   S    
C12   C27   S    
C10   C44   A    
C33   C43   S    
C23   C30   S    
C4    O20   A    
C28   C32   S    
C3    C11   A    
C14   N3    A    
C3    C8    A    
O24   Zn1   S    
H4    N4    S    
H26   O15   S    
C45   C46   A    
C34   N2    S    
C42   O18   D    
C5    C9    A    
C38   O10   S    
O20   Zn1   S    
C31   C32   S    
N1    Zn1   S    
C29   C39   S    
N3    Zn2   S    
C17   C18   A    
C31   C34   S    
C30   C40   S    
H11   O8    S    
C4    C32   S    
C40   O14   D    
H25   O13   S    
C33   O26   D    
C6    C43   A    
C34   H12   S    
C22   C24   A    
C13   C26   A    
C11   C45   A    
C2    C5    A    
C14   H35   S    
C31   H3    S    
C12   C34   S    
C35   C45   S    
C16   O22   A    
C7    H32   S    
C27   O25   A    
C15   C17   A    
H13   N6    S    
C46   C47   A    
C28   H1    S    
C9    C44   A    
C26   N1    A    
C10   C43   A    
H5    N4    S    
C15   N10   S    
H19   N8    S    
H24   N10   S    
C2    C47   A    
C26   N7    S    
C23   C41   S    
C41   O17   S    
H7    N5    S    
C2    C3    A    
C38   O9    D    
C13   C21   A    
C37   O8    S    
C28   C37   S    
H15   N7    S    
H16   N7    S    
H20   N9    S    
H21   N9    S    
C19   C24   A    
C36   O6    S    
C18   C20   A    
C23   H31   S    
H17   O10   S    
C7    C8    A    
C20   C21   A    
O22   Zn1   S    
O12   Zn2   S    
C14   C15   A    
C36   O5    D    
C8    N6    S    
H27   O17   S    
C35   O4    S    
H29   N2    S    
O25   Zn2   S    
C37   O7    D    
C1    O12   A    
H10   O6    S    
