data_mof_unit_49964.cif
_audit_creation_date              2012-12-10T20:38:22-0500
_audit_creation_method            fapswitch 2.2
_symmetry_space_group_name_H-M    P1
_symmetry_Int_Tables_number       1
_space_group_crystal_system       triclinic
_cell_length_a                    9.858261
_cell_length_b                    10.749625
_cell_length_c                    16.470247
_cell_angle_alpha                 90.6121
_cell_angle_beta                  84.44158
_cell_angle_gamma                 89.349432
_cell_volume                      1736.9543903

loop_
_atom_site_label
_atom_site_type_symbol
_atom_type_description
_atom_site_fract_x
_atom_site_fract_y
_atom_site_fract_z
_atom_type_partial_charge
C1    C     C_R   0.499539 0.739757 0.500185 0.894483
C2    C     C_R   0.353039 0.482392 0.790401 -0.225639
C3    C     C_R   0.449342 0.483627 0.126332 -0.211289
C4    C     C_R   0.446327 0.531201 0.205638 0.163097
C5    C     C_R   0.633080 0.388429 0.228464 -0.269069
C6    C     C_R   0.638689 0.344218 0.148307 0.215133
C7    C     C_R   0.541999 0.389151 0.098199 0.088788
C8    C     C_2   0.433390 0.316123 0.978190 0.128327
C9    C     C_2   0.545585 0.351396 0.012636 -0.297547
C10   C     C_R   0.535153 0.477843 0.258255 -0.120544
C11   C     C_R   0.386596 0.939492 0.483902 0.077177
C12   C     C_R   0.480339 0.493561 0.653619 0.834367
C13   C     C_R   0.501765 0.871435 0.498716 -0.131288
C14   C     C_R   0.622952 0.931539 0.512124 -0.257116
C15   C     C_R   0.626352 0.059767 0.519147 0.157484
C16   C     C_R   0.504950 0.128112 0.508247 -0.168399
C17   C     C_R   0.387813 0.066099 0.490425 0.030172
C18   C     C_3   0.244594 0.072603 0.531183 -0.011904
C19   C     C_3   0.243475 0.931447 0.522624 -0.490514
C20   C     C_R   0.917802 0.466451 0.567815 0.158863
C21   C     C_R   0.938982 0.523446 0.430520 -0.138010
C22   C     C_R   0.082821 0.522921 0.430445 -0.133322
C23   C     C_R   0.500879 0.260391 0.504810 0.873552
C24   C     C_R   0.060115 0.470301 0.568584 0.135360
C25   C     C_3   0.046491 0.536068 0.650136 -0.080186
C26   C     C_3   0.892635 0.525827 0.649899 -0.482126
C27   C     C_R   0.519859 0.500651 0.345940 0.872762
C28   C     C_R   0.466533 0.448739 0.736801 -0.015691
C29   C     C_R   0.558489 0.357753 0.759086 -0.212131
C30   C     C_R   0.540451 0.304957 0.835770 -0.202118
C31   C     C_R   0.431243 0.343911 0.891350 0.187673
C32   C     C_R   0.335745 0.430737 0.867727 -0.173701
H1    H     H_    0.643317 0.326330 0.716855 0.135531
H2    H     H_    0.174541 0.120684 0.492453 0.168242
H3    H     H_    0.237457 0.881124 0.581323 0.205725
H4    H     H_    0.847444 0.459823 0.696090 0.173980
H5    H     H_    0.836226 0.615803 0.648024 0.220853
H6    H     H_    0.702244 0.348744 0.268863 0.162154
H7    H     H_    0.280237 0.550657 0.773075 0.144369
H8    H     H_    0.614908 0.237957 0.853280 0.131976
N1    N     N_R   0.857140 0.500860 0.500530 -0.094948
N2    N     N_R   0.142780 0.500820 0.500530 -0.106716
O1    O     O_R   0.385310 0.683210 0.499990 -0.626533
O2    O     O_R   0.614650 0.683240 0.500000 -0.619166
O3    O     O_R   0.371780 0.500000 0.615800 -0.632195
O4    O     O_R   0.601120 0.500040 0.615800 -0.618024
O5    O     O_R   0.385350 0.316760 0.500000 -0.617860
O6    O     O_R   0.614690 0.316790 0.500010 -0.608778
O7    O     O_R   0.398880 0.499960 0.384200 -0.621631
O8    O     O_R   0.628220 0.500000 0.384200 -0.615827
Zn1   Zn    Zn3+2 0.346870 0.499980 0.499990 0.920605
Zn2   Zn    Zn3+2 0.653130 0.500020 0.500010 0.927784
C33   C     C_3   0.745058 0.246708 0.119546 -0.419491
C34   C     C_3   0.884351 0.305765 0.100415 -0.886495
H9    H     H_    0.960427 0.232800 0.079055 0.253216
H10   H     H_    0.879987 0.375824 0.051602 0.258582
H11   H     H_    0.917846 0.351435 0.155785 0.258387
H12   H     H_    0.751526 0.175657 0.167630 0.200594
H13   H     H_    0.717736 0.196165 0.064410 0.212617
H14   H     H_    0.714136 0.878498 0.521784 0.174537
C35   C     C_3   0.757451 0.115049 0.544503 -0.373212
C36   C     C_3   0.857258 0.143137 0.470207 -0.809237
H15   H     H_    0.807432 0.197251 0.424108 0.272088
H16   H     H_    0.943305 0.198148 0.489497 0.229569
H17   H     H_    0.898176 0.054860 0.441330 0.237067
H18   H     H_    0.737876 0.198195 0.584515 0.208890
H19   H     H_    0.808138 0.048325 0.583368 0.183017
C37   C     C_3   0.232900 0.119152 0.620674 -0.336882
C38   C     C_3   0.085505 0.117083 0.658617 -0.923357
H20   H     H_    0.022626 0.184549 0.627492 0.255912
H21   H     H_    0.042373 0.022674 0.653669 0.269732
H22   H     H_    0.081287 0.143996 0.724096 0.251385
H23   H     H_    0.297549 0.061251 0.657611 0.207044
H24   H     H_    0.268827 0.216317 0.623778 0.223909
H25   H     H_    0.172395 0.898004 0.478944 0.182466
H26   H     H_    0.893683 0.544272 0.374940 0.148716
H27   H     H_    0.145148 0.543175 0.374679 0.146304
H28   H     H_    0.088079 0.479121 0.698181 0.163898
C39   C     C_3   0.350216 0.639416 0.230444 -0.426574
C40   C     C_3   0.388888 0.755697 0.181288 -0.877386
H29   H     H_    0.495666 0.781660 0.189080 0.263174
H30   H     H_    0.378156 0.740232 0.115487 0.256448
H31   H     H_    0.320472 0.834275 0.203354 0.249514
H32   H     H_    0.244297 0.612862 0.220766 0.197728
H33   H     H_    0.350926 0.665859 0.295516 0.219947
C41   C     C_3   0.095479 0.671723 0.647589 -0.324089
C42   C     C_3   0.055333 0.740459 0.728175 -0.937320
H34   H     H_    0.943268 0.755208 0.737491 0.267055
H35   H     H_    0.088526 0.687203 0.780250 0.259698
H36   H     H_    0.104920 0.832679 0.727229 0.252293
H37   H     H_    0.207829 0.672771 0.635894 0.238013
H38   H     H_    0.052458 0.722749 0.597335 0.206257
H39   H     H_    0.636861 0.377885 0.974644 0.157579
H40   H     H_    0.252359 0.463877 0.910344 0.123081
H41   H     H_    0.380261 0.521896 0.085404 0.151532
C43   C     C_3   0.305983 0.269395 0.027287 -0.392169
C44   C     C_3   0.261020 0.146116 0.992385 -0.879049
H42   H     H_    0.230889 0.158920 0.929715 0.260915
H43   H     H_    0.345082 0.076127 0.990745 0.262130
H44   H     H_    0.172107 0.110420 0.031387 0.244066
H45   H     H_    0.324029 0.253745 0.091952 0.220056
H46   H     H_    0.222081 0.339072 0.026876 0.191660

loop_
_geom_bond_atom_site_label_1
_geom_bond_atom_site_label_2
_ccdc_geom_bond_type
C10   C27   S    
C32   H40   S    
C42   H34   S    
C43   H46   S    
C24   N2    A    
C8    C43   S    
C44   H42   S    
C33   H13   S    
C22   N2    A    
C33   C34   S    
C21   H26   S    
C11   C19   S    
C36   H15   S    
C12   C28   S    
C21   C22   A    
C28   C29   A    
C3    C7    A    
C41   H37   S    
C39   H32   S    
O3    Zn1   S    
C18   C37   S    
C15   C16   A    
C29   H1    S    
C2    C32   A    
C18   C19   S    
C38   H21   S    
C36   H16   S    
C37   C38   S    
C2    H7    S    
C1    O1    A    
C20   C24   A    
C8    C9    D    
O7    Zn1   S    
O8    Zn2   S    
N1    Zn2   S    
C27   O8    A    
N2    Zn1   S    
O2    Zn2   S    
C43   H45   S    
C38   H20   S    
C40   H31   S    
C35   H18   S    
C44   H43   S    
C20   N1    A    
C34   H10   S    
C23   O5    A    
C25   H28   S    
C5    H6    S    
C24   C25   S    
C4    C39   S    
C12   O4    A    
C41   C42   S    
C16   C17   A    
O5    Zn1   S    
C37   H23   S    
C38   H22   S    
C29   C30   A    
C35   H19   S    
C1    O2    A    
C31   C32   A    
C30   C31   A    
C43   C44   S    
C17   C18   S    
C15   C35   S    
C30   H8    S    
C18   H2    S    
C21   N1    A    
C40   H30   S    
C19   H3    S    
C16   C23   S    
C42   H35   S    
C1    C13   S    
C6    C33   S    
C4    C10   A    
C3    C4    A    
C9    H39   S    
C39   H33   S    
C44   H44   S    
C26   H4    S    
C7    C9    S    
C34   H9    S    
C11   C17   A    
C23   O6    A    
C36   H17   S    
C8    C31   S    
C22   H27   S    
C40   H29   S    
C2    C28   A    
C33   H12   S    
C26   H5    S    
C6    C7    A    
C12   O3    A    
C14   H14   S    
C19   H25   S    
C25   C26   S    
C5    C10   A    
C41   H38   S    
O4    Zn2   S    
C11   C13   A    
O1    Zn1   S    
C5    C6    A    
C20   C26   S    
C25   C41   S    
C35   C36   S    
C39   C40   S    
O6    Zn2   S    
C42   H36   S    
C14   C15   A    
C3    H41   S    
C13   C14   A    
C37   H24   S    
C27   O7    A    
C34   H11   S    
