data_mof_unit_67985.cif
_audit_creation_date              2013-03-05T16:49:26-0500
_audit_creation_method            fapswitch 2.2
_symmetry_space_group_name_H-M    P1
_symmetry_Int_Tables_number       1
_space_group_crystal_system       triclinic
_cell_length_a                    10.687429
_cell_length_b                    8.90161
_cell_length_c                    8.127555
_cell_angle_alpha                 89.960167
_cell_angle_beta                  90.13126
_cell_angle_gamma                 88.866771
_cell_volume                      773.064111171

loop_
_atom_site_label
_atom_site_type_symbol
_atom_site_description
_atom_site_fract_x
_atom_site_fract_y
_atom_site_fract_z
_atom_type_partial_charge
O1    O     O_R   0.499990 0.285340 0.636850 -0.622573
O2    O     O_R   0.500010 0.714660 0.363150 -0.622572
O3    O     O_R   0.500010 0.285350 0.363100 -0.619672
O4    O     O_R   0.499990 0.714650 0.636900 -0.619668
C1    C     C_R   0.500062 0.218123 0.500009 0.948122
C2    C     C_R   0.499936 0.781877 0.499991 0.948040
O5    O     O_R   0.316750 0.500000 0.636870 -0.601088
O6    O     O_R   0.683250 0.500000 0.363130 -0.601068
O7    O     O_R   0.316770 0.500020 0.363120 -0.620543
O8    O     O_R   0.683230 0.499980 0.636880 -0.620538
C3    C     C_R   0.259717 0.499618 0.499464 0.891810
C4    C     C_R   0.740283 0.500380 0.500536 0.891765
Zn1   Zn    Zn3+2 0.499990 0.499990 0.682780 1.035397
Zn2   Zn    Zn3+2 0.500010 0.500010 0.317220 1.035403
H1    H     H_    0.289187 0.048115 0.939158 0.199790
H2    H     H_    0.710782 0.951923 0.060776 0.199774
C5    C     C_R   0.220229 0.270025 0.995583 -0.123979
C6    C     C_R   0.779767 0.730016 0.004391 -0.123977
H3    H     H_    0.245890 0.312726 0.875972 0.210738
H4    H     H_    0.754112 0.687330 0.124013 0.210704
C7    C     C_R   0.162689 0.364952 0.111985 0.370869
C8    C     C_R   0.837314 0.635081 0.888005 0.370879
C9    C     C_R   0.129032 0.304949 0.268116 -0.160329
C10   C     C_R   0.870965 0.695065 0.731863 -0.160350
C11   C     C_R   0.159781 0.152139 0.306361 0.295024
C12   C     C_R   0.840196 0.847866 0.693586 0.294994
C13   C     C_R   0.216068 0.061375 0.184580 -0.159833
C14   C     C_R   0.783895 0.938636 0.815353 -0.159816
H5    H     H_    0.239856 0.944715 0.209255 0.211432
H6    H     H_    0.760092 0.055289 0.790662 0.211424
C15   C     C_R   0.245129 0.119600 0.030856 -0.191877
C16   C     C_R   0.754846 0.880431 0.969090 -0.191908
C17   C     C_R   0.935186 0.404909 0.394068 -0.051893
C18   C     C_R   0.064813 0.595082 0.605936 -0.051837
H7    H     H_    0.883964 0.330835 0.313587 0.202253
H8    H     H_    0.116035 0.669158 0.686416 0.202224
C19   C     C_R   0.872364 0.501199 0.502354 -0.056864
C20   C     C_R   0.127636 0.498795 0.497647 -0.056820
C21   C     C_R   0.936056 0.596860 0.610097 0.116390
C22   C     C_R   0.063944 0.403135 0.389902 0.116358
C23   C     C_1   0.500014 0.065274 0.500038 -0.156661
C24   C     C_1   0.499983 0.934726 0.499962 -0.156711
N1    N     N_1   0.500020 0.500030 0.073640 0.004034
N2    N     N_1   0.499980 0.499970 0.926360 0.004028
N3    N     N_R   0.146203 0.522547 0.072307 0.218612
O9    O     O_R   0.059491 0.605567 0.140862 -0.371748
O10   O     O_R   0.219343 0.584839 0.965526 -0.423215
N4    N     N_R   0.853805 0.477491 0.927707 0.218615
O11   O     O_R   0.940517 0.394465 0.859162 -0.371802
O12   O     O_R   0.780664 0.415208 0.034494 -0.423194
N5    N     N_R   0.138017 0.087476 0.466878 0.231786
O13   O     O_R   0.122865 0.171340 0.596590 -0.388309
O14   O     O_R   0.147066 0.942623 0.487555 -0.387567
N6    N     N_R   0.861949 0.912517 0.533056 0.231781
O15   O     O_R   0.877344 0.828648 0.403400 -0.388041
O16   O     O_R   0.852745 0.057352 0.512315 -0.387791

loop_
_geom_bond_atom_site_label_1
_geom_bond_atom_site_label_2
_geom_bond_distance
_ccdc_geom_bond_type
C3    C20   1.411817 S    
C8    N4    1.446505 S    
O7    Zn2   1.994418 S    
C11   N5    1.446745 S    
N6    O16   1.301879 A    
H1    C15   1.082818 S    
H2    C16   1.082817 S    
C11   C13   1.406742 A    
C23   C24   1.162092 T    
C12   C14   1.406752 A    
O6    C4    1.271100 A    
N1    N2    1.197025 T    
C14   H6    1.082726 S    
C19   C21   1.405893 A    
C18   C20   1.393217 A    
N3    O9    1.300490 A    
O5    C3    1.271101 A    
O7    C3    1.266082 A    
C17   H7    1.084235 S    
O2    C2    1.263277 A    
O3    Zn2   1.946609 S    
O8    C4    1.266081 A    
C7    N3    1.446502 S    
O1    C1    1.263277 A    
C12   N6    1.446778 S    
C14   C16   1.390441 A    
N4    O12   1.300489 A    
N4    O11   1.300488 A    
C20   C22   1.405897 A    
C5    C15   1.389613 A    
C10   C12   1.426979 A    
C18   H8    1.084236 S    
C7    C9    1.426069 A    
O2    Zn2   1.947110 S    
C8    C10   1.426073 A    
C17   C22   1.376359 A    
O1    Zn1   1.947109 S    
N5    O14   1.301894 A    
C13   C15   1.390446 A    
N5    O13   1.300781 A    
O5    Zn1   1.992754 S    
C10   C21   1.485885 S    
C6    C16   1.389606 A    
C13   H5    1.082728 S    
C6    H4    1.081486 S    
O4    C2    1.263077 A    
C9    C11   1.426951 A    
C2    C24   1.360612 S    
N3    O10   1.300490 A    
C4    C19   1.411814 S    
C1    C23   1.360613 S    
N6    O15   1.300747 A    
O6    Zn2   1.992754 S    
C5    H3    1.081482 S    
C6    C8    1.403722 A    
C18   C21   1.376358 A    
Zn1   N2    1.979710 S    
C17   C19   1.393216 A    
C9    C22   1.485888 S    
O4    Zn1   1.946610 S    
Zn2   N1    1.979710 S    
O3    C1    1.263076 A    
O8    Zn1   1.994418 S    
C5    C7    1.403725 A    
