data_mof_unit_9075.cif
_audit_creation_date              2012-12-11T16:24:27-0500
_audit_creation_method            fapswitch 2.2
_symmetry_space_group_name_H-M    P1
_symmetry_Int_Tables_number       1
_space_group_crystal_system       triclinic
_cell_length_a                    14.725972
_cell_length_b                    14.748399
_cell_length_c                    33.231245
_cell_angle_alpha                 96.208728
_cell_angle_beta                  96.16786
_cell_angle_gamma                 61.06775
_cell_volume                      6266.87200784

loop_
_atom_site_label
_atom_site_type_symbol
_atom_type_description
_atom_site_fract_x
_atom_site_fract_y
_atom_site_fract_z
_atom_type_partial_charge
C1    C     C_R   0.390978 0.700354 0.446307 0.552949
C2    C     C_1   0.331280 0.307650 0.230732 0.018923
C3    C     C_R   0.785570 0.997360 0.279110 -0.133210
C4    C     C_R   0.840349 0.985432 0.316874 -0.127916
C5    C     C_R   0.841562 0.071204 0.338956 -0.097788
C6    C     C_3   0.761492 0.112580 0.118398 -0.327959
C7    C     C_R   0.158789 0.844225 0.072334 0.055978
C8    C     C_R   0.201819 0.757422 0.044650 -0.090810
C9    C     C_R   0.137243 0.727425 0.019490 -0.119909
C10   C     C_R   0.029396 0.784141 0.021638 -0.113713
C11   C     C_R   0.985913 0.871060 0.048893 -0.113820
C12   C     C_R   0.050210 0.901252 0.074127 -0.061506
C13   C     C_1   0.334170 0.310029 0.267028 -0.013035
C14   C     C_3   0.507380 0.069155 0.190957 -0.311069
C15   C     C_3   0.109280 0.855571 0.315027 -0.294831
C16   C     C_3   0.632111 0.747246 0.356451 -0.313652
C17   C     C_R   0.153483 0.854027 0.160368 0.039481
C18   C     C_R   0.081546 0.936355 0.184716 -0.058082
C19   C     C_R   0.002046 0.927668 0.200513 -0.097447
C20   C     C_R   0.992632 0.837736 0.191531 -0.112614
C21   C     C_R   0.063724 0.755712 0.167281 -0.107675
C22   C     C_R   0.145072 0.762912 0.152369 -0.074982
C23   C     C_3   0.139582 0.511068 0.555942 -0.298694
C24   C     C_R   0.404228 0.384784 0.434462 0.551316
C25   C     C_3   0.027051 0.509554 0.877358 -0.308287
C26   C     C_R   0.187932 0.542998 0.667851 0.082443
C27   C     C_R   0.199426 0.628258 0.685312 -0.058844
C28   C     C_R   0.115386 0.714457 0.702762 -0.106662
C29   C     C_R   0.019036 0.717067 0.701930 -0.110993
C30   C     C_R   0.006601 0.633476 0.683676 -0.119428
C31   C     C_R   0.090899 0.546514 0.666755 -0.069881
C32   C     C_3   0.547524 0.072271 0.316983 -0.258306
C33   C     C_R   0.490354 0.206838 0.931680 0.063360
C34   C     C_R   0.514043 0.258354 0.965827 -0.095758
C35   C     C_R   0.293402 0.293898 0.102367 -0.010495
C36   C     C_R   0.595823 0.202127 0.993713 -0.110595
C37   C     C_R   0.654026 0.094254 0.987767 -0.104663
C38   C     C_R   0.630238 0.042388 0.954021 -0.117786
C39   C     C_R   0.548463 0.098318 0.926096 -0.058180
C40   C     C_3   0.575473 0.140947 0.833966 -0.283814
C41   C     C_R   0.762287 0.188611 0.673229 0.039084
C42   C     C_R   0.826628 0.086787 0.657889 -0.099414
C43   C     C_R   0.818950 0.003605 0.670647 -0.119631
C44   C     C_R   0.746619 0.021522 0.698565 -0.115476
C45   C     C_R   0.681698 0.122678 0.713669 -0.123919
C46   C     C_R   0.754949 0.373014 0.409359 0.007954
C47   C     C_R   0.689153 0.206126 0.701044 -0.087340
C48   C     C_3   0.896433 0.476651 0.590144 -0.294460
C49   C     C_3   0.407743 0.151513 0.428121 -0.281867
C50   C     C_3   0.961622 0.423712 0.708248 -0.308516
C51   C     C_3   0.172505 0.631191 0.364822 -0.306947
C52   C     C_R   0.146109 0.467494 0.192429 0.054075
C53   C     C_R   0.046983 0.474797 0.190316 -0.072134
C54   C     C_R   0.969968 0.550264 0.214598 -0.112749
C55   C     C_R   0.991410 0.618480 0.241288 -0.115694
C56   C     C_R   0.089833 0.611503 0.243708 -0.126144
C57   C     C_R   0.784589 0.436193 0.391832 -0.141626
C58   C     C_R   0.166846 0.536703 0.219301 -0.103749
C59   C     C_3   0.133931 0.526760 0.084285 -0.291949
C60   C     C_R   0.812391 0.414991 0.351886 -0.134119
C61   C     C_R   0.812218 0.329799 0.328768 0.036588
C62   C     C_R   0.789490 0.260888 0.346864 -0.013010
C63   C     C_R   0.762285 0.282954 0.387337 -0.136244
C64   C     C_R   0.334971 0.321405 0.310405 -0.021890
C65   C     C_R   0.830063 0.306362 0.203509 0.322912
C66   C     C_R   0.824647 0.322074 0.285169 0.328864
C67   C     C_R   0.846605 0.383602 0.145006 -0.151935
C68   C     C_R   0.700552 0.409878 0.447296 0.542034
C69   C     C_R   0.878417 0.375023 0.106368 -0.154122
C70   C     C_R   0.887218 0.206243 0.094393 -0.098195
C71   C     C_R   0.852478 0.214818 0.133154 0.145772
C72   C     C_R   0.840206 0.301515 0.159753 0.044259
C73   C     C_R   0.904966 0.283711 0.081660 -0.011704
C74   C     C_R   0.371504 0.760715 0.410792 -0.035319
C75   C     C_R   0.394002 0.236952 0.334497 0.178063
C76   C     C_R   0.271239 0.816371 0.392667 -0.140688
C77   C     C_R   0.257036 0.856380 0.354795 0.105537
C78   C     C_R   0.344200 0.839956 0.334956 0.081307
C79   C     C_R   0.444415 0.793704 0.354717 0.120062
C80   C     C_R   0.393285 0.701594 0.561221 0.539436
C81   C     C_R   0.456549 0.755060 0.392873 -0.115686
C82   C     C_R   0.322350 0.869947 0.210779 0.335114
C83   C     C_R   0.332823 0.854859 0.291597 0.375412
C84   C     C_R   0.234405 0.866107 0.141890 -0.021161
C85   C     C_R   0.228634 0.873948 0.099486 -0.023785
C86   C     C_R   0.408814 0.255648 0.376536 0.133482
C87   C     C_R   0.368480 0.919466 0.108504 -0.152067
C88   C     C_R   0.379813 0.903020 0.149539 -0.143366
C89   C     C_R   0.311271 0.880411 0.166797 0.019901
C90   C     C_R   0.290370 0.909861 0.083321 -0.002091
C91   C     C_R   0.373599 0.374769 0.587537 0.016479
C92   C     C_R   0.407107 0.389675 0.549431 0.538531
C93   C     C_R   0.284714 0.454251 0.606651 0.125723
C94   C     C_R   0.275849 0.452850 0.648328 0.005294
C95   C     C_R   0.350816 0.367558 0.670286 -0.010880
C96   C     C_R   0.429910 0.283432 0.649360 -0.152158
C97   C     C_R   0.404402 0.237268 0.164457 0.130862
C98   C     C_R   0.441999 0.287501 0.608883 -0.165631
C99   C     C_R   0.351953 0.354403 0.795807 0.373169
C100  C     C_R   0.350472 0.363469 0.714647 0.334502
C101  C     C_R   0.238482 0.402427 0.851915 -0.134491
C102  C     C_R   0.216440 0.387163 0.889840 0.110986
C103  C     C_R   0.402064 0.266928 0.902714 -0.041614
C104  C     C_R   0.701848 0.413243 0.562744 0.549991
C105  C     C_R   0.422324 0.283899 0.864421 0.122338
C106  C     C_R   0.338731 0.347207 0.838263 0.021210
C107  C     C_R   0.297533 0.310504 0.913687 -0.016559
C108  C     C_R   0.389775 0.230202 0.122305 -0.153314
C109  C     C_R   0.754149 0.378935 0.603314 -0.007571
C110  C     C_R   0.793218 0.436322 0.629506 0.163070
C111  C     C_R   0.814396 0.417455 0.671217 0.144801
C112  C     C_R   0.798046 0.340866 0.686291 0.013803
C113  C     C_R   0.770831 0.276243 0.659365 -0.035678
C114  C     C_R   0.749949 0.295463 0.618286 -0.179881
C115  C     C_R   0.876189 0.214196 0.824120 -0.111632
C116  C     C_R   0.364079 0.359565 0.394054 -0.004586
C117  C     C_R   0.908815 0.201807 0.865125 -0.130495
C118  C     C_R   0.861225 0.384387 0.874950 -0.123696
C119  C     C_R   0.215302 0.377259 0.125162 0.113915
C120  C     C_R   0.828946 0.396523 0.833924 -0.118661
C121  C     C_R   0.839396 0.310777 0.808282 0.041115
C122  C     C_1   0.822187 0.319871 0.765314 -0.031316
C123  C     C_1   0.810957 0.328344 0.729304 -0.022600
C124  C     C_R   0.905454 0.286012 0.890583 0.022854
C125  C     C_R   0.376025 0.755451 0.601914 0.017407
C126  C     C_R   0.278803 0.795664 0.618375 -0.132089
C127  C     C_R   0.268358 0.825793 0.659592 -0.120656
C128  C     C_R   0.289934 0.441256 0.370205 0.102711
C129  C     C_R   0.354925 0.815287 0.684721 0.036798
C130  C     C_R   0.229687 0.384640 0.167884 -0.005599
C131  C     C_R   0.450349 0.781463 0.668220 -0.113426
C132  C     C_R   0.460828 0.752253 0.626932 -0.128524
C133  C     C_R   0.395374 0.885409 0.832230 -0.115283
C134  C     C_R   0.376263 0.912856 0.873167 -0.130090
C135  C     C_R   0.229952 0.878148 0.863335 -0.127267
C136  C     C_R   0.249399 0.850557 0.822441 -0.110072
C137  C     C_R   0.330144 0.857134 0.806677 0.042180
C138  C     C_1   0.341016 0.842185 0.763838 -0.028527
C139  C     C_1   0.347782 0.830940 0.727758 -0.032144
C140  C     C_R   0.279592 0.421088 0.328238 -0.125165
C141  C     C_R   0.322416 0.310653 0.187316 0.025754
C142  C     C_R   0.291057 0.912978 0.888799 0.019667
C143  C     C_R   0.963129 0.264609 0.045553 0.541708
C144  C     C_R   0.272895 0.260095 0.060164 0.541255
C145  C     C_R   0.258781 0.959785 0.044095 0.541939
C146  C     C_R   0.961726 0.267813 0.930917 0.547448
C147  C     C_R   0.272485 0.265917 0.946337 0.553553
C148  C     C_R   0.256419 0.964608 0.928999 0.541732
C149  C     C_R   0.785683 0.170395 0.323770 0.038884
C150  C     C_R   0.725869 0.182345 0.286782 -0.065622
C151  C     C_R   0.728317 0.095824 0.264118 -0.122966
Cr1   Cr    Cr6+3 0.576280 0.580550 0.506370 1.014039
Cr2   Cr    Cr6+3 0.346780 0.572400 0.496520 1.004423
Cr3   Cr    Cr6+3 0.576960 0.347070 0.497150 0.996263
Cr4   Cr    Cr6+3 0.087320 0.083240 0.984860 1.019869
Cr5   Cr    Cr6+3 0.087720 0.316210 0.996740 1.003385
Cr6   Cr    Cr6+3 0.317350 0.090340 0.995890 1.014642
H1    H     H_    0.452415 0.169052 0.105458 0.133184
H2    H     H_    0.440578 0.910982 0.168310 0.117861
H3    H     H_    0.984908 0.478352 0.725849 0.148151
H4    H     H_    0.005366 0.393698 0.680406 0.152785
H5    H     H_    0.982551 0.357844 0.727129 0.153698
H6    H     H_    0.184281 0.541757 0.411700 0.249407
H7    H     H_    0.108363 0.626753 0.345363 0.119082
H8    H     H_    0.227586 0.636471 0.346040 0.163088
H9    H     H_    0.138087 0.702469 0.385331 0.139072
H10   H     H_    0.029950 0.421219 0.170300 0.118679
H11   H     H_    0.893823 0.555492 0.212967 0.115337
H12   H     H_    0.931803 0.676721 0.260108 0.098700
H13   H     H_    0.509164 0.224200 0.595019 0.141427
H14   H     H_    0.106323 0.664366 0.264359 0.102245
H15   H     H_    0.242671 0.532527 0.221391 0.121762
H16   H     H_    0.072264 0.428206 0.092160 0.278494
H17   H     H_    0.056123 0.591197 0.075691 0.137349
H18   H     H_    0.175451 0.488122 0.056339 0.148005
H19   H     H_    0.178314 0.559825 0.103635 0.144053
H20   H     H_    0.486868 0.215908 0.664863 0.149446
H21   H     H_    0.176955 0.455176 0.831900 0.132692
H22   H     H_    0.942479 0.124994 0.876229 0.127178
H23   H     H_    0.884370 0.147453 0.804428 0.113775
H24   H     H_    0.723628 0.248326 0.598434 0.144911
H25   H     H_    0.800248 0.471689 0.821869 0.101469
H26   H     H_    0.856281 0.450781 0.893966 0.122261
H27   H     H_    0.424576 0.939569 0.891939 0.121538
H28   H     H_    0.739235 0.233727 0.400566 0.123896
H29   H     H_    0.458229 0.890428 0.820196 0.103525
H30   H     H_    0.517685 0.773341 0.687530 0.109618
H31   H     H_    0.536870 0.721046 0.615226 0.138705
H32   H     H_    0.212174 0.799011 0.599878 0.123999
H33   H     H_    0.198803 0.828328 0.802782 0.110626
H34   H     H_    0.163816 0.877435 0.874444 0.125906
H35   H     H_    0.193945 0.852924 0.672137 0.105505
H36   H     H_    0.229444 0.483054 0.308813 0.131259
H37   H     H_    0.780322 0.505688 0.408139 0.122019
H38   H     H_    0.678641 0.258311 0.275097 0.132012
H39   H     H_    0.889137 0.437197 0.097071 0.132100
H40   H     H_    0.685152 0.105387 0.235069 0.125433
H41   H     H_    0.786292 0.930594 0.261730 0.095582
H42   H     H_    0.882883 0.909402 0.328805 0.093627
H43   H     H_    0.886915 0.060082 0.367647 0.095798
H44   H     H_    0.817481 0.141187 0.174975 0.265546
H45   H     H_    0.752305 0.050660 0.130776 0.134384
H46   H     H_    0.790920 0.083968 0.087754 0.136273
H47   H     H_    0.684145 0.182975 0.116089 0.142650
H48   H     H_    0.285311 0.712586 0.042861 0.097196
H49   H     H_    0.170814 0.660043 0.998400 0.098466
H50   H     H_    0.829922 0.467954 0.338358 0.119817
H51   H     H_    0.979536 0.760688 0.002201 0.098378
H52   H     H_    0.902415 0.914750 0.050533 0.090070
H53   H     H_    0.015837 0.968101 0.095351 0.127625
H54   H     H_    0.564181 0.156894 0.169564 0.238169
H55   H     H_    0.505118 0.026428 0.161546 0.129279
H56   H     H_    0.442433 0.081683 0.208971 0.177625
H57   H     H_    0.581800 0.021057 0.208127 0.125462
H58   H     H_    0.104805 0.972665 0.356465 0.250494
H59   H     H_    0.049439 0.903627 0.292047 0.176038
H60   H     H_    0.071704 0.833112 0.336308 0.100634
H61   H     H_    0.834013 0.451964 0.164449 0.123898
H62   H     H_    0.168241 0.784510 0.299124 0.171341
H63   H     H_    0.534675 0.755633 0.304545 0.268740
H64   H     H_    0.685243 0.755506 0.337607 0.136010
H65   H     H_    0.666339 0.664215 0.362737 0.139989
H66   H     H_    0.624870 0.795792 0.385156 0.149502
H67   H     H_    0.086510 0.007483 0.191070 0.140901
H68   H     H_    0.947056 0.991091 0.219337 0.141852
H69   H     H_    0.930216 0.831640 0.203319 0.105937
H70   H     H_    0.055619 0.686618 0.159974 0.139326
H71   H     H_    0.200311 0.698825 0.133908 0.102930
H72   H     H_    0.904849 0.137146 0.074769 0.122379
H73   H     H_    0.222242 0.592424 0.577024 0.283262
H74   H     H_    0.073669 0.582958 0.544151 0.129227
H75   H     H_    0.184951 0.461336 0.530145 0.144579
H76   H     H_    0.107463 0.469290 0.570535 0.137308
H77   H     H_    0.113653 0.484070 0.932852 0.249596
H78   H     H_    0.954331 0.543151 0.893459 0.131541
H79   H     H_    0.020402 0.460532 0.850584 0.159243
H80   H     H_    0.035432 0.574789 0.867703 0.126880
H81   H     H_    0.273547 0.627286 0.685731 0.118038
H82   H     H_    0.124805 0.779305 0.716865 0.099913
H83   H     H_    0.204490 0.825752 0.407153 0.124842
H84   H     H_    0.953931 0.784015 0.715272 0.101589
H85   H     H_    0.931640 0.636138 0.682608 0.117056
H86   H     H_    0.080759 0.482392 0.652416 0.091156
H87   H     H_    0.396301 0.121565 0.290967 0.267433
H88   H     H_    0.571048 0.050120 0.285288 0.132818
H89   H     H_    0.573558 0.000367 0.332793 0.173922
H90   H     H_    0.587185 0.115632 0.332347 0.159845
H91   H     H_    0.469198 0.341882 0.970784 0.092787
H92   H     H_    0.613996 0.242122 0.019965 0.103929
H93   H     H_    0.717242 0.050844 0.009387 0.092468
H94   H     H_    0.533449 0.713714 0.407498 0.141170
H95   H     H_    0.674827 0.958779 0.949611 0.091855
H96   H     H_    0.529456 0.057147 0.900493 0.094392
H97   H     H_    0.574381 0.258908 0.875115 0.255236
H98   H     H_    0.639089 0.086869 0.854418 0.117002
H99   H     H_    0.610135 0.142076 0.806167 0.162249
H100  H     H_    0.519124 0.111099 0.825508 0.156755
H101  H     H_    0.883126 0.071859 0.636279 0.102967
H102  H     H_    0.868983 0.925301 0.658833 0.108809
H103  H     H_    0.740571 0.957097 0.708355 0.102427
H104  H     H_    0.624918 0.136511 0.734868 0.135281
H105  H     H_    0.417832 0.945014 0.096963 0.132539
H106  H     H_    0.637461 0.284226 0.712637 0.127638
H107  H     H_    0.801918 0.574325 0.635319 0.264664
H108  H     H_    0.969274 0.430565 0.608571 0.121736
H109  H     H_    0.900091 0.543011 0.578952 0.133297
H110  H     H_    0.890243 0.427141 0.563500 0.155978
H111  H     H_    0.538826 0.157357 0.412032 0.263296
H112  H     H_    0.457622 0.076290 0.442000 0.137870
H113  H     H_    0.339612 0.148294 0.411504 0.164763
H114  H     H_    0.380776 0.214401 0.452668 0.135081
H115  H     H_    0.808189 0.510844 0.723059 0.247731
N1    N     N_R   0.766389 0.397791 0.223072 -0.237611
N2    N     N_R   0.348165 0.928479 0.277003 -0.210691
N3    N     N_R   0.342522 0.936172 0.237121 -0.251095
N4    N     N_R   0.298417 0.446492 0.778417 -0.243179
N5    N     N_2   0.833210 0.135574 0.145130 -0.521665
N6    N     N_2   0.500687 0.167243 0.183849 -0.518295
N7    N     N_2   0.155001 0.915411 0.336864 -0.501382
N8    N     N_2   0.531559 0.781729 0.334690 -0.503930
N9    N     N_2   0.204090 0.538024 0.585236 -0.512750
N10   N     N_2   0.114448 0.447536 0.904505 -0.475504
N11   N     N_2   0.435440 0.133071 0.316983 -0.475754
N12   N     N_R   0.298656 0.450869 0.738701 -0.227230
N13   N     N_2   0.526394 0.244792 0.853393 -0.502889
N14   N     N_2   0.807478 0.515213 0.614377 -0.483903
N15   N     N_2   0.466693 0.168438 0.400474 -0.493565
N16   N     N_2   0.850870 0.477022 0.697873 -0.540410
N17   N     N_2   0.226741 0.541957 0.388988 -0.472897
N18   N     N_2   0.122014 0.454072 0.106253 -0.521268
N19   N     N_R   0.404733 0.271503 0.732250 -0.259605
N20   N     N_R   0.404902 0.266991 0.772001 -0.226485
N21   N     N_R   0.763250 0.405305 0.263154 -0.236594
N22   N     N_R   0.890341 0.231120 0.265817 -0.217252
N23   N     N_R   0.893686 0.223774 0.225669 -0.248018
N24   N     N_R   0.310133 0.794806 0.225613 -0.221792
N25   N     N_R   0.315597 0.787262 0.265297 -0.243034
O1    O     O_R   0.679450 0.499830 0.463150 -0.524270
O2    O     O_R   0.340240 0.172500 0.045430 -0.521256
O3    O     O_R   0.309670 0.000990 0.032050 -0.503754
O4    O     O_R   0.480650 0.664000 0.464630 -0.506093
O5    O     O_R   0.168330 0.982130 0.939200 -0.518771
O6    O     O_R   0.000140 0.178170 0.944610 -0.503913
O7    O     O_R   0.983010 0.336750 0.948660 -0.503827
O8    O     O_R   0.181800 0.312190 0.959860 -0.481840
O9    O     O_R   0.338500 0.175680 0.956950 -0.506821
O10   O     O_R   0.308050 0.003930 0.950020 -0.501649
O11   O     O_3   0.164130 0.163270 0.992500 -0.234523
O12   O     O_R   0.356040 0.477400 0.534170 -0.502313
O13   O     O_R   0.323930 0.675950 0.455370 -0.498728
O14   O     O_R   0.354700 0.475360 0.451930 -0.477255
O15   O     O_R   0.494470 0.320860 0.448390 -0.524302
O16   O     O_R   0.662580 0.357570 0.460050 -0.502497
O17   O     O_R   0.680900 0.502040 0.551870 -0.479962
O18   O     O_R   0.481990 0.666040 0.546870 -0.499491
O19   O     O_R   0.325370 0.678160 0.544080 -0.533460
O20   O     O_R   0.495910 0.323070 0.537100 -0.525855
O21   O     O_R   0.663920 0.359620 0.542290 -0.511426
O22   O     O_3   0.500010 0.500010 0.500010 -0.232212
O23   O     O_R   0.170070 0.978950 0.027680 -0.499183
O24   O     O_R   0.001760 0.175230 0.026640 -0.500993
O25   O     O_R   0.984760 0.333570 0.037150 -0.530996
O26   O     O_R   0.183410 0.309240 0.041890 -0.503162

loop_
_geom_bond_atom_site_label_1
_geom_bond_atom_site_label_2
_ccdc_geom_bond_type
C133  C137  A    
C126  C127  A    
C104  O17   A    
C151  H40   S    
C16   H65   S    
N19   N20   A    
C55   C56   A    
C132  H31   S    
Cr3   O21   S    
C44   C45   A    
Cr4   O23   S    
C119  C130  A    
C5    C149  A    
N2    N3    A    
C41   C42   A    
C130  C141  A    
C110  C111  A    
C4    H42   S    
C19   C20   A    
H63   N8    S    
C83   N2    A    
C146  O6    A    
C14   N6    S    
C21   C22   A    
C81   H94   S    
Cr2   O12   S    
C5    H43   S    
C45   C47   A    
C21   H70   S    
C134  H27   S    
C50   H3    S    
C77   C78   A    
C68   O1    A    
C14   H56   S    
C43   C44   A    
C37   C38   A    
Cr2   O19   S    
C65   N23   A    
C75   C86   A    
C110  N14   S    
C25   H80   S    
C85   C90   A    
C100  N12   A    
C51   H7    S    
C118  C124  A    
C24   O14   A    
C87   H105  S    
C52   C58   A    
C49   H114  S    
N24   N25   A    
C56   H14   S    
C74   C81   A    
C64   C140  A    
C143  O25   A    
C67   H61   S    
C41   C113  S    
C4    C5    A    
C99   N4    A    
C60   H50   S    
C39   H96   S    
C114  H24   S    
Cr5   O8    S    
H54   N6    S    
H107  N14   S    
C80   O19   A    
C6    H46   S    
C16   N8    S    
C30   C31   A    
C48   H108  S    
Cr1   O22   S    
C91   C98   A    
C8    H48   S    
C118  C120  A    
C40   H99   S    
C20   C21   A    
Cr6   O10   S    
C136  H33   S    
Cr5   O7    S    
C103  C107  A    
C109  C110  A    
C32   H88   S    
C120  H25   S    
C23   H74   S    
C117  H22   S    
C27   H81   S    
C131  H30   S    
C1    O13   A    
C115  C121  A    
C50   H5    S    
C111  C112  A    
C7    C8    A    
C53   C54   A    
C82   C89   S    
C74   C76   A    
C1    C74   S    
C36   C37   A    
C51   N17   S    
C28   H82   S    
C38   C39   A    
Cr3   O16   S    
C22   H71   S    
C66   N22   A    
C20   H69   S    
C67   C72   A    
C10   H51   S    
C101  H21   S    
C38   H95   S    
C79   N8    S    
C96   C98   A    
C111  N16   S    
C32   N11   S    
C140  H36   S    
C35   C144  S    
C148  O10   A    
C92   O12   A    
C135  C142  A    
C7    C12   A    
C65   N1    A    
C59   H19   S    
C91   C92   S    
N4    N12   A    
C48   H110  S    
C115  C117  A    
C124  C146  S    
C105  N13   S    
C127  C129  A    
C46   C68   S    
C29   C30   A    
C44   H103  S    
C45   H104  S    
C129  C139  S    
C17   C18   A    
C41   C47   A    
C102  C107  A    
C103  C105  A    
N1    N21   A    
Cr6   O2    S    
C109  C114  A    
C24   C116  S    
C51   H8    S    
C15   H60   S    
C15   H62   S    
C99   N20   A    
Cr1   O1    S    
C120  C121  A    
C101  C106  A    
C99   C106  S    
C54   C55   A    
C54   H11   S    
C136  C137  A    
Cr3   O22   S    
Cr4   O24   S    
C65   C72   S    
H77   N10   S    
C57   H37   S    
C17   C84   S    
C15   N7    S    
C82   N3    A    
C19   H68   S    
C70   H72   S    
C71   C72   A    
C42   H101  S    
C144  O26   A    
C64   C75   A    
C56   C58   A    
C68   O16   A    
C34   C36   A    
C61   C62   A    
C150  H38   S    
C10   C11   A    
C98   H13   S    
Cr2   O14   S    
C30   H85   S    
C150  C151  A    
C3    C4    A    
Cr3   O15   S    
C146  O7    A    
C26   C94   S    
C87   C88   A    
C101  C102  A    
C86   N15   S    
H16   N18   S    
C59   H17   S    
C135  C136  A    
C118  H26   S    
C52   C53   A    
C147  O9    A    
C26   C27   A    
C71   N5    S    
Cr1   O18   S    
C31   H86   S    
C28   C29   A    
C117  C124  A    
C90   C145  S    
C9    H49   S    
N22   N23   A    
C37   H93   S    
C40   N13   S    
C3    H41   S    
C14   H57   S    
C18   C19   A    
H44   N5    S    
C48   N14   S    
C78   C83   S    
C25   H79   S    
C63   H28   S    
C69   C73   A    
C70   C71   A    
C96   H20   S    
C24   O15   A    
C18   H67   S    
C115  H23   S    
C49   H113  S    
C16   H64   S    
C93   N9    S    
Cr3   O20   S    
C23   N9    S    
C32   H90   S    
C143  O24   A    
C84   C85   A    
C112  C123  S    
C95   C100  S    
C57   C60   A    
C60   C61   A    
C58   H15   S    
C6    H47   S    
C62   C63   A    
C134  C142  A    
C107  C147  S    
C48   H109  S    
C70   C73   A    
C36   H92   S    
C97   C141  A    
C121  C122  S    
C83   N25   A    
C92   O20   A    
Cr6   O9    S    
H111  N15   S    
C125  C126  A    
C42   C43   A    
C131  C132  A    
Cr5   O26   S    
Cr2   O13   S    
C113  C114  A    
C73   C143  S    
H97   N13   S    
H87   N11   S    
C50   N16   S    
C33   C103  S    
C15   H59   S    
C40   H100  S    
C105  C106  A    
C46   C63   A    
C17   C22   A    
C14   H55   S    
C76   H83   S    
C104  O21   A    
C12   H53   S    
C149  C150  A    
C144  O2    A    
Cr4   O6    S    
C7    C85   S    
C13   C64   S    
C128  C140  A    
C94   C95   A    
C138  C139  T    
C108  H1    S    
Cr4   O11   S    
C87   C90   A    
C16   H66   S    
C25   N10   S    
C6    N5    S    
C55   H12   S    
C93   C94   A    
C62   C149  S    
C102  N10   S    
C35   C119  A    
C95   C96   A    
C43   H102  S    
C145  O3    A    
C59   N18   S    
Cr5   O11   S    
H73   N9    S    
C33   C39   A    
C119  N18   S    
Cr1   O17   S    
C80   O18   A    
C6    H45   S    
C100  N19   A    
C59   H18   S    
C104  C109  S    
C91   C93   A    
C80   C125  S    
C75   N11   S    
C86   C116  A    
C88   H2    S    
C2    C13   T    
C35   C108  A    
C40   H98   S    
C61   C66   S    
C53   H10   S    
C8    C9    A    
Cr6   O11   S    
C23   H75   S    
C88   C89   A    
C26   C31   A    
H58   N7    S    
C50   H4    S    
C97   C108  A    
C1    O4    A    
Cr1   O4    S    
C112  C113  A    
C145  O23   A    
C148  O5    A    
C142  C148  S    
C76   C77   A    
Cr2   O22   S    
C79   C81   A    
C78   C79   A    
C66   N21   A    
C47   H106  S    
C69   H39   S    
C32   H89   S    
C67   C69   A    
C23   H76   S    
C126  H32   S    
C97   N6    S    
C135  H34   S    
C33   C34   A    
H6    N17   S    
C133  H29   S    
C128  N17   S    
C46   C57   A    
C34   H91   S    
C84   C89   A    
C9    C10   A    
C49   N15   S    
Cr5   O25   S    
C11   C12   A    
H115  N16   S    
C137  C138  S    
C147  O8    A    
C3    C151  A    
C127  H35   S    
C52   C130  S    
C77   N7    S    
C82   N24   A    
C11   H52   S    
C125  C132  A    
C133  C134  A    
Cr4   O5    S    
Cr6   O3    S    
C25   H78   S    
C116  C128  A    
C27   C28   A    
C2    C141  S    
C29   H84   S    
C51   H9    S    
C122  C123  T    
C129  C131  A    
C49   H112  S    
