data_mof_unit_17980.cif
_audit_creation_date              2012-12-10T17:27:55-0500
_audit_creation_method            fapswitch 2.2
_symmetry_space_group_name_H-M    P1
_symmetry_Int_Tables_number       1
_space_group_crystal_system       triclinic
_cell_length_a                    10.629341
_cell_length_b                    11.994229
_cell_length_c                    12.837025
_cell_angle_alpha                 93.816879
_cell_angle_beta                  90.171992
_cell_angle_gamma                 86.511894
_cell_volume                      1629.94573612

loop_
_atom_site_label
_atom_site_type_symbol
_atom_type_description
_atom_site_fract_x
_atom_site_fract_y
_atom_site_fract_z
_atom_type_partial_charge
C1    C     C_R   0.495028 0.522743 0.700520 0.911365
C2    C     C_R   0.414144 0.627505 0.863406 0.153515
C3    C     C_R   0.544781 0.452926 0.868140 -0.306403
C4    C     C_R   0.739498 0.499970 0.497050 0.867439
C5    C     C_R   0.529248 0.454551 0.974536 0.189185
C6    C     C_R   0.457512 0.544404 0.026252 0.142011
C7    C     C_R   0.443935 0.547446 0.132943 -0.252304
C8    C     C_R   0.569977 0.371430 0.137416 -0.217684
C9    C     C_R   0.583768 0.367425 0.029967 -0.197516
C10   C     C_R   0.383656 0.953465 0.401412 -0.320414
C11   C     C_R   0.394813 0.837393 0.410979 0.045040
C12   C     C_R   0.938140 0.435395 0.409336 0.098983
C13   C     C_R   0.549867 0.858907 0.542867 -0.009604
C14   C     C_R   0.542004 0.976142 0.536001 0.088272
C15   C     C_R   0.457688 0.023882 0.464187 0.089811
C16   C     C_R   0.501010 0.477448 0.299633 0.847961
C17   C     C_R   0.449906 0.141119 0.457275 -0.039383
C18   C     C_R   0.605079 0.162587 0.589092 0.037827
C19   C     C_R   0.616046 0.046542 0.598778 -0.313845
C20   C     C_R   0.260522 0.499241 0.497393 0.874522
C21   C     C_R   0.876722 0.375019 0.327650 -0.175515
C22   C     C_R   0.946198 0.313971 0.248859 -0.131594
C23   C     C_R   0.871677 0.499872 0.489580 -0.096640
C24   C     C_R   0.077204 0.312892 0.249435 -0.132238
C25   C     C_R   0.139168 0.372924 0.328758 -0.193684
C26   C     C_R   0.070083 0.434333 0.409912 0.094016
C27   C     C_R   0.931517 0.565394 0.565677 -0.212371
C28   C     C_R   0.060100 0.564349 0.566264 -0.188834
C29   C     C_R   0.128361 0.497883 0.490702 -0.103187
C30   C     C_R   0.502628 0.462963 0.188312 -0.041388
C31   C     C_R   0.486395 0.537534 0.812179 -0.108267
C32   C     C_R   0.401346 0.630490 0.970971 -0.237355
H1    H     H_    0.878466 0.615287 0.626069 0.154337
H2    H     H_    0.775160 0.375753 0.322923 0.144329
H3    H     H_    0.898163 0.268276 0.186656 0.135232
H4    H     H_    0.130969 0.266305 0.187696 0.141045
H5    H     H_    0.240812 0.371926 0.324805 0.143128
H6    H     H_    0.106836 0.613789 0.626904 0.180065
H7    H     H_    0.389997 0.616977 0.173340 0.148574
H8    H     H_    0.615543 0.305888 0.180841 0.152245
H9    H     H_    0.345634 0.698869 0.011116 0.163186
H10   H     H_    0.638185 0.297742 0.990625 0.139224
H11   H     H_    0.600773 0.384244 0.828411 0.160582
H12   H     H_    0.385599 0.179411 0.402591 0.125033
H13   H     H_    0.662191 0.216819 0.637538 0.131507
H14   H     H_    0.317903 0.987705 0.345501 0.148282
H15   H     H_    0.681732 0.012305 0.654734 0.150645
H16   H     H_    0.337744 0.783142 0.362509 0.128869
H17   H     H_    0.614075 0.820646 0.597623 0.129685
I1    I     I_    0.311816 0.756785 0.787119 -0.395829
N1    N     N_R   0.523130 0.207800 0.519340 -0.102873
N2    N     N_R   0.476870 0.792180 0.480660 -0.098822
O1    O     O_R   0.506170 0.421690 0.658830 -0.622697
O2    O     O_R   0.491330 0.609320 0.646410 -0.593271
O3    O     O_R   0.690660 0.406170 0.506210 -0.626304
O4    O     O_R   0.675810 0.593790 0.493790 -0.616329
O5    O     O_R   0.508670 0.390680 0.353590 -0.640881
O6    O     O_R   0.493830 0.578310 0.341170 -0.622255
O7    O     O_R   0.324190 0.406210 0.506210 -0.618960
O8    O     O_R   0.309340 0.593830 0.493790 -0.608366
Zn1   Zn    Zn3+2 0.509910 0.374720 0.508290 0.941936
Zn2   Zn    Zn3+2 0.490090 0.625280 0.491710 0.966964

loop_
_geom_bond_atom_site_label_1
_geom_bond_atom_site_label_2
_ccdc_geom_bond_type
C10   H14   S    
C6    C32   A    
C1    O2    A    
O5    Zn1   S    
C6    C7    A    
C21   H2    S    
C23   C27   A    
C20   O8    A    
C13   N2    A    
C8    H8    S    
N1    Zn1   S    
C28   H6    S    
C20   C29   S    
C8    C30   A    
C17   N1    A    
C9    H10   S    
C17   H12   S    
C7    C30   A    
C16   O6    A    
C21   C22   A    
C4    O4    A    
C20   O7    A    
C5    C9    A    
C22   H3    S    
C12   C23   A    
C3    H11   S    
C11   H16   S    
C24   H4    S    
O6    Zn2   S    
C13   H17   S    
C3    C31   A    
O3    Zn1   S    
C2    C32   A    
C28   C29   A    
C25   C26   A    
C18   N1    A    
C22   C24   A    
C16   O5    A    
C4    O3    A    
C5    C6    A    
O4    Zn2   S    
O7    Zn1   S    
C10   C11   A    
C32   H9    S    
C16   C30   S    
C12   C21   A    
C18   H13   S    
C1    C31   S    
C24   C25   A    
C26   C29   A    
O8    Zn2   S    
C18   C19   A    
C19   H15   S    
C27   C28   A    
C15   C17   A    
C4    C23   S    
C7    H7    S    
C14   C15   A    
C8    C9    A    
C1    O1    A    
C11   N2    A    
C2    I1    S    
C25   H5    S    
C10   C15   A    
C13   C14   A    
O1    Zn1   S    
C14   C19   A    
N2    Zn2   S    
C27   H1    S    
C12   C26   A    
C2    C31   A    
C3    C5    A    
O2    Zn2   S    
