data_mof_unit_48416.cif
_audit_creation_date              2013-03-05T15:45:55-0500
_audit_creation_method            fapswitch 2.2
_symmetry_space_group_name_H-M    P1
_symmetry_Int_Tables_number       1
_space_group_crystal_system       triclinic
_cell_length_a                    8.31231
_cell_length_b                    15.015701
_cell_length_c                    18.97076
_cell_angle_alpha                 96.179425
_cell_angle_beta                  95.122492
_cell_angle_gamma                 98.251523
_cell_volume                      2316.47332493

loop_
_atom_site_label
_atom_site_type_symbol
_atom_site_description
_atom_site_fract_x
_atom_site_fract_y
_atom_site_fract_z
_atom_type_partial_charge
P1    P     P_3+3 0.990670 0.707470 0.561860 0.510579
O1    O     O_2   0.164990 0.721870 0.541490 -0.320210
O2    O     O_3   0.893010 0.608480 0.539150 -0.413949
O3    O     O_3   0.389100 0.667490 0.413860 -0.393601
O4    O     O_2   0.305839 0.825619 0.458877 -0.371229
O5    O     O_3   0.020853 0.737282 0.654455 -0.517491
O6    O     O_3   0.380204 0.812173 0.327915 -0.504807
H1    H     H_    0.296141 0.677341 0.290156 0.172064
C1    C     C_3   0.328476 0.755926 0.203791 -0.883455
H2    H     H_    0.205403 0.775965 0.201076 0.322582
H3    H     H_    0.414637 0.811971 0.188444 0.243446
P2    P     P_3+3 0.340140 0.430100 0.338890 0.465165
P3    P     P_3+3 0.926763 0.618540 0.285291 0.444081
O7    O     O_2   0.172070 0.457600 0.329050 -0.387034
O8    O     O_3   0.964370 0.622050 0.377340 -0.363695
O9    O     O_2   0.054378 0.568375 0.250162 -0.428678
O10   O     O_3   0.305764 0.312192 0.319847 -0.564023
O11   O     O_3   0.971565 0.730335 0.267047 -0.532378
C2    C     C_3   0.883132 0.783952 0.309958 0.257925
H4    H     H_    0.954785 0.805972 0.362684 0.139157
H5    H     H_    0.764722 0.746366 0.320786 -0.069060
C3    C     C_3   0.843641 0.866098 0.273603 0.411196
C4    C     C_3   0.758647 0.346262 0.314595 0.446123
H6    H     H_    0.641124 0.363445 0.330405 0.096566
H7    H     H_    0.857674 0.404774 0.330816 0.121875
C5    C     C_3   0.745121 0.324133 0.233921 -1.004691
H8    H     H_    0.647289 0.265457 0.216111 0.267877
H9    H     H_    0.715584 0.382885 0.207584 0.223714
H10   H     H_    0.862997 0.307007 0.217427 0.268573
Ba1   Ba    Ba6+2 0.161750 0.544670 0.467760 1.573900
C6    C     C_3   0.063280 0.664919 0.688520 0.208386
H11   H     H_    0.161407 0.636793 0.662187 0.070845
H12   H     H_    0.955526 0.611250 0.686411 0.091767
C7    C     C_3   0.128477 0.698943 0.766420 0.213587
H13   H     H_    0.241547 0.748757 0.768773 0.146187
H14   H     H_    0.159537 0.641756 0.793945 0.013972
C8    C     C_3   0.242100 0.271992 0.376502 0.366006
H15   H     H_    0.111527 0.278869 0.375463 0.106975
H16   H     H_    0.308658 0.301263 0.429172 0.133661
C9    C     C_3   0.258193 0.172296 0.365372 -0.795353
H17   H     H_    0.220105 0.144627 0.308852 0.286494
H18   H     H_    0.181489 0.134037 0.400071 0.249949
H19   H     H_    0.387124 0.163816 0.378035 0.235461
P4    P     P_3+3 0.819620 0.292520 0.438080 0.456499
O12   O     O_2   0.645300 0.278070 0.458480 -0.376326
O13   O     O_3   0.917280 0.391520 0.460790 -0.407222
O14   O     O_3   0.421200 0.332510 0.586090 -0.353438
O15   O     O_3   0.792788 0.269482 0.344981 -0.553337
P5    P     P_3+3 0.865351 0.380481 0.714449 0.452305
O16   O     O_3   0.383620 0.545480 0.584560 -0.366431
O17   O     O_3   0.845920 0.377940 0.622610 -0.398657
O18   O     O_2   0.718010 0.420635 0.741851 -0.362788
O19   O     O_3   0.832936 0.265906 0.729374 -0.546763
Ba2   Ba    Ba6+2 0.648430 0.455320 0.532180 1.568762
P6    P     P_3+3 0.430260 0.785062 0.414083 0.467753
C10   C     C_3   0.381854 0.735786 0.278408 0.485534
H20   H     H_    0.505740 0.717022 0.279032 -0.015977
H21   H     H_    0.323975 0.694330 0.165392 0.201829
O20   O     O_3   0.426680 0.454510 0.415380 -0.392204
C11   C     C_3   0.636900 0.726760 0.655299 0.443287
H22   H     H_    0.745505 0.708975 0.684734 0.161028
H23   H     H_    0.626567 0.697430 0.598522 0.063648
C12   C     C_3   0.657742 0.829328 0.659086 -0.784563
H24   H     H_    0.644769 0.860209 0.713747 0.287812
H25   H     H_    0.780691 0.856163 0.645130 0.233103
H26   H     H_    0.565144 0.848139 0.620284 0.252756
P7    P     P_3+3 0.466703 0.575828 0.672683 0.458106
O21   O     O_2   0.638220 0.542340 0.670930 -0.356957
O22   O     O_3   0.498619 0.694574 0.687551 -0.574199
H27   H     H_    0.743265 0.892243 0.300443 0.034989
C13   C     C_3   0.841570 0.210338 0.665094 0.510608
H28   H     H_    0.744177 0.217454 0.623357 0.178835
H29   H     H_    0.957582 0.229583 0.643628 0.036059
C14   C     C_3   0.828919 0.110675 0.676531 -0.967103
H30   H     H_    0.879784 0.072580 0.632952 0.245973
H31   H     H_    0.896963 0.102290 0.727711 0.267078
H32   H     H_    0.700410 0.079543 0.674932 0.296412
P8    P     P_3+3 0.380259 0.213945 0.590529 0.499709
C15   C     C_3   0.411312 0.160926 0.732168 0.659286
O23   O     O_2   0.481461 0.177766 0.532437 -0.375119
O24   O     O_3   0.486754 0.179563 0.668338 -0.502625
H33   H     H_    0.354271 0.047155 0.795381 0.068683
C16   C     C_3   0.412154 0.059703 0.746008 0.169214
H34   H     H_    0.537750 0.044455 0.755199 0.091467
C17   C     C_R   0.643930 0.829415 0.452806 0.153743
H35   H     H_    0.676951 0.695733 0.476357 0.182078
H36   H     H_    0.512310 0.966951 0.399963 0.195179
C18   C     C_R   0.890213 0.791484 0.514355 0.266969
C19   C     C_R   0.072312 0.233098 0.522381 -0.542149
C20   C     C_R   0.166968 0.171025 0.548314 0.227519
C21   C     C_R   0.108828 0.078270 0.532285 -0.249451
C22   C     C_R   0.950006 0.044960 0.498005 0.070537
C23   C     C_R   0.857294 0.109233 0.470433 0.005605
C24   C     C_R   0.880327 0.949976 0.490817 0.079757
C25   C     C_R   0.717658 0.921775 0.457135 -0.020622
C26   C     C_R   0.633711 0.986001 0.427705 -0.170348
C27   C     C_R   0.703665 0.076706 0.432590 -0.038140
C28   C     C_R   0.964002 0.882448 0.518474 -0.209548
C29   C     C_R   0.732950 0.765879 0.479882 -0.497258
C30   C     C_R   0.921121 0.204247 0.481303 0.211789
H37   H     H_    0.086451 0.898031 0.544012 0.201636
H38   H     H_    0.120286 0.304703 0.531490 0.180350
H39   H     H_    0.191228 0.033340 0.545131 0.221138
H40   H     H_    0.633620 0.121143 0.406818 0.158985
C31   C     C_R   0.610780 0.534993 0.297752 -0.550366
C32   C     C_R   0.456830 0.486034 0.272800 0.278915
C33   C     C_R   0.404149 0.472876 0.198206 0.057712
C34   C     C_R   0.509253 0.513215 0.150951 -0.029931
C35   C     C_R   0.665021 0.559781 0.177974 -0.337228
C36   C     C_R   0.717150 0.567554 0.250601 0.274003
C37   C     C_R   0.445276 0.588293 0.042482 -0.182784
C38   C     C_R   0.384474 0.584047 0.970848 -0.130171
C39   C     C_R   0.336483 0.499846 0.929137 0.158253
C40   C     C_R   0.357429 0.420203 0.958798 -0.185584
C41   C     C_R   0.421833 0.424629 0.029963 -0.162917
C42   C     C_R   0.459514 0.508427 0.073266 0.165538
C43   C     C_R   0.115257 0.455955 0.827072 -0.252955
C44   C     C_R   0.064671 0.447040 0.753591 0.274476
C45   C     C_R   0.335155 0.520392 0.733231 0.280501
C46   C     C_R   0.385367 0.528569 0.806084 -0.285451
C47   C     C_R   0.276958 0.495360 0.853186 0.025437
C48   C     C_R   0.176427 0.478155 0.707147 -0.515228
H41   H     H_    0.508287 0.560919 0.826140 0.170504
H42   H     H_    0.373325 0.646283 0.948042 0.144752
H43   H     H_    0.479667 0.653843 0.074041 0.130369
H44   H     H_    0.326270 0.354898 0.926522 0.125050
H45   H     H_    0.440619 0.362658 0.051448 0.144190
H46   H     H_    0.031991 0.428957 0.863060 0.146419
H47   H     H_    0.747439 0.588110 0.142133 0.168043
H48   H     H_    0.139201 0.470189 0.650403 0.172838
H49   H     H_    0.652419 0.543017 0.354110 0.177675
S1    S     S_3+6 0.984007 0.748951 0.815649 -0.011180
O25   O     O_2   0.056567 0.774505 0.891822 -0.271169
O26   O     O_2   0.945988 0.832634 0.784879 -0.248579
O27   O     O_3   0.812338 0.673707 0.812942 -0.559745
H50   H     H_    0.732068 0.708949 0.833530 0.362371
C49   C     C_3   0.234412 0.179808 0.731016 -0.440734
C50   C     C_3   0.219664 0.279992 0.737147 -0.873983
H51   H     H_    0.120925 0.288580 0.771088 0.269167
H52   H     H_    0.327821 0.327433 0.762811 0.249618
H53   H     H_    0.193176 0.301500 0.684058 0.245987
H54   H     H_    0.160385 0.144367 0.682580 0.229447
H55   H     H_    0.178961 0.151444 0.776747 0.179686
C51   C     C_3   0.514395 0.221919 0.799302 -0.397407
C52   C     C_3   0.649052 0.184313 0.842634 -0.893958
H56   H     H_    0.594659 0.131144 0.873664 0.240369
H57   H     H_    0.734820 0.156047 0.808762 0.296820
H58   H     H_    0.720272 0.239888 0.881314 0.267988
H59   H     H_    0.570496 0.286236 0.782460 0.279923
H60   H     H_    0.432060 0.240373 0.839838 0.177703
S2    S     S_3+6 0.315502 0.974372 0.677579 -0.063645
O28   O     O_2   0.330627 0.883730 0.701727 -0.269652
O29   O     O_2   0.137343 0.981116 0.663963 -0.342206
O30   O     O_3   0.414027 0.985595 0.604712 -0.562951
H61   H     H_    0.375569 0.928710 0.572770 0.369457
C53   C     C_3   0.239604 0.416332 0.168800 -0.303382
C54   C     C_3   0.248185 0.314564 0.156410 -0.839507
H62   H     H_    0.375023 0.300308 0.166827 0.256398
H63   H     H_    0.169966 0.277373 0.191538 0.280051
H64   H     H_    0.201268 0.287119 0.100488 0.236174
H65   H     H_    0.144124 0.426959 0.203991 0.238437
H66   H     H_    0.191243 0.439109 0.118499 0.183302
S3    S     S_3+6 0.014349 0.956204 0.286338 -0.054109
O31   O     O_2   0.948939 0.044136 0.283418 -0.313494
O32   O     O_2   0.109959 0.957968 0.357726 -0.316369
O33   O     O_3   0.137926 0.943171 0.221712 -0.521072
H67   H     H_    0.238987 0.986600 0.238255 0.368243
C55   C     C_3   0.783325 0.838696 0.193744 -0.351533
C56   C     C_3   0.713204 0.914237 0.159118 -0.764243
H68   H     H_    0.623362 0.942205 0.191727 0.244750
H69   H     H_    0.812408 0.969738 0.152745 0.303927
H70   H     H_    0.650748 0.886711 0.105375 0.235388
H71   H     H_    0.884538 0.819009 0.163940 0.252640
H72   H     H_    0.686697 0.778298 0.188011 0.145765

loop_
_geom_bond_atom_site_label_1
_geom_bond_atom_site_label_2
_geom_bond_distance
_ccdc_geom_bond_type
P2    C32   1.851544 S    
C49   H54   1.098141 S    
C12   H25   1.109061 S    
S3    O31   1.502817 D    
C54   H62   1.110470 S    
C19   H38   1.081471 S    
C17   C25   1.424149 A    
C56   H68   1.110560 S    
C25   C26   1.402935 A    
O6    P6    1.755389 S    
C31   C36   1.390057 A    
H1    C10   1.103827 S    
C52   H56   1.110599 S    
O27   H50   0.990539 S    
C31   H49   1.082404 S    
P8    C20   1.872802 S    
C55   H72   1.110643 S    
Ba1   Ba2   4.548315 S    
C5    H8    1.110373 S    
O16   Ba2   2.936287 S    
C14   H31   1.107774 S    
P3    O11   1.745024 S    
C11   C12   1.518069 S    
C53   C54   1.533766 S    
S3    O32   1.503485 D    
C37   C38   1.398467 A    
C7    H13   1.108320 S    
C8    C9    1.515910 S    
C40   H44   1.083080 S    
O2    Ba2   2.825640 S    
P8    O23   1.544384 D    
C4    C5    1.521324 S    
Ba2   O21   2.823881 S    
C32   C33   1.427464 A    
C24   C28   1.427947 A    
C41   C42   1.405216 A    
C41   H45   1.080919 S    
C34   C35   1.404512 A    
C11   H23   1.109946 S    
P1    O1    1.524380 D    
C44   C48   1.402758 A    
S2    O30   1.680068 S    
C43   C47   1.411334 A    
P1    Ba1   3.420024 S    
C51   H60   1.113135 S    
P2    O20   1.542997 S    
C9    H19   1.105568 S    
C16   H34   1.103379 S    
S1    O25   1.502590 D    
P5    O17   1.731096 S    
C14   H32   1.099249 S    
P2    O10   1.745106 S    
C37   H43   1.082018 S    
C4    H6    1.104017 S    
C6    H12   1.110309 S    
C37   C42   1.404429 A    
C1    H2    1.105461 S    
C33   C53   1.526852 S    
C46   H41   1.083053 S    
C49   C50   1.519663 S    
C3    C55   1.544928 S    
P1    C18   1.874468 S    
C9    H18   1.105023 S    
O5    C6    1.393957 S    
Ba1   O16   2.751208 S    
C12   H26   1.104570 S    
C53   H66   1.109238 S    
C54   H63   1.109950 S    
C26   C27   1.391984 A    
C56   H69   1.109672 S    
O6    C10   1.404554 S    
O7    Ba1   2.823648 S    
S3    O33   1.681504 S    
C38   C39   1.402606 A    
C52   H57   1.100577 S    
P4    O13   1.583582 S    
C40   C41   1.398245 A    
C16   S2    1.769904 S    
Ba2   O20   2.750612 S    
C55   H71   1.111399 S    
C14   H30   1.104298 S    
C19   C30   1.403757 A    
P7    O21   1.580260 D    
C27   H40   1.074324 S    
C2    C3    1.537480 S    
C21   C22   1.415301 A    
C15   O24   1.447763 S    
O11   C2    1.409549 S    
P1    O5    1.751777 S    
C11   H22   1.099734 S    
P1    O2    1.583455 S    
P6    C17   1.860072 S    
O2    Ba1   2.935570 S    
C8    H15   1.103559 S    
C17   C29   1.400654 A    
C15   C51   1.588642 S    
S2    O28   1.500403 D    
P5    O18   1.546589 D    
Ba1   O20   2.937132 S    
O13   Ba2   2.936288 S    
C22   C24   1.447474 A    
C6    C7    1.534156 S    
C1    C10   1.520058 S    
O10   C8    1.396121 S    
H35   C29   1.081262 S    
C1    H3    1.105857 S    
C23   C30   1.435035 A    
O30   H61   0.987225 S    
C50   H52   1.102777 S    
O14   Ba2   2.786635 S    
C9    H17   1.108262 S    
C15   C49   1.535691 S    
P2    O7    1.514172 D    
O12   Ba2   2.865614 S    
C54   H64   1.110511 S    
P3    O8    1.740060 S    
O3    P6    1.748881 S    
C35   H47   1.083701 S    
O33   H67   0.990474 S    
C56   H70   1.110414 S    
C10   H20   1.105353 S    
C33   C34   1.427812 A    
O19   C13   1.414972 S    
C23   C27   1.402312 A    
C52   H58   1.110895 S    
P4    O12   1.524608 D    
O8    Ba1   2.730931 S    
C13   H29   1.093042 S    
C39   C40   1.401512 A    
O16   P7    1.737500 S    
C45   C48   1.401264 A    
C55   C56   1.529599 S    
C4    O15   1.396350 S    
C51   H59   1.102732 S    
P2    Ba1   3.407254 S    
O4    P6    1.545620 D    
C6    H11   1.104291 S    
P3    C36   1.832742 S    
C21   H39   1.059199 S    
C51   C52   1.537705 S    
C50   H53   1.103607 S    
C53   H65   1.099578 S    
C13   C14   1.525279 S    
C45   C46   1.394709 A    
H36   C26   1.080287 S    
C38   H42   1.083436 S    
C28   H37   1.069873 S    
C31   C32   1.396059 A    
C5    H9    1.106052 S    
Ba1   O13   2.824986 S    
O1    Ba1   2.865025 S    
O17   Ba2   2.731602 S    
C34   C42   1.485896 S    
C2    H4    1.109264 S    
C13   H28   1.105575 S    
C8    H16   1.111110 S    
C35   C36   1.394241 A    
C15   C16   1.570933 S    
C3    S3    1.794386 S    
P4    C30   1.890116 S    
P8    O24   1.814099 S    
C20   C21   1.398306 A    
C11   O22   1.399620 S    
S1    O27   1.681385 S    
P5    O19   1.760133 S    
C22   C23   1.431466 A    
C48   H48   1.082138 S    
C7    H14   1.101279 S    
S2    O29   1.500152 D    
C49   H55   1.114037 S    
C24   C25   1.427945 A    
C43   H46   1.083027 S    
O3    Ba1   2.787246 S    
C18   C29   1.390425 A    
C50   H51   1.100788 S    
C7    S1    1.785017 S    
C12   H24   1.110287 S    
P5    C44   1.854859 S    
P4    Ba2   3.420542 S    
C4    H7    1.110483 S    
C39   C47   1.472294 S    
C1    H21   1.108004 S    
C5    H10   1.110774 S    
S1    O26   1.502828 D    
H33   C16   1.112087 S    
P3    O9    1.544112 D    
C46   C47   1.403515 A    
O14   P8    1.776509 S    
P7    O22   1.752657 S    
C19   C20   1.403548 A    
C43   C44   1.406029 A    
P7    C45   1.837604 S    
C3    H27   1.111932 S    
C18   C28   1.405686 A    
P4    O15   1.750620 S    
C2    H5    1.109548 S    
