data_mof_unit_17102.cif
_audit_creation_date              2012-12-10T19:09:36-0500
_audit_creation_method            fapswitch 2.2
_symmetry_space_group_name_H-M    P1
_symmetry_Int_Tables_number       1
_space_group_crystal_system       triclinic
_cell_length_a                    9.53983
_cell_length_b                    10.867088
_cell_length_c                    17.118286
_cell_angle_alpha                 89.039725
_cell_angle_beta                  93.801926
_cell_angle_gamma                 90.265643
_cell_volume                      1770.49031995

loop_
_atom_site_label
_atom_site_type_symbol
_atom_type_description
_atom_site_fract_x
_atom_site_fract_y
_atom_site_fract_z
_atom_type_partial_charge
C1    C     C_R   0.499669 0.262731 0.500989 0.810502
C2    C     C_R   0.657788 0.497370 0.779036 -0.210448
C3    C     C_R   0.588969 0.488870 0.141607 -0.158461
C4    C     C_R   0.596395 0.490149 0.222913 -0.242249
C5    C     C_R   0.457402 0.493842 0.098918 0.386887
C6    C     C_R   0.473428 0.497013 0.263221 -0.023738
C7    C     C_R   0.342432 0.499654 0.220756 -0.222226
C8    C     C_R   0.334884 0.498319 0.139226 -0.196936
C9    C     C_R   0.620919 0.062795 0.509786 0.050767
C10   C     C_R   0.497677 0.130202 0.502342 -0.078964
C11   C     C_R   0.369808 0.064165 0.495240 -0.215319
C12   C     C_R   0.517322 0.498649 0.650871 0.805949
C13   C     C_R   0.370268 0.935079 0.494644 -0.215326
C14   C     C_R   0.498627 0.870119 0.500533 -0.118993
C15   C     C_R   0.621649 0.938917 0.507852 0.109615
C16   C     C_3   0.778051 0.931977 0.515398 0.288423
C17   C     C_3   0.776764 0.073640 0.519106 -0.522520
C18   C     C_R   0.065825 0.524703 0.432748 0.261726
C19   C     C_R   0.081738 0.463708 0.564500 -0.093699
C20   C     C_R   0.933102 0.463956 0.564559 -0.082405
C21   C     C_R   0.918398 0.523060 0.432431 0.256653
C22   C     C_3   0.906171 0.636686 0.382657 -0.515380
C23   C     C_R   0.500088 0.737388 0.499988 0.820608
C24   C     C_3   0.065394 0.640352 0.384631 -0.509182
C25   C     C_R   0.482677 0.500092 0.349105 0.792410
C26   C     C_R   0.526585 0.498173 0.736723 -0.022952
C27   C     C_R   0.403366 0.498505 0.777127 -0.239486
C28   C     C_R   0.410939 0.497570 0.858448 -0.155843
C29   C     C_R   0.542755 0.496343 0.901029 0.385659
C30   C     C_R   0.665363 0.496442 0.860603 -0.194900
Cu1   Cu    Cu3+1 0.640670 0.499980 0.500000 0.954674
Cu2   Cu    Cu3+1 0.359330 0.500020 0.500000 0.936928
H1    H     H_    0.698664 0.485097 0.254054 0.152196
H2    H     H_    0.270516 0.886983 0.489096 0.149581
H3    H     H_    0.821330 0.896246 0.461549 0.040372
H4    H     H_    0.813493 0.110873 0.577052 0.216307
H5    H     H_    0.821185 0.119581 0.467718 0.167193
H6    H     H_    0.142712 0.435423 0.617092 0.141014
H7    H     H_    0.884279 0.436070 0.617219 0.137235
H8    H     H_    0.856825 0.618700 0.323400 0.191790
H9    H     H_    0.859399 0.713853 0.412908 0.204561
H10   H     H_    0.106321 0.626564 0.326259 0.193316
H11   H     H_    0.686189 0.483929 0.112601 0.150147
H12   H     H_    0.112266 0.719576 0.417414 0.199028
H13   H     H_    0.767225 0.495727 0.892576 0.137034
H14   H     H_    0.754484 0.497392 0.749265 0.149106
H15   H     H_    0.245836 0.502533 0.250322 0.149910
H16   H     H_    0.313599 0.497821 0.887555 0.150285
H17   H     H_    0.233117 0.501159 0.107190 0.137181
H18   H     H_    0.300731 0.499477 0.746021 0.151531
H19   H     H_    0.269867 0.111465 0.489680 0.161553
N1    N     N_2   0.556997 0.495301 0.984013 -0.267955
N2    N     N_2   0.443268 0.494383 0.015947 -0.268399
N3    N     N_R   0.147870 0.500930 0.499500 -0.186357
N4    N     N_R   0.851960 0.500890 0.499500 -0.181018
O1    O     O_R   0.618810 0.319640 0.500000 -0.577301
O2    O     O_R   0.381230 0.319680 0.499990 -0.587354
O3    O     O_R   0.631790 0.498830 0.613930 -0.587393
O4    O     O_R   0.394210 0.498870 0.613920 -0.595045
O5    O     O_R   0.618770 0.680320 0.500010 -0.562384
O6    O     O_R   0.381190 0.680360 0.500000 -0.588150
O7    O     O_R   0.605790 0.501130 0.386080 -0.588455
O8    O     O_R   0.368210 0.501170 0.386070 -0.585619
O9    O     O_3   0.825085 0.874878 0.587078 -0.540676
C31   C     C_3   0.968309 0.844217 0.584730 0.090533
H20   H     H_    0.033053 0.928101 0.575309 0.132186
H21   H     H_    0.983619 0.777429 0.537511 0.140929
C32   C     C_3   0.019226 0.783622 0.662095 -0.759505
H22   H     H_    0.956494 0.699300 0.672676 0.243584
H23   H     H_    0.131458 0.757696 0.660322 0.201783
H24   H     H_    0.008316 0.848338 0.710830 0.245480

loop_
_geom_bond_atom_site_label_1
_geom_bond_atom_site_label_2
_ccdc_geom_bond_type
Cu1   O5    S    
C14   C23   S    
C5    C8    A    
C6    C7    A    
C17   H4    S    
C1    O2    A    
Cu1   O1    S    
C18   C21   A    
C24   H10   S    
C9    C10   A    
C30   H13   S    
Cu1   Cu2   S    
C31   H21   S    
C27   H18   S    
C23   O6    A    
C2    C30   A    
C31   C32   S    
C12   O3    A    
O9    C31   S    
C19   C20   A    
C9    C15   A    
C20   H7    S    
C22   H8    S    
C13   H2    S    
C2    C26   A    
C17   H5    S    
C21   C22   S    
C2    H14   S    
C11   C13   A    
Cu1   O7    S    
C3    H11   S    
C26   C27   A    
C29   C30   A    
Cu2   O2    S    
C32   H24   S    
C18   C24   S    
C19   N3    A    
Cu2   N3    S    
C28   C29   A    
C19   H6    S    
C1    O1    A    
Cu2   O6    S    
C25   O7    A    
C20   N4    A    
C16   H3    S    
C4    H1    S    
C23   O5    A    
C24   H12   S    
C22   C24   S    
C6    C25   S    
C11   H19   S    
C10   C11   A    
C18   N3    A    
C3    C4    A    
C22   H9    S    
C16   C17   S    
C7    C8    A    
N1    N2    D    
Cu1   O3    S    
C4    C6    A    
C31   H20   S    
C25   O8    A    
C9    C17   S    
C27   C28   A    
C21   N4    A    
C32   H23   S    
C14   C15   A    
C28   H16   S    
C5    N2    S    
C16   O9    S    
Cu2   O4    S    
Cu1   N4    S    
C13   C14   A    
C12   O4    A    
C8    H17   S    
C1    C10   S    
C15   C16   S    
Cu2   O8    S    
C12   C26   S    
C32   H22   S    
C3    C5    A    
C29   N1    S    
C7    H15   S    
