data_mof_unit_66598.cif
_audit_creation_date              2012-12-10T18:19:56-0500
_audit_creation_method            fapswitch 2.2
_symmetry_space_group_name_H-M    P1
_symmetry_Int_Tables_number       1
_space_group_crystal_system       triclinic
_cell_length_a                    10.78079
_cell_length_b                    10.634478
_cell_length_c                    9.510177
_cell_angle_alpha                 89.169471
_cell_angle_beta                  88.878408
_cell_angle_gamma                 85.987718
_cell_volume                      1087.34861804

loop_
_atom_site_label
_atom_site_type_symbol
_atom_type_description
_atom_site_fract_x
_atom_site_fract_y
_atom_site_fract_z
_atom_type_partial_charge
C1    C     C_R   0.506157 0.259472 0.500838 0.807319
C2    C     C_R   0.493842 0.740528 0.499162 0.807319
C3    C     C_3   0.396771 0.969136 0.572170 -0.213747
C4    C     C_3   0.603229 0.030863 0.427830 -0.213746
C5    C     C_3   0.536116 0.604422 0.045664 0.100904
C6    C     C_3   0.463884 0.395578 0.954336 0.100905
C7    C     C_3   0.426371 0.590227 0.950257 0.192924
C8    C     C_3   0.573629 0.409773 0.049743 0.192924
C9    C     C_3   0.610426 0.514140 0.945940 -0.184245
C10   C     C_3   0.389574 0.485860 0.054060 -0.184246
C11   C     C_R   0.259665 0.500776 0.501743 0.812143
C12   C     C_R   0.740335 0.499223 0.498257 0.812142
C13   C     C_3   0.038119 0.449465 0.622692 0.141719
C14   C     C_3   0.961881 0.550534 0.377308 0.141719
C15   C     C_3   0.967314 0.381888 0.510479 0.008674
C16   C     C_3   0.032685 0.618112 0.489521 0.008673
C17   C     C_3   0.877203 0.499145 0.493723 -0.147526
C18   C     C_3   0.122797 0.500854 0.506277 -0.147527
C19   C     C_3   0.947275 0.567681 0.606507 -0.240320
C20   C     C_3   0.052725 0.432319 0.393493 -0.240320
C21   C     C_3   0.505318 0.036969 0.634724 -0.173615
C22   C     C_3   0.494682 0.963031 0.365276 -0.173616
C23   C     C_3   0.600145 0.944436 0.559640 0.199124
C24   C     C_3   0.399855 0.055564 0.440360 0.199124
C25   C     C_3   0.493007 0.877945 0.497663 -0.059052
C26   C     C_3   0.506993 0.122055 0.502337 -0.059052
Cu1   Cu    Cu3+1 0.500030 0.499990 0.643150 0.955858
Cu2   Cu    Cu3+1 0.499970 0.500010 0.356850 0.955858
H1    H     H_    0.903193 0.625240 0.692885 0.161239
H2    H     H_    0.096807 0.374759 0.307115 0.161239
H3    H     H_    0.514053 0.067437 0.744747 0.194613
H4    H     H_    0.485947 0.932563 0.255253 0.194613
H5    H     H_    0.313740 0.942194 0.632397 0.161310
H6    H     H_    0.686260 0.057806 0.367603 0.161309
H7    H     H_    0.703178 0.527292 0.897688 0.145467
H8    H     H_    0.296822 0.472708 0.102312 0.145467
N1    N     N_3   0.500090 0.499970 0.858290 -0.214179
N2    N     N_3   0.499910 0.500030 0.141710 -0.214180
O1    O     O_R   0.500060 0.316850 0.620870 -0.550014
O2    O     O_R   0.499940 0.683150 0.379130 -0.550014
O3    O     O_R   0.500000 0.316860 0.379090 -0.604001
O4    O     O_R   0.500000 0.683140 0.620910 -0.604000
O5    O     O_R   0.316880 0.499960 0.620870 -0.561234
O6    O     O_R   0.683120 0.500040 0.379130 -0.561235
O7    O     O_R   0.316830 0.499970 0.379090 -0.595022
O8    O     O_R   0.683170 0.500030 0.620910 -0.595022
C27   C     C_2   0.937338 0.247391 0.506733 0.788199
O9    O     O_2   0.963776 0.176861 0.605601 -0.642017
O10   O     O_R   0.887105 0.201837 0.384874 -0.795491
H9    H     H_    0.888054 0.106657 0.384769 0.328187
C28   C     C_2   0.062662 0.752608 0.493267 0.788195
O11   O     O_2   0.036224 0.823139 0.394397 -0.642015
O12   O     O_R   0.112895 0.798162 0.615125 -0.795491
H10   H     H_    0.111944 0.893343 0.615230 0.328188
C29   C     C_3   0.076144 0.393846 0.765356 -0.314276
C30   C     C_3   0.965153 0.388527 0.865872 -0.855912
H11   H     H_    0.929552 0.484897 0.895960 0.244469
H12   H     H_    0.890345 0.341325 0.814265 0.280560
H13   H     H_    0.993198 0.334862 0.962467 0.250670
H14   H     H_    0.115863 0.296611 0.748594 0.255629
H15   H     H_    0.146138 0.451172 0.812836 0.226276
C31   C     C_3   0.923857 0.606153 0.234644 -0.314275
C32   C     C_3   0.034847 0.611470 0.134127 -0.855913
H16   H     H_    0.109657 0.658668 0.185734 0.280558
H17   H     H_    0.070445 0.515099 0.104037 0.244469
H18   H     H_    0.006803 0.665136 0.037533 0.250672
H19   H     H_    0.853861 0.548828 0.187164 0.226276
H20   H     H_    0.884139 0.703388 0.251404 0.255629
C33   C     C_3   0.708009 0.869414 0.632068 -0.434457
C34   C     C_3   0.809485 0.952375 0.674069 -0.727547
H21   H     H_    0.861739 0.978868 0.578350 0.280722
H22   H     H_    0.769649 0.037963 0.728783 0.264518
H23   H     H_    0.874908 0.898812 0.745368 0.249641
H24   H     H_    0.671593 0.822479 0.727905 0.243054
H25   H     H_    0.748470 0.795418 0.559983 0.197350
C35   C     C_3   0.291991 0.130586 0.367932 -0.434457
C36   C     C_3   0.190515 0.047625 0.325931 -0.727544
H26   H     H_    0.230351 0.962036 0.271217 0.264517
H27   H     H_    0.138261 0.021132 0.421650 0.280722
H28   H     H_    0.125092 0.101187 0.254631 0.249641
H29   H     H_    0.251530 0.204582 0.440017 0.197350
H30   H     H_    0.328407 0.177521 0.272095 0.243054
C37   C     C_3   0.332464 0.693468 0.894189 -0.310734
C38   C     C_3   0.279730 0.782029 0.009707 -0.850916
H31   H     H_    0.288485 0.737649 0.115637 0.248263
H32   H     H_    0.329617 0.869818 0.009630 0.288230
H33   H     H_    0.180400 0.809867 0.989812 0.256316
H34   H     H_    0.376939 0.752024 0.813752 0.244522
H35   H     H_    0.255193 0.647581 0.844763 0.217316
C39   C     C_3   0.667536 0.306532 0.105810 -0.310734
C40   C     C_3   0.720270 0.217971 0.990293 -0.850917
H36   H     H_    0.670383 0.130182 0.990370 0.288230
H37   H     H_    0.711514 0.262350 0.884363 0.248262
H38   H     H_    0.819599 0.190133 0.010188 0.256316
H39   H     H_    0.744807 0.352419 0.155237 0.217316
H40   H     H_    0.623061 0.247976 0.186248 0.244522
C41   C     C_2   0.586281 0.726809 0.085490 0.813981
O13   O     O_2   0.561318 0.821470 0.014371 -0.632887
O14   O     O_R   0.668950 0.731021 0.195267 -0.767896
H41   H     H_    0.696683 0.818996 0.209895 0.315895
C42   C     C_2   0.413719 0.273191 0.914510 0.813981
O15   O     O_2   0.438681 0.178531 0.985630 -0.632887
O16   O     O_R   0.331050 0.268978 0.804733 -0.767895
H42   H     H_    0.303318 0.181003 0.790106 0.315895

loop_
_geom_bond_atom_site_label_1
_geom_bond_atom_site_label_2
_ccdc_geom_bond_type
C7    C10   S    
C7    C37   S    
C21   C26   S    
C32   H17   S    
C11   C18   S    
C42   O15   D    
C23   C33   S    
C38   H33   S    
C15   C27   S    
C29   C30   S    
C41   O13   D    
C39   H39   S    
C27   O10   S    
C20   H2    S    
C36   H26   S    
C21   H3    S    
C22   H4    S    
C13   C18   S    
C24   C26   S    
Cu2   O2    S    
C14   C31   S    
Cu2   O3    S    
C30   H11   S    
C6    C42   S    
O14   H41   S    
Cu1   O1    S    
C8    C9    S    
C22   C25   S    
C12   C17   S    
C10   H8    S    
C16   C28   S    
C11   O5    A    
C34   H21   S    
C18   C20   S    
C37   H34   S    
C32   H18   S    
C42   O16   S    
C29   H14   S    
C14   C17   S    
C3    C24   S    
C8    N2    S    
C41   O14   S    
C36   H27   S    
C15   C20   S    
C37   H35   S    
C4    H6    S    
Cu2   O7    S    
C13   C19   S    
C28   O11   D    
C27   O9    D    
C14   C20   S    
C3    C25   S    
C35   C36   S    
C12   O8    A    
C35   H30   S    
C40   H36   S    
C5    C7    S    
C4    C23   S    
C24   C35   S    
C6    C8    S    
O12   H10   S    
Cu2   O6    S    
C28   O12   S    
C5    C9    S    
C31   C32   S    
C2    O2    A    
C40   H37   S    
C4    C22   S    
C37   C38   S    
Cu2   N2    S    
C34   H23   S    
C9    N1    S    
C7    N1    S    
C6    N1    S    
C33   H24   S    
C38   H31   S    
C31   H19   S    
Cu1   O8    S    
C1    O3    A    
C5    C41   S    
C13   C15   S    
C1    C26   S    
C22   C24   S    
C11   O7    A    
C8    C39   S    
C19   H1    S    
Cu1   Cu2   S    
C36   H28   S    
C15   C17   S    
C38   H32   S    
C35   H29   S    
C6    C10   S    
C4    C26   S    
C39   H40   S    
C30   H13   S    
C31   H20   S    
C10   N2    S    
C21   C23   S    
C12   O6    A    
C40   H38   S    
Cu1   O4    S    
C39   C40   S    
C2    O4    A    
C16   C19   S    
C29   H15   S    
C17   C19   S    
C30   H12   S    
C33   H25   S    
C2    C25   S    
C14   C16   S    
C23   C25   S    
C33   C34   S    
C3    C21   S    
C1    O1    A    
C32   H16   S    
Cu1   O5    S    
C16   C18   S    
O10   H9    S    
O16   H42   S    
C9    H7    S    
C3    H5    S    
C34   H22   S    
C5    N2    S    
Cu1   N1    S    
C13   C29   S    
