data_mof_unit_13398.cif
_audit_creation_date              2012-12-10T20:33:33-0500
_audit_creation_method            fapswitch 2.2
_symmetry_space_group_name_H-M    P1
_symmetry_Int_Tables_number       1
_space_group_crystal_system       triclinic
_cell_length_a                    14.139361
_cell_length_b                    10.668651
_cell_length_c                    9.894646
_cell_angle_alpha                 89.730467
_cell_angle_beta                  89.298176
_cell_angle_gamma                 89.70198
_cell_volume                      1492.43841297

loop_
_atom_site_label
_atom_site_type_symbol
_atom_type_description
_atom_site_fract_x
_atom_site_fract_y
_atom_site_fract_z
_atom_type_partial_charge
C1    C     C_R   0.499931 0.260282 0.500340 0.917280
C2    C     C_3   0.366682 0.069841 0.669197 0.746286
C3    C     C_R   0.437171 0.570658 0.071711 0.104794
C4    C     C_R   0.329222 0.500275 0.500773 0.942037
C5    C     C_R   0.570080 0.438891 0.070512 0.367665
C6    C     C_R   0.565509 0.431138 0.926045 0.399148
C7    C     C_R   0.438171 0.572559 0.929602 0.032717
C8    C     C_3   0.332832 0.566678 0.925006 -0.531977
C9    C     C_3   0.332194 0.562320 0.078990 0.313367
C10   C     C_R   0.500626 0.739633 0.499819 0.906557
C11   C     C_R   0.670784 0.500157 0.499451 0.869952
C12   C     C_1   0.772266 0.500897 0.499006 -0.221521
C13   C     C_1   0.227776 0.500768 0.502286 -0.163893
C14   C     C_1   0.142515 0.501207 0.502429 -0.015950
C15   C     C_1   0.042656 0.501591 0.501477 0.004498
C16   C     C_1   0.957400 0.501630 0.500446 0.007235
C17   C     C_1   0.857532 0.501350 0.499443 -0.022444
C18   C     C_3   0.195041 0.657096 0.155341 0.099628
C19   C     C_3   0.155301 0.769461 0.231514 -0.772020
C20   C     C_3   0.724400 0.455628 0.137660 0.157178
C21   C     C_3   0.792612 0.425392 0.021411 -0.847812
C22   C     C_3   0.610262 0.231368 0.872953 0.126206
C23   C     C_R   0.465369 0.063474 0.610875 -0.042607
C24   C     C_3   0.675770 0.154148 0.782591 -0.819202
C25   C     C_R   0.505132 0.128390 0.502154 -0.054048
C26   C     C_R   0.555057 0.065112 0.399852 -0.215750
C27   C     C_R   0.555537 0.935455 0.399516 -0.211199
C28   C     C_R   0.506089 0.871308 0.501481 -0.033486
C29   C     C_R   0.465505 0.935156 0.609891 -0.130257
C30   C     C_3   0.367021 0.926141 0.668396 0.150305
H1    H     H_    0.590842 0.115504 0.318947 0.176503
H2    H     H_    0.077628 0.759325 0.245041 0.200908
H3    H     H_    0.188270 0.775537 0.332587 0.271361
H4    H     H_    0.312083 0.906063 0.487542 0.366172
H5    H     H_    0.238841 0.115626 0.622530 0.361745
H6    H     H_    0.404957 0.076065 0.859126 0.284841
H7    H     H_    0.763235 0.434315 0.231617 0.173628
H8    H     H_    0.708070 0.558148 0.139460 0.113393
H9    H     H_    0.770468 0.473827 0.927522 0.275461
H10   H     H_    0.864370 0.459756 0.046019 0.202387
H11   H     H_    0.796700 0.322612 0.005085 0.276745
H12   H     H_    0.307081 0.478540 0.878931 0.198422
H13   H     H_    0.536063 0.210220 0.846147 0.162951
H14   H     H_    0.622335 0.201872 0.979243 0.164458
H15   H     H_    0.750360 0.167418 0.813048 0.249623
H16   H     H_    0.657711 0.053261 0.791814 0.205005
H17   H     H_    0.668368 0.183688 0.675519 0.260047
H18   H     H_    0.308341 0.471720 0.124372 0.081041
H19   H     H_    0.591541 0.885843 0.318426 0.154696
H20   H     H_    0.365535 0.881292 0.770031 0.129100
H21   H     H_    0.301828 0.653914 0.881934 0.226398
H22   H     H_    0.177828 0.571324 0.215133 0.137193
H23   H     H_    0.160158 0.652027 0.055267 0.143938
H24   H     H_    0.169999 0.857018 0.174018 0.258425
N1    N     N_R   0.499420 0.499140 0.142800 -0.192087
N2    N     N_R   0.499420 0.499180 0.857150 -0.150150
O1    O     O_R   0.500010 0.316790 0.614690 -0.582952
O2    O     O_3   0.301078 0.872409 0.580143 -0.756535
O3    O     O_3   0.302312 0.125826 0.580151 -0.760255
O4    O     O_3   0.362244 0.123979 0.798734 -0.787489
O5    O     O_3   0.642651 0.378770 0.137804 -0.606491
O6    O     O_3   0.629903 0.359789 0.853227 -0.574163
O7    O     O_R   0.500000 0.316760 0.385350 -0.596918
O8    O     O_R   0.373720 0.500020 0.614700 -0.584402
O9    O     O_R   0.373710 0.499980 0.385350 -0.596571
O10   O     O_R   0.500000 0.683240 0.614650 -0.609711
O11   O     O_R   0.499990 0.683210 0.385310 -0.609026
O12   O     O_R   0.626290 0.500020 0.614650 -0.550015
O13   O     O_R   0.626280 0.499980 0.385300 -0.600578
O14   O     O_3   0.293652 0.671465 0.138645 -0.568766
Zn1   Zn    Zn3+2 0.500010 0.500020 0.653130 1.005511
Zn2   Zn    Zn3+2 0.499990 0.499980 0.346870 0.983468

loop_
_geom_bond_atom_site_label_1
_geom_bond_atom_site_label_2
_ccdc_geom_bond_type
C12   C17   T    
C18   O14   S    
O13   Zn2   S    
C11   C12   S    
C11   O13   A    
O10   Zn1   S    
C29   C30   S    
C3    C9    S    
C13   C14   T    
C22   O6    S    
O9    Zn2   S    
C20   H8    S    
C5    N1    A    
C4    O8    A    
N1    Zn2   S    
C21   H9    S    
C2    C30   S    
N2    Zn1   S    
C24   H16   S    
C6    O6    S    
C10   O10   A    
C30   H20   S    
C5    O5    S    
C7    C8    S    
C10   O11   A    
O1    Zn1   S    
C1    C25   S    
C20   H7    S    
C8    H21   S    
C26   C27   A    
C5    C6    A    
C21   H10   S    
C3    N1    A    
C7    N2    A    
O12   Zn1   S    
C21   H11   S    
C19   H2    S    
C1    O7    A    
C19   H24   S    
C28   C29   A    
C2    O3    S    
C8    H12   S    
C18   C19   S    
C3    C7    A    
C2    C23   S    
C23   C25   A    
C4    O9    A    
C22   C24   S    
O7    Zn2   S    
C24   H15   S    
C18   H22   S    
C15   C16   T    
C23   C29   A    
C27   C28   A    
C2    O4    S    
C20   C21   S    
C9    H18   S    
H5    O3    S    
O11   Zn2   S    
C19   H3    S    
O8    Zn1   S    
C10   C28   S    
C20   O5    S    
H4    O2    S    
C11   O12   A    
C16   C17   S    
C14   C15   S    
C18   H23   S    
C25   C26   A    
C30   O2    S    
C24   H17   S    
C26   H1    S    
C9    O14   S    
C22   H13   S    
C22   H14   S    
C27   H19   S    
C4    C13   S    
C6    N2    A    
C8    C9    S    
H6    O4    S    
C1    O1    A    
