data_mof_unit_45214.cif
_audit_creation_date              2012-12-10T17:28:32-0500
_audit_creation_method            fapswitch 2.2
_symmetry_space_group_name_H-M    P1
_symmetry_Int_Tables_number       1
_space_group_crystal_system       triclinic
_cell_length_a                    10.658283
_cell_length_b                    12.0027
_cell_length_c                    12.837024
_cell_angle_alpha                 93.936431
_cell_angle_beta                  90.630065
_cell_angle_gamma                 86.383384
_cell_volume                      1635.0433188

loop_
_atom_site_label
_atom_site_type_symbol
_atom_type_description
_atom_site_fract_x
_atom_site_fract_y
_atom_site_fract_z
_atom_type_partial_charge
C1    C     C_R   0.495559 0.522718 0.700404 0.888332
C2    C     C_R   0.453020 0.547517 0.132675 -0.317332
C3    C     C_R   0.535301 0.455147 0.973894 0.114692
C4    C     C_R   0.464699 0.544853 0.026106 0.114692
C5    C     C_R   0.386271 0.952111 0.397079 0.102260
C6    C     C_R   0.613729 0.047889 0.602921 0.102260
C7    C     C_R   0.397589 0.836138 0.408459 0.034804
C8    C     C_R   0.602411 0.163862 0.591541 0.034805
C9    C     C_R   0.547642 0.858874 0.544509 -0.007267
C10   C     C_R   0.452358 0.141126 0.455491 -0.007267
C11   C     C_R   0.541030 0.976379 0.537521 0.021899
C12   C     C_R   0.504441 0.477282 0.299596 0.888333
C13   C     C_R   0.458970 0.023621 0.462479 0.021899
C14   C     C_R   0.739142 0.500417 0.501428 0.869920
C15   C     C_R   0.260858 0.499583 0.498572 0.869920
C16   C     C_R   0.876028 0.471707 0.690529 -0.177273
C17   C     C_R   0.123972 0.528293 0.309471 -0.177272
C18   C     C_R   0.944451 0.457806 0.782990 0.254989
C19   C     C_R   0.055548 0.542195 0.217010 0.254990
C20   C     C_R   0.075146 0.459596 0.781635 -0.112593
C21   C     C_R   0.924853 0.540405 0.218365 -0.112593
C22   C     C_R   0.136627 0.473579 0.688779 -0.156929
C23   C     C_R   0.511871 0.462785 0.188059 -0.145861
C24   C     C_R   0.863373 0.526422 0.311221 -0.156929
C25   C     C_R   0.068597 0.485747 0.594271 0.073108
C26   C     C_R   0.931403 0.514253 0.405729 0.073108
C27   C     C_R   0.937676 0.485658 0.595227 0.020449
C28   C     C_R   0.062324 0.514342 0.404772 0.020449
C29   C     C_R   0.128487 0.499508 0.499063 -0.146361
C30   C     C_R   0.871513 0.500492 0.500937 -0.146361
C31   C     C_3   0.297319 0.996690 0.315528 -0.897660
C32   C     C_3   0.702681 0.003310 0.684471 -0.897660
C33   C     C_3   0.877314 0.440447 0.882147 -0.929471
C34   C     C_R   0.488129 0.537215 0.811941 -0.145861
C35   C     C_3   0.122685 0.559554 0.117853 -0.929470
C36   C     C_R   0.406783 0.630725 0.971221 -0.234601
C37   C     C_R   0.593216 0.369275 0.028778 -0.234600
C38   C     C_R   0.417280 0.627278 0.863553 0.374250
C39   C     C_R   0.582719 0.372722 0.136447 0.374249
C40   C     C_R   0.546980 0.452482 0.867325 -0.317332
Cl1   Cl    Cl    0.666768 0.267311 0.202526 -0.605194
Cl2   Cl    Cl    0.333231 0.732689 0.797474 -0.605194
H1    H     H_    0.870032 0.550004 0.147599 0.147506
H2    H     H_    0.648090 0.300745 0.988322 0.174389
H3    H     H_    0.390881 0.180720 0.399530 0.155362
H4    H     H_    0.609119 0.819280 0.600470 0.155362
H5    H     H_    0.656934 0.219966 0.640684 0.131097
H6    H     H_    0.343066 0.780034 0.359316 0.131097
H7    H     H_    0.248831 0.928559 0.271837 0.242614
H8    H     H_    0.224383 0.055628 0.353404 0.251539
H9    H     H_    0.350170 0.040675 0.258433 0.259864
H10   H     H_    0.751169 0.071441 0.728163 0.242614
H11   H     H_    0.649830 0.959325 0.741567 0.259864
H12   H     H_    0.129968 0.449998 0.852400 0.147506
H13   H     H_    0.775617 0.944372 0.646596 0.251539
H14   H     H_    0.943930 0.429628 0.948286 0.247572
H15   H     H_    0.811153 0.513672 0.902556 0.252666
H16   H     H_    0.824322 0.363827 0.871251 0.239929
H17   H     H_    0.056069 0.570374 0.051714 0.247571
H18   H     H_    0.175679 0.636173 0.128748 0.239928
H19   H     H_    0.188845 0.486329 0.097443 0.252666
H20   H     H_    0.774679 0.471353 0.694231 0.133169
H21   H     H_    0.225321 0.528647 0.305769 0.133168
H22   H     H_    0.237825 0.474817 0.692168 0.151894
H23   H     H_    0.762174 0.525183 0.307832 0.151894
H24   H     H_    0.399021 0.616833 0.172974 0.170179
H25   H     H_    0.600979 0.383166 0.827025 0.170179
H26   H     H_    0.351909 0.699255 0.011678 0.174389
N1    N     N_R   0.523130 0.207800 0.519340 -0.119932
N2    N     N_R   0.476870 0.792200 0.480660 -0.119932
O1    O     O_R   0.506170 0.421700 0.658830 -0.644996
O2    O     O_R   0.493830 0.578300 0.341170 -0.644996
O3    O     O_R   0.491330 0.609310 0.646410 -0.566305
O4    O     O_R   0.508670 0.390690 0.353590 -0.566305
O5    O     O_R   0.690650 0.406190 0.506220 -0.600889
O6    O     O_R   0.309350 0.593810 0.493780 -0.600889
O7    O     O_R   0.675800 0.593810 0.493800 -0.626995
O8    O     O_R   0.324200 0.406190 0.506200 -0.626995
Zn1   Zn    Zn3+2 0.509910 0.374730 0.508290 0.977177
Zn2   Zn    Zn3+2 0.490090 0.625270 0.491710 0.977177

loop_
_geom_bond_atom_site_label_1
_geom_bond_atom_site_label_2
_ccdc_geom_bond_type
C6    C32   S    
C4    C36   A    
C33   H16   S    
C12   O4    A    
C7    N2    A    
O1    Zn1   S    
C39   Cl1   S    
C12   C23   S    
C8    N1    A    
C1    O1    A    
C34   C40   A    
C28   C29   A    
C19   C21   A    
C31   H7    S    
C38   Cl2   S    
C15   O8    A    
C35   H17   S    
C14   O7    A    
C32   H10   S    
C21   H1    S    
C22   C25   A    
C32   H13   S    
C5    C13   A    
C33   H14   S    
C15   O6    A    
C12   O2    A    
C9    H4    S    
C27   C30   A    
C16   H20   S    
C14   C30   S    
C1    C34   S    
C15   C29   S    
C25   C29   A    
N2    Zn2   S    
C9    N2    A    
C20   H12   S    
C31   H9    S    
C6    C11   A    
C5    C7    A    
O8    Zn1   S    
C6    C8    A    
C40   H25   S    
C35   H18   S    
C2    C4    A    
C10   H3    S    
C35   H19   S    
C9    C11   A    
C24   H23   S    
C16   C18   A    
C20   C22   A    
C3    C40   A    
C26   C30   A    
O4    Zn1   S    
N1    Zn1   S    
C31   H8    S    
C3    C4    A    
C32   H11   S    
O7    Zn2   S    
C33   H15   S    
C34   C38   A    
C17   C28   A    
O6    Zn2   S    
C24   C26   A    
C2    H24   S    
C10   C13   A    
C36   H26   S    
C25   C27   A    
C26   C28   A    
C1    O3    A    
C7    H6    S    
C37   H2    S    
C36   C38   A    
C8    H5    S    
C37   C39   A    
C19   C35   S    
C14   O5    A    
C11   C13   A    
C16   C27   A    
C23   C39   A    
C17   C19   A    
O3    Zn2   S    
C18   C20   A    
C18   C33   S    
C22   H22   S    
C10   N1    A    
C3    C37   A    
O2    Zn2   S    
C21   C24   A    
C2    C23   A    
O5    Zn1   S    
C17   H21   S    
C5    C31   S    
