data_mof_unit_24567.cif
_audit_creation_date              2012-10-26T21:25:54-0400
_audit_creation_method            fapswitch 2.2
_symmetry_space_group_name_H-M    P1
_symmetry_Int_Tables_number       1
_space_group_crystal_system       triclinic
_cell_length_a                    10.831775
_cell_length_b                    10.85641
_cell_length_c                    12.726325
_cell_angle_alpha                 93.233848
_cell_angle_beta                  93.423648
_cell_angle_gamma                 88.235532
_cell_volume                      1490.92744299

loop_
_atom_site_label
_atom_site_type_symbol
_atom_type_description
_atom_site_fract_x
_atom_site_fract_y
_atom_site_fract_z
_atom_type_partial_charge
C1    C     C_R   0.261991 0.496674 0.500207 0.556321
C2    C     C_R   0.792539 0.731179 0.360787 -0.045672
C3    C     C_R   0.137046 0.375474 0.666764 0.028710
C4    C     C_R   0.862953 0.624527 0.333234 0.028710
C5    C     C_R   0.128892 0.412891 0.773627 -0.099810
C6    C     C_R   0.871120 0.587118 0.226371 -0.099817
C7    C     C_R   0.191731 0.345408 0.851624 -0.123348
C8    C     C_R   0.808282 0.654600 0.148372 -0.123351
C9    C     C_R   0.261941 0.239720 0.823535 -0.111275
C10   C     C_R   0.738057 0.760280 0.176459 -0.111271
C11   C     C_R   0.940868 0.454721 0.583582 -0.111852
C12   C     C_R   0.738009 0.503326 0.499793 0.556312
C13   C     C_R   0.059132 0.545283 0.416418 -0.111853
C14   C     C_R   0.871686 0.506499 0.499927 0.030232
C15   C     C_R   0.128313 0.493504 0.500073 0.030235
C16   C     C_R   0.500942 0.261985 0.500607 0.576768
C17   C     C_R   0.499059 0.738014 0.499394 0.576766
C18   C     C_R   0.930992 0.554951 0.416384 -0.014148
C19   C     C_R   0.069008 0.445053 0.583616 -0.014149
C20   C     C_2   0.475706 0.458811 0.030605 -0.175237
C21   C     C_2   0.524296 0.541186 0.969395 -0.175241
C22   C     C_1   0.521370 0.527292 0.852949 0.156169
C23   C     C_R   0.500203 0.871497 0.498233 -0.030922
C24   C     C_1   0.478631 0.472707 0.147051 0.156175
C25   C     C_R   0.881966 0.181528 0.703207 -0.066872
C26   C     C_R   0.118020 0.818490 0.296821 -0.066858
C27   C     C_R   0.796170 0.136551 0.625016 0.296160
C28   C     C_R   0.203827 0.863449 0.375008 0.296158
C29   C     C_R   0.670606 0.130758 0.647072 0.092174
C30   C     C_R   0.329385 0.869244 0.352940 0.092175
C31   C     C_R   0.632734 0.173836 0.746617 -0.071450
C32   C     C_R   0.367241 0.826182 0.253389 -0.071451
C33   C     C_R   0.718409 0.223355 0.822657 -0.112637
C34   C     C_R   0.499798 0.128502 0.501769 -0.030924
C35   C     C_R   0.281555 0.776684 0.177351 -0.112643
C36   C     C_R   0.843174 0.226242 0.801274 -0.147121
C37   C     C_R   0.156796 0.773799 0.198744 -0.147122
C38   C     C_R   0.582145 0.936493 0.569575 0.206459
C39   C     C_R   0.417854 0.063506 0.430429 0.206451
C40   C     C_R   0.418502 0.934752 0.427842 -0.026856
C41   C     C_R   0.581496 0.065248 0.572163 -0.026855
C42   C     C_R   0.269346 0.201192 0.717401 -0.085524
C43   C     C_R   0.730637 0.798798 0.282594 -0.085519
C44   C     C_R   0.207447 0.268814 0.639209 -0.045677
Cl1   Cl    Cl    0.848861 0.084571 0.501551 -0.548716
Cl2   Cl    Cl    0.151158 0.915406 0.498484 -0.548733
Cl3   Cl    Cl    0.691422 0.857358 0.653466 -0.564288
Cl4   Cl    Cl    0.308574 0.142642 0.346542 -0.564305
Cu1   Cu    Cu3+1 0.492140 0.492110 0.395880 1.050532
Cu2   Cu    Cu3+1 0.507860 0.507890 0.604120 1.050538
H1    H     H_    0.909969 0.262429 0.860870 0.127531
H2    H     H_    0.433027 0.377187 0.993071 0.126170
H3    H     H_    0.978848 0.181835 0.687842 0.167718
H4    H     H_    0.021143 0.818183 0.312196 0.167726
H5    H     H_    0.537212 0.167697 0.765694 0.111802
H6    H     H_    0.462760 0.832322 0.234304 0.111801
H7    H     H_    0.688430 0.257196 0.898896 0.123640
H8    H     H_    0.311521 0.742860 0.101105 0.123646
H9    H     H_    0.310228 0.187432 0.884022 0.119763
H10   H     H_    0.689768 0.812567 0.115970 0.119763
H11   H     H_    0.322611 0.118674 0.695606 0.137943
H12   H     H_    0.089992 0.737630 0.139149 0.127539
H13   H     H_    0.677361 0.881309 0.304386 0.137921
H14   H     H_    0.213031 0.237393 0.557340 0.178054
H15   H     H_    0.786944 0.762594 0.442656 0.178040
H16   H     H_    0.074399 0.494323 0.796343 0.123166
H17   H     H_    0.925625 0.505693 0.203655 0.123163
H18   H     H_    0.185684 0.374844 0.933883 0.117563
H19   H     H_    0.814341 0.625172 0.066111 0.117563
H20   H     H_    0.894435 0.417651 0.647323 0.131030
H21   H     H_    0.105566 0.582355 0.352678 0.131027
H22   H     H_    0.566985 0.622801 0.006928 0.126179
N1    N     N_1   0.480320 0.480250 0.239400 -0.174397
N2    N     N_1   0.519680 0.519750 0.760600 -0.174395
O1    O     O_R   0.313000 0.493330 0.412070 -0.491346
O2    O     O_R   0.687000 0.506670 0.587930 -0.491345
O3    O     O_R   0.326280 0.506660 0.587930 -0.493328
O4    O     O_R   0.673720 0.493340 0.412070 -0.493333
O5    O     O_R   0.493370 0.312980 0.412070 -0.433634
O6    O     O_R   0.506630 0.687020 0.587930 -0.433630
O7    O     O_R   0.506650 0.326310 0.587930 -0.529442
O8    O     O_R   0.493350 0.673690 0.412070 -0.529445

loop_
_geom_bond_atom_site_label_1
_geom_bond_atom_site_label_2
_ccdc_geom_bond_type
C27   C29   A    
C1    O3    A    
C14   C18   A    
C10   H10   S    
C2    H15   S    
C37   H12   S    
C11   H20   S    
C43   H13   S    
C44   H14   S    
C15   C19   A    
C28   Cl2   S    
C8    H19   S    
C17   C23   S    
C13   C18   A    
C35   H8    S    
C35   C37   A    
C25   H3    S    
Cu2   N2    S    
C11   C14   A    
C24   N1    T    
C23   C40   A    
C33   C36   A    
Cu1   O4    S    
C17   O8    A    
C16   C34   S    
C7    H18   S    
C20   C24   S    
C12   O4    A    
Cu1   O1    S    
C3    C19   S    
C1    C15   S    
C4    C18   S    
C27   Cl1   S    
C21   C22   S    
C34   C41   A    
C42   C44   A    
C26   H4    S    
C3    C44   A    
C21   H22   S    
C34   C39   A    
C1    O1    A    
C32   C35   A    
C38   C41   A    
C4    C6    A    
C39   C40   A    
C5    C7    A    
C6    C8    A    
C13   H21   S    
C17   O6    A    
Cu1   O5    S    
C9    H9    S    
Cu1   O8    S    
C2    C4    A    
Cu2   O2    S    
C2    C43   A    
C11   C19   A    
C31   C33   A    
C9    C42   A    
C30   C40   S    
C42   H11   S    
C38   Cl3   S    
C36   H1    S    
C6    H17   S    
C12   C14   S    
C13   C15   A    
C12   O2    A    
Cu1   N1    S    
C22   N2    T    
Cu2   O3    S    
C7    C9    A    
C33   H7    S    
C29   C41   S    
C10   C43   A    
C5    H16   S    
C3    C5    A    
Cu2   O6    S    
C26   C37   A    
C25   C27   A    
C23   C38   A    
C26   C28   A    
C20   H2    S    
C16   O5    A    
C28   C30   A    
C29   C31   A    
C30   C32   A    
C16   O7    A    
C25   C36   A    
C20   C21   D    
C8    C10   A    
Cu1   Cu2   S    
C31   H5    S    
C32   H6    S    
Cu2   O7    S    
C39   Cl4   S    
