data_mof_unit_64321.cif
_audit_creation_date              2012-12-10T16:39:44-0500
_audit_creation_method            fapswitch 2.2
_symmetry_space_group_name_H-M    P1
_symmetry_Int_Tables_number       1
_space_group_crystal_system       triclinic
_cell_length_a                    10.919676
_cell_length_b                    10.921759
_cell_length_c                    16.043364
_cell_angle_alpha                 90.961816
_cell_angle_beta                  98.034876
_cell_angle_gamma                 98.567428
_cell_volume                      1872.05791017

loop_
_atom_site_label
_atom_site_type_symbol
_atom_type_description
_atom_site_fract_x
_atom_site_fract_y
_atom_site_fract_z
_atom_type_partial_charge
C1    C     C_R   0.837937 0.523788 0.518958 0.888385
C2    C     C_R   0.529479 0.835016 0.519031 0.863521
C3    C     C_R   0.472480 0.163015 0.482224 0.840183
C4    C     C_R   0.483696 0.515549 0.275976 0.849842
C5    C     C_R   0.516087 0.483920 0.723820 0.806420
C6    C     C_1   0.478162 0.519523 0.186397 -0.074360
C7    C     C_2   0.472134 0.523421 0.021029 -0.175752
C8    C     C_2   0.542890 0.460176 0.978863 0.001335
C9    C     C_2   0.632420 0.380665 0.018630 0.454837
C10   C     C_2   0.033038 0.569279 0.617411 0.387739
C11   C     C_2   0.336060 0.962102 0.430590 0.406391
C12   C     C_1   0.532023 0.469607 0.888719 -0.104927
C13   C     C_2   0.673652 0.026516 0.557106 0.459358
C14   C     C_1   0.474849 0.521751 0.111106 0.101878
C15   C     C_1   0.523983 0.476728 0.813390 -0.087979
C16   C     C_2   0.024296 0.474645 0.471250 0.270740
C17   C     C_2   0.971396 0.529339 0.530629 -0.210837
C18   C     C_2   0.455951 0.027536 0.479091 -0.209705
C19   C     C_2   0.544579 0.967648 0.521791 -0.197999
C20   C     C_R   0.160563 0.476145 0.481447 0.804710
H1    H     H_    0.409145 0.579353 0.986599 0.154627
H2    H     H_    0.685266 0.333570 0.979128 0.063791
H3    H     H_    0.000732 0.390823 0.360437 0.359688
H4    H     H_    0.013028 0.653383 0.646150 0.044027
H5    H     H_    0.258345 0.012758 0.414152 0.097592
H6    H     H_    0.717077 0.997131 0.616950 0.018192
O1    O     O_3   0.500000 0.500000 0.500000 -0.511113
O2    O     O_R   0.566290 0.591070 0.323460 -0.610132
O3    O     O_R   0.580640 0.419420 0.684420 -0.652556
O4    O     O_R   0.407770 0.434760 0.307690 -0.632206
O5    O     O_R   0.445300 0.554750 0.684430 -0.618542
O6    O     O_2   0.648740 0.366328 0.094450 -0.549594
O7    O     O_3   0.948333 0.422318 0.399067 -0.738697
O8    O     O_2   0.097377 0.503993 0.659577 -0.528878
O9    O     O_2   0.323132 0.853784 0.406298 -0.567946
O10   O     O_2   0.735554 0.099725 0.516816 -0.505985
O11   O     O_R   0.452040 0.769470 0.559450 -0.628779
O12   O     O_R   0.554760 0.223750 0.537250 -0.597054
O13   O     O_R   0.782610 0.596300 0.470630 -0.628533
O14   O     O_R   0.210590 0.410470 0.432660 -0.655699
O15   O     O_R   0.777820 0.443700 0.559450 -0.616811
O16   O     O_R   0.228980 0.549520 0.537250 -0.602644
O17   O     O_R   0.592170 0.786730 0.470640 -0.624014
O18   O     O_R   0.401030 0.220040 0.432660 -0.659381
Zn1   Zn    Zn3+2 0.408180 0.591840 0.569080 1.027189
Zn2   Zn    Zn3+2 0.608390 0.616500 0.442190 1.045125
Zn3   Zn    Zn3+2 0.381900 0.393170 0.419650 1.021764
Zn4   Zn    Zn3+2 0.601540 0.398480 0.569080 1.022790

loop_
_geom_bond_atom_site_label_1
_geom_bond_atom_site_label_2
_ccdc_geom_bond_type
O1    Zn4   S    
O14   Zn3   S    
C20   O16   A    
O18   Zn3   S    
C11   C18   S    
C16   O7    S    
C6    C14   T    
O12   Zn4   S    
C12   C15   T    
C16   C20   S    
C2    O17   A    
C8    C12   S    
O1    Zn1   S    
C11   O9    D    
C7    C8    D    
C10   O8    D    
C2    O11   A    
O2    Zn2   S    
C13   O10   D    
O13   Zn2   S    
C20   O14   A    
O1    Zn2   S    
C1    O15   A    
C4    O2    A    
O15   Zn4   S    
C18   C19   D    
C5    O3    A    
C3    O18   A    
O17   Zn2   S    
C13   H6    S    
C5    C15   S    
C11   H5    S    
C10   C17   S    
O11   Zn1   S    
O4    Zn3   S    
C3    C18   S    
C4    C6    S    
C9    H2    S    
O5    Zn1   S    
O1    Zn3   S    
C1    O13   A    
C16   C17   D    
C13   C19   S    
C5    O5    A    
O3    Zn4   S    
C9    O6    D    
C10   H4    S    
C2    C19   S    
C7    H1    S    
C1    C17   S    
C7    C14   S    
C4    O4    A    
C3    O12   A    
C8    C9    S    
H3    O7    S    
O16   Zn1   S    
