data_mof_unit_31034.cif
_audit_creation_date              2012-12-10T19:18:40-0500
_audit_creation_method            fapswitch 2.2
_symmetry_space_group_name_H-M    P1
_symmetry_Int_Tables_number       1
_space_group_crystal_system       triclinic
_cell_length_a                    14.733308
_cell_length_b                    16.001076
_cell_length_c                    17.399775
_cell_angle_alpha                 89.736523
_cell_angle_beta                  85.592074
_cell_angle_gamma                 90.985544
_cell_volume                      4089.16549474

loop_
_atom_site_label
_atom_site_type_symbol
_atom_type_description
_atom_site_fract_x
_atom_site_fract_y
_atom_site_fract_z
_atom_type_partial_charge
C1    C     C_R   0.500927 0.659096 0.499153 0.790643
C2    C     C_R   0.499105 0.340991 0.499388 0.828513
C3    C     C_R   0.414453 0.040871 0.517596 -0.050091
C4    C     C_R   0.581809 0.959767 0.483887 -0.051624
C5    C     C_R   0.495416 0.087630 0.499545 0.020387
C6    C     C_R   0.501013 0.912702 0.500725 0.018286
C7    C     C_R   0.578893 0.047612 0.482853 -0.058090
C8    C     C_R   0.417355 0.952696 0.518331 -0.060490
C9    C     C_1   0.494249 0.177428 0.499012 -0.048020
C10   C     C_1   0.503469 0.822879 0.499933 -0.035087
C11   C     C_1   0.503011 0.747983 0.499281 -0.190232
C12   C     C_1   0.496296 0.252268 0.498919 -0.176716
C13   C     C_R   0.047435 0.422991 0.489302 0.477488
C14   C     C_R   0.952743 0.573408 0.509918 0.474598
C15   C     C_R   0.097289 0.498279 0.498897 -0.108770
C16   C     C_R   0.902973 0.498803 0.499203 -0.097519
C17   C     C_R   0.048876 0.572948 0.508362 -0.340746
C18   C     C_R   0.951249 0.423891 0.490356 -0.318910
C19   C     C_1   0.197300 0.499401 0.499830 0.203720
C20   C     C_1   0.802800 0.498958 0.499366 0.194653
C21   C     C_R   0.487885 0.500855 0.649892 0.845512
C22   C     C_R   0.511944 0.504023 0.349556 0.831141
C23   C     C_R   0.479115 0.505487 0.733612 -0.238112
C24   C     C_R   0.518080 0.508381 0.264611 -0.267729
C25   C     C_R   0.520710 0.446089 0.778905 -0.200051
C26   C     C_R   0.437695 0.502509 0.224861 -0.187721
C27   C     C_R   0.501960 0.447077 0.859439 0.491554
C28   C     C_R   0.446863 0.482415 0.146307 0.490085
C29   C     C_R   0.457861 0.516334 0.894618 -0.092532
C30   C     C_R   0.528513 0.503855 0.102614 -0.117189
C31   C     C_R   0.415360 0.573518 0.848832 -0.333598
C32   C     C_R   0.607715 0.513445 0.141582 -0.330016
C33   C     C_R   0.425897 0.569104 0.768963 0.448066
C34   C     C_R   0.603687 0.513953 0.221846 0.438473
C35   C     C_2   0.457482 0.530229 0.979053 0.408628
C36   C     C_2   0.532747 0.513511 0.016883 0.418392
Cu1   Cu    Cu3+1 0.410780 0.500000 0.499980 0.993039
Cu2   Cu    Cu3+1 0.589220 0.500000 0.500020 0.980860
H1    H     H_    0.376036 0.623974 0.874180 0.176376
H2    H     H_    0.673785 0.519285 0.110345 0.191219
H3    H     H_    0.914166 0.365508 0.484763 0.163660
H4    H     H_    0.085546 0.631247 0.515793 0.159501
N1    N     N_1   0.723290 0.500020 0.499980 -0.166484
N2    N     N_1   0.276710 0.499980 0.500020 -0.152731
O1    O     O_R   0.424680 0.619690 0.499960 -0.564960
O2    O     O_R   0.575320 0.380310 0.500040 -0.557512
O3    O     O_R   0.575360 0.619690 0.500000 -0.586403
O4    O     O_R   0.424640 0.380310 0.500000 -0.578444
O5    O     O_R   0.415920 0.500010 0.613580 -0.545953
O6    O     O_R   0.584080 0.499990 0.386420 -0.544922
O7    O     O_R   0.566610 0.500010 0.613610 -0.586360
O8    O     O_R   0.433390 0.499990 0.386390 -0.578187
C37   C     C_R   0.587120 0.385647 0.744215 0.165739
C38   C     C_R   0.678110 0.390399 0.762953 -0.074077
C39   C     C_R   0.741559 0.333683 0.731438 -0.160451
C40   C     C_R   0.714458 0.271271 0.681772 -0.107430
C41   C     C_R   0.623969 0.265722 0.663236 -0.118253
C42   C     C_R   0.560437 0.323058 0.693757 -0.165345
H5    H     H_    0.699875 0.438285 0.801689 0.139957
H6    H     H_    0.811654 0.337853 0.745842 0.132030
H7    H     H_    0.763484 0.226933 0.658050 0.122572
H8    H     H_    0.603135 0.216614 0.625589 0.136799
H9    H     H_    0.490378 0.317894 0.679264 0.103589
C43   C     C_R   0.349406 0.537219 0.258113 0.179169
C44   C     C_R   0.349808 0.617596 0.291163 -0.124883
C45   C     C_R   0.268986 0.653616 0.320948 -0.130989
C46   C     C_R   0.186311 0.610512 0.317635 -0.120347
C47   C     C_R   0.184416 0.531453 0.284208 -0.178563
C48   C     C_R   0.265218 0.494878 0.254571 -0.099075
H10   H     H_    0.413020 0.652801 0.293360 0.101335
H11   H     H_    0.270558 0.715280 0.346064 0.117437
H12   H     H_    0.123688 0.638450 0.340745 0.134637
H13   H     H_    0.120127 0.498224 0.281463 0.136587
H14   H     H_    0.260638 0.433676 0.229805 0.131790
O9    O     O_3   0.684408 0.519381 0.257433 -0.591773
C49   C     C_3   0.703863 0.603863 0.275116 0.119862
H15   H     H_    0.740567 0.603908 0.328588 0.184756
H16   H     H_    0.641712 0.641965 0.287923 0.102313
C50   C     C_3   0.765649 0.644798 0.210217 -0.385893
H17   H     H_    0.825292 0.604604 0.195835 0.233814
H18   H     H_    0.727578 0.651843 0.157987 0.199762
C51   C     C_3   0.799210 0.730940 0.233682 -0.924609
H19   H     H_    0.740533 0.772302 0.247812 0.255454
H20   H     H_    0.842862 0.759466 0.185340 0.254517
H21   H     H_    0.839962 0.725630 0.284564 0.263391
O10   O     O_3   0.381488 0.626671 0.726183 -0.595966
C52   C     C_3   0.442975 0.690953 0.698479 0.086258
H22   H     H_    0.415490 0.717833 0.646336 0.183663
H23   H     H_    0.512318 0.667862 0.680325 0.108445
C53   C     C_3   0.449168 0.761039 0.757698 -0.381448
H24   H     H_    0.379763 0.783907 0.774848 0.227311
H25   H     H_    0.479288 0.736938 0.809813 0.205263
C54   C     C_3   0.508451 0.833821 0.724663 -0.925525
H26   H     H_    0.578542 0.812534 0.707993 0.255543
H27   H     H_    0.512056 0.883438 0.768766 0.253913
H28   H     H_    0.479142 0.860667 0.673298 0.262820
O11   O     O_3   0.616712 0.508869 0.974772 -0.600817
C55   C     C_3   0.661554 0.588318 0.973397 0.001573
H29   H     H_    0.735462 0.577488 0.976549 0.175242
H30   H     H_    0.640108 0.628606 0.023609 0.118261
C56   C     C_3   0.648580 0.636112 0.898702 -0.359446
H31   H     H_    0.673651 0.598386 0.848226 0.227436
H32   H     H_    0.575493 0.648348 0.894371 0.199263
C57   C     C_3   0.699035 0.720318 0.897308 -0.929079
H33   H     H_    0.677300 0.757184 0.949253 0.253680
H34   H     H_    0.683026 0.756743 0.845812 0.265883
H35   H     H_    0.773692 0.710921 0.895320 0.258906
O12   O     O_3   0.380877 0.564408 0.017735 -0.585731
C58   C     C_3   0.391008 0.652720 0.022136 0.005581
H36   H     H_    0.335163 0.681147 0.992083 0.168133
H37   H     H_    0.456600 0.678494 0.994469 0.104136
C59   C     C_3   0.381388 0.680554 0.106108 -0.309729
H38   H     H_    0.317083 0.653960 0.134444 0.249665
H39   H     H_    0.439817 0.657534 0.136238 0.198562
C60   C     C_3   0.379865 0.775562 0.112650 -0.940687
H40   H     H_    0.443983 0.803598 0.085320 0.254911
H41   H     H_    0.373354 0.793309 0.174436 0.253951
H42   H     H_    0.321028 0.800803 0.084302 0.257914
O13   O     O_3   0.380609 0.435457 0.113186 -0.587679
C61   C     C_3   0.383490 0.351096 0.139217 -0.001611
H43   H     H_    0.325123 0.317024 0.116311 0.180467
H44   H     H_    0.373771 0.345989 0.203139 0.132467
C62   C     C_3   0.472412 0.307402 0.111749 -0.355398
H45   H     H_    0.491093 0.322558 0.050474 0.259433
H46   H     H_    0.528607 0.330135 0.145761 0.217674
C63   C     C_3   0.463489 0.212809 0.121909 -0.923886
H47   H     H_    0.446522 0.196609 0.183554 0.255881
H48   H     H_    0.528969 0.183461 0.102438 0.258305
H49   H     H_    0.409485 0.187388 0.087026 0.253406
O14   O     O_3   0.525517 0.380524 0.904807 -0.595028
C64   C     C_3   0.468353 0.309913 0.893246 0.018428
H50   H     H_    0.492996 0.257453 0.927610 0.178671
H51   H     H_    0.474240 0.288538 0.832598 0.146039
C65   C     C_3   0.367621 0.324925 0.919100 -0.371278
H52   H     H_    0.361897 0.353093 0.977243 0.263218
H53   H     H_    0.338280 0.369074 0.878611 0.218179
C66   C     C_3   0.311831 0.243671 0.920476 -0.920023
H54   H     H_    0.315142 0.215532 0.862096 0.252861
H55   H     H_    0.239635 0.256674 0.938845 0.261729
H56   H     H_    0.337863 0.198500 0.961749 0.252669
C67   C     C_R   0.333811 0.902161 0.540897 0.128863
C68   C     C_R   0.293262 0.852069 0.486463 -0.146066
C69   C     C_R   0.215637 0.803532 0.508421 -0.131214
C70   C     C_R   0.178213 0.804583 0.584685 -0.097815
C71   C     C_R   0.218222 0.854315 0.639105 -0.124184
C72   C     C_R   0.295676 0.903092 0.617367 -0.144538
H57   H     H_    0.321816 0.850714 0.427246 0.115166
H58   H     H_    0.184408 0.765107 0.466394 0.117312
H59   H     H_    0.118187 0.766923 0.601592 0.114303
H60   H     H_    0.189271 0.855003 0.698173 0.125158
H61   H     H_    0.326294 0.941147 0.660091 0.125104
C73   C     C_R   0.663460 0.098075 0.464400 0.138085
C74   C     C_R   0.676989 0.140278 0.393413 -0.144188
C75   C     C_R   0.755834 0.188756 0.376354 -0.120447
C76   C     C_R   0.821574 0.195137 0.429878 -0.104642
C77   C     C_R   0.808656 0.153134 0.500567 -0.139654
C78   C     C_R   0.729664 0.104899 0.518024 -0.143424
H62   H     H_    0.626403 0.135684 0.351562 0.122412
H63   H     H_    0.765972 0.221397 0.321668 0.134258
H64   H     H_    0.882410 0.232689 0.416569 0.113222
H65   H     H_    0.859711 0.158232 0.541906 0.120757
H66   H     H_    0.719817 0.073256 0.573265 0.116504
C79   C     C_R   0.326586 0.084060 0.533991 0.136262
C80   C     C_R   0.256681 0.074631 0.484009 -0.136086
C81   C     C_R   0.173833 0.114765 0.499672 -0.149367
C82   C     C_R   0.160390 0.164892 0.564980 -0.074501
C83   C     C_R   0.229777 0.174886 0.614805 -0.131143
C84   C     C_R   0.312580 0.134481 0.599584 -0.156352
H67   H     H_    0.266446 0.036253 0.433031 0.122255
H68   H     H_    0.120070 0.106976 0.461170 0.128799
H69   H     H_    0.096205 0.195940 0.576977 0.153339
H70   H     H_    0.219310 0.213744 0.665354 0.131652
H71   H     H_    0.365649 0.142240 0.638865 0.118702
C85   C     C_R   0.670321 0.918037 0.469088 0.144721
C86   C     C_R   0.712462 0.914893 0.394051 -0.134299
C87   C     C_R   0.800501 0.883943 0.381572 -0.159173
C88   C     C_R   0.846767 0.856155 0.443781 -0.070833
C89   C     C_R   0.805056 0.859549 0.518560 -0.121723
C90   C     C_R   0.716716 0.889465 0.531260 -0.168105
H72   H     H_    0.677968 0.938147 0.345727 0.118916
H73   H     H_    0.833487 0.882915 0.323862 0.135292
H74   H     H_    0.915287 0.833014 0.434181 0.135801
H75   H     H_    0.841660 0.840508 0.566924 0.129963
H76   H     H_    0.685686 0.893125 0.589616 0.125575
O15   O     O_3   0.090456 0.346697 0.487228 -0.627736
C91   C     C_3   0.135401 0.333435 0.413550 0.059356
H77   H     H_    0.196533 0.295665 0.421786 0.183474
H78   H     H_    0.160628 0.391976 0.383681 0.128981
C92   C     C_3   0.073357 0.284507 0.362594 -0.373119
H79   H     H_    0.049399 0.225888 0.392659 0.219078
H80   H     H_    0.013163 0.322543 0.351892 0.212068
C93   C     C_3   0.123172 0.262554 0.285401 -0.927232
H81   H     H_    0.145098 0.320346 0.253108 0.249655
H82   H     H_    0.076818 0.225975 0.250428 0.259646
H83   H     H_    0.183743 0.224353 0.294461 0.253362
O16   O     O_3   0.907767 0.647967 0.520597 -0.622023
C94   C     C_3   0.891994 0.664132 0.600506 0.024094
H84   H     H_    0.919894 0.727501 0.611297 0.153912
H85   H     H_    0.926540 0.620701 0.639043 0.125703
C95   C     C_3   0.789376 0.661393 0.623115 -0.306877
H86   H     H_    0.752545 0.695556 0.579640 0.246411
H87   H     H_    0.764660 0.595494 0.625081 0.218712
C96   C     C_3   0.766747 0.699643 0.702031 -0.971009
H88   H     H_    0.803207 0.666590 0.746384 0.268021
H89   H     H_    0.692328 0.693346 0.717107 0.261121
H90   H     H_    0.786173 0.767032 0.701446 0.253910

loop_
_geom_bond_atom_site_label_1
_geom_bond_atom_site_label_2
_ccdc_geom_bond_type
C73   C78   A    
C52   H22   S    
O9    C49   S    
C56   H31   S    
C37   C42   A    
C27   C29   A    
C35   C36   D    
C1    C11   S    
C49   C50   S    
C39   C40   A    
C64   C65   S    
C2    C12   S    
C65   C66   S    
C59   H39   S    
C89   C90   A    
C41   C42   A    
C62   H45   S    
C37   C38   A    
C2    O2    A    
C44   C45   A    
C15   C19   S    
C66   H55   S    
C81   C82   A    
C13   C18   A    
C77   C78   A    
C49   H16   S    
C58   H37   S    
C62   H46   S    
C69   C70   A    
O11   C55   S    
C42   H9    S    
O12   C58   S    
C92   H80   S    
C46   H12   S    
C74   H62   S    
C94   H85   S    
C26   C43   S    
C85   C86   A    
C59   H38   S    
C35   O12   S    
C17   H4    S    
O15   C91   S    
C79   C80   A    
C92   C93   S    
C95   H86   S    
C23   C33   A    
C31   C33   A    
C8    C67   S    
C89   H75   S    
C61   C62   S    
C3    C79   S    
C34   O9    S    
C22   O6    A    
C23   C25   A    
C45   C46   A    
C82   H69   S    
C56   H32   S    
C4    C85   S    
C39   H6    S    
C14   C17   A    
C80   H67   S    
C87   H73   S    
C4    C7    A    
C96   H89   S    
C21   O5    A    
C57   H33   S    
C66   H56   S    
C61   H44   S    
C71   C72   A    
C38   H5    S    
C84   H71   S    
C96   H90   S    
C13   O15   S    
C46   C47   A    
C93   H83   S    
C41   H8    S    
C49   H15   S    
C4    C6    A    
C3    C8    A    
C18   H3    S    
C83   C84   A    
C5    C7    A    
Cu1   O8    S    
O10   C52   S    
C47   C48   A    
C62   C63   S    
C6    C8    A    
Cu2   O7    S    
C63   H49   S    
C60   H41   S    
C47   H13   S    
C92   H79   S    
C24   C34   A    
C72   H61   S    
C93   H82   S    
C44   H10   S    
C94   C95   S    
C33   O10   S    
C5    C9    S    
Cu1   Cu2   S    
Cu1   O5    S    
C53   H25   S    
C45   H11   S    
C60   H40   S    
C16   C20   S    
C60   H42   S    
C3    C5    A    
Cu2   O3    S    
C48   H14   S    
C54   H26   S    
C43   C48   A    
C57   H35   S    
Cu1   O4    S    
C75   C76   A    
C36   O11   S    
C67   C72   A    
C88   C89   A    
C16   C18   A    
C87   C88   A    
C77   H65   S    
C51   H19   S    
C54   H28   S    
C51   H20   S    
C21   C23   S    
C82   C83   A    
C14   C16   A    
C50   H17   S    
C58   C59   S    
C40   C41   A    
Cu1   O1    S    
C64   H50   S    
C51   H21   S    
C19   N2    T    
C21   O7    A    
C20   N1    T    
C61   H43   S    
C53   C54   S    
C22   O8    A    
C90   H76   S    
C81   H68   S    
C15   C17   A    
C14   O16   S    
C38   C39   A    
C80   C81   A    
C63   H48   S    
C70   H59   S    
C76   H64   S    
C40   H7    S    
C26   C28   A    
C68   H57   S    
C1    O3    A    
C71   H60   S    
C25   C37   S    
O16   C94   S    
C64   H51   S    
C28   O13   S    
C6    C10   S    
C50   C51   S    
C65   H53   S    
O13   C61   S    
C50   H18   S    
C83   H70   S    
Cu2   O6    S    
C25   C27   A    
C55   C56   S    
C66   H54   S    
C29   C35   S    
C65   H52   S    
C55   H30   S    
C30   C36   S    
C70   C71   A    
C2    O4    A    
C43   C44   A    
C91   C92   S    
C13   C15   A    
C57   H34   S    
C74   C75   A    
C79   C84   A    
Cu2   N1    S    
C29   C31   A    
C86   C87   A    
C58   H36   S    
C93   H81   S    
C30   C32   A    
C24   C26   A    
C1    O1    A    
C53   H24   S    
C54   H27   S    
Cu1   N2    S    
C63   H47   S    
C85   C90   A    
C28   C30   A    
C31   H1    S    
O14   C64   S    
C22   C24   S    
C32   H2    S    
C94   H84   S    
C9    C12   T    
C69   H58   S    
Cu2   O2    S    
C10   C11   T    
C86   H72   S    
C7    C73   S    
C75   H63   S    
C27   O14   S    
C73   C74   A    
C95   H87   S    
C55   H29   S    
C52   C53   S    
C76   C77   A    
C52   H23   S    
C68   C69   A    
C56   C57   S    
C96   H88   S    
C95   C96   S    
C91   H77   S    
C67   C68   A    
C91   H78   S    
C78   H66   S    
C59   C60   S    
C88   H74   S    
C32   C34   A    
