data_mof_unit_62613.cif
_audit_creation_date              2012-12-10T19:22:29-0500
_audit_creation_method            fapswitch 2.2
_symmetry_space_group_name_H-M    P1
_symmetry_Int_Tables_number       1
_space_group_crystal_system       triclinic
_cell_length_a                    17.707885
_cell_length_b                    16.443983
_cell_length_c                    10.900421
_cell_angle_alpha                 90.408724
_cell_angle_beta                  90.14599
_cell_angle_gamma                 89.998117
_cell_volume                      3173.98246882

loop_
_atom_site_label
_atom_site_type_symbol
_atom_type_description
_atom_site_fract_x
_atom_site_fract_y
_atom_site_fract_z
_atom_type_partial_charge
C1    C     C_R   0.355426 0.500008 0.503266 0.779086
C2    C     C_R   0.644579 0.499960 0.495933 0.767215
C3    C     C_R   0.885502 0.502880 0.493440 0.089673
C4    C     C_R   0.114615 0.502572 0.500005 0.090482
C5    C     C_1   0.966201 0.503848 0.495420 -0.037207
C6    C     C_1   0.033930 0.503751 0.497121 -0.035846
C7    C     C_R   0.548999 0.829175 0.576863 -0.264296
C8    C     C_R   0.451042 0.828607 0.423653 -0.263724
C9    C     C_R   0.548102 0.743339 0.575358 0.084219
C10   C     C_R   0.451887 0.742778 0.424841 0.086413
C11   C     C_R   0.500038 0.873060 0.500336 0.141644
C12   C     C_1   0.500071 0.962690 0.500489 -0.023942
C13   C     C_1   0.500083 0.037280 0.500555 -0.016130
C14   C     C_R   0.553749 0.171486 0.568046 -0.236143
C15   C     C_R   0.446258 0.170658 0.432866 -0.238481
C16   C     C_R   0.552774 0.257306 0.566596 0.117575
C17   C     C_R   0.447172 0.256471 0.433890 0.112315
C18   C     C_R   0.500047 0.126904 0.500489 0.130772
C19   C     C_R   0.498584 0.499580 0.264757 0.892481
C20   C     C_R   0.495863 0.500076 0.735458 0.880521
C21   C     C_2   0.464260 0.437443 0.935992 0.182275
C22   C     C_2   0.452526 0.449308 0.068321 0.166276
C23   C     C_2   0.483267 0.502208 0.867246 -0.429911
C24   C     C_2   0.499930 0.497307 0.132488 -0.400944
C25   C     C_R   0.845092 0.560075 0.561768 -0.146718
C26   C     C_R   0.155541 0.557064 0.428726 -0.140267
C27   C     C_R   0.766524 0.558780 0.560221 -0.181320
C28   C     C_R   0.234101 0.555955 0.432100 -0.160284
C29   C     C_R   0.727452 0.500113 0.490553 -0.114110
C30   C     C_R   0.272580 0.500192 0.506572 -0.105180
C31   C     C_R   0.768409 0.442955 0.418610 -0.028149
C32   C     C_R   0.231125 0.445726 0.581083 -0.042748
C33   C     C_R   0.847666 0.444726 0.422408 -0.113308
C34   C     C_R   0.151917 0.447242 0.575547 -0.107408
Cu1   Cu    Cu3+1 0.500000 0.580420 0.500000 0.945277
Cu2   Cu    Cu3+1 0.500000 0.419580 0.500000 0.970993
H1    H     H_    0.594355 0.290681 0.619537 0.137626
H2    H     H_    0.405236 0.289120 0.381621 0.157319
H3    H     H_    0.485098 0.562319 0.909330 0.146033
H4    H     H_    0.545123 0.530532 0.088041 0.128588
H5    H     H_    0.874314 0.605402 0.616725 0.140968
H6    H     H_    0.126737 0.600207 0.370275 0.141318
H7    H     H_    0.736066 0.603011 0.615192 0.145007
H8    H     H_    0.265047 0.598015 0.374963 0.147072
H9    H     H_    0.880263 0.401788 0.368254 0.179290
H10   H     H_    0.118933 0.406423 0.631841 0.178294
H11   H     H_    0.587721 0.860966 0.637490 0.140820
H12   H     H_    0.412327 0.859953 0.363164 0.142412
H13   H     H_    0.586134 0.710433 0.634884 0.118785
H14   H     H_    0.413797 0.709436 0.365252 0.122370
H15   H     H_    0.596189 0.140256 0.621723 0.146131
H16   H     H_    0.403725 0.138782 0.379569 0.152250
N1    N     N_R   0.500000 0.701220 0.500000 -0.171064
N2    N     N_R   0.500000 0.298780 0.500000 -0.181551
O1    O     O_R   0.391260 0.567930 0.500000 -0.582508
O2    O     O_R   0.608740 0.567930 0.500000 -0.579355
O3    O     O_R   0.391280 0.432120 0.500000 -0.588607
O4    O     O_R   0.608720 0.432120 0.500000 -0.600196
O5    O     O_R   0.500000 0.567890 0.321940 -0.585584
O6    O     O_R   0.500000 0.567890 0.678060 -0.589177
O7    O     O_R   0.500030 0.432070 0.321950 -0.559944
O8    O     O_R   0.499970 0.432070 0.678050 -0.553992
I1    I     I_    0.451776 0.315268 0.869511 -0.284138
I2    I     I_    0.356909 0.392378 0.151075 -0.318606
C35   C     C_2   0.730248 0.384416 0.334355 0.362532
H17   H     H_    0.671380 0.391995 0.309615 0.093599
O9    O     O_2   0.764719 0.327202 0.289505 -0.529389
C36   C     C_2   0.268811 0.390554 0.669613 0.396960
H18   H     H_    0.327780 0.398571 0.693237 0.104477
O10   O     O_2   0.233904 0.335838 0.719124 -0.508838

loop_
_geom_bond_atom_site_label_1
_geom_bond_atom_site_label_2
_ccdc_geom_bond_type
C15   C18   A    
C4    C26   A    
C11   C12   S    
C8    H12   S    
C15   C17   A    
C34   H10   S    
C1    O3    A    
Cu1   N1    S    
C33   H9    S    
C14   C18   A    
C26   C28   A    
C14   H15   S    
C35   O9    D    
C20   C23   S    
C16   H1    S    
C32   C36   S    
C31   C33   A    
C19   C24   S    
C1    O1    A    
C29   C31   A    
Cu2   N2    S    
C2    O2    A    
C21   C22   S    
C30   C32   A    
C5    C6    T    
C9    N1    A    
C27   C29   A    
C13   C18   S    
C19   O7    A    
C2    C29   S    
C23   H3    S    
C17   N2    A    
C22   C24   D    
C28   C30   A    
C1    C30   S    
C24   H4    S    
Cu2   O3    S    
C16   N2    A    
C17   H2    S    
C8    C11   A    
C4    C34   A    
C20   O8    A    
C2    O4    A    
C36   H18   S    
Cu1   O5    S    
C14   C16   A    
C20   O6    A    
C21   I1    S    
C25   C27   A    
C3    C33   A    
Cu2   O4    S    
Cu1   O1    S    
Cu2   O7    S    
C10   H14   S    
C27   H7    S    
C3    C25   A    
C9    H13   S    
C12   C13   T    
C26   H6    S    
C4    C6    S    
C35   H17   S    
C25   H5    S    
C7    C9    A    
C36   O10   D    
C31   C35   S    
C10   N1    A    
C7    C11   A    
Cu2   O8    S    
C19   O5    A    
Cu1   O2    S    
C15   H16   S    
C22   I2    S    
C21   C23   D    
C28   H8    S    
C8    C10   A    
Cu1   Cu2   S    
C7    H11   S    
Cu1   O6    S    
C3    C5    S    
C32   C34   A    
