data_mof_unit_47281.cif
_audit_creation_date              2012-12-11T15:27:35-0500
_audit_creation_method            fapswitch 2.2
_symmetry_space_group_name_H-M    P1
_symmetry_Int_Tables_number       1
_space_group_crystal_system       triclinic
_cell_length_a                    23.266883
_cell_length_b                    7.301905
_cell_length_c                    15.140603
_cell_angle_alpha                 90.407293
_cell_angle_beta                  108.294612
_cell_angle_gamma                 89.516545
_cell_volume                      2442.14637249

loop_
_atom_site_label
_atom_site_type_symbol
_atom_type_description
_atom_site_fract_x
_atom_site_fract_y
_atom_site_fract_z
_atom_type_partial_charge
O1    O     O_R   0.711000 0.648610 0.341170 -0.535463
O2    O     O_R   0.289000 0.351390 0.658830 -0.535464
O3    O     O_R   0.789000 0.148610 0.158830 -0.535985
O4    O     O_R   0.211000 0.851390 0.841170 -0.535985
O5    O     O_R   0.829650 0.322030 0.336650 -0.537613
O6    O     O_R   0.170350 0.677970 0.663350 -0.537613
O7    O     O_R   0.670350 0.822030 0.163350 -0.536939
O8    O     O_R   0.329650 0.177970 0.836650 -0.536939
C1    C     C_R   0.854283 0.485536 0.356775 0.717318
C2    C     C_R   0.145717 0.514463 0.643225 0.717317
C3    C     C_R   0.645721 0.986054 0.143223 0.717906
C4    C     C_R   0.354279 0.013946 0.856777 0.717907
O9    O     O_R   0.713950 0.319280 0.352070 -0.539756
O10   O     O_R   0.286050 0.680720 0.647930 -0.539756
O11   O     O_R   0.786050 0.819280 0.147930 -0.539346
O12   O     O_R   0.213950 0.180720 0.852070 -0.539347
O13   O     O_R   0.672470 0.142870 0.174360 -0.533647
O14   O     O_R   0.327530 0.857130 0.825640 -0.533647
O15   O     O_R   0.827530 0.642870 0.325640 -0.532993
O16   O     O_R   0.172470 0.357130 0.674360 -0.532993
C5    C     C_R   0.701907 0.488434 0.375959 0.682237
C6    C     C_R   0.298093 0.511566 0.624041 0.682238
C7    C     C_R   0.798132 0.986582 0.124007 0.682381
C8    C     C_R   0.201868 0.013418 0.875993 0.682381
O17   O     O_3   0.736530 0.478650 0.191680 -0.378374
O18   O     O_3   0.263470 0.521350 0.808320 -0.378374
O19   O     O_3   0.763470 0.978650 0.308320 -0.378664
O20   O     O_3   0.236530 0.021350 0.691680 -0.378664
V1    V     V_3+5 0.752500 0.206170 0.260820 1.425709
V2    V     V_3+5 0.247500 0.793830 0.739180 1.425709
V3    V     V_3+5 0.747500 0.706170 0.239180 1.428332
V4    V     V_3+5 0.252500 0.293830 0.760820 1.428332
C9    C     C_R   0.827552 0.990108 0.052036 -0.025132
C10   C     C_R   0.172448 0.009892 0.947964 -0.025132
C11   C     C_R   0.672355 0.501226 0.447612 -0.025450
C12   C     C_R   0.327645 0.498774 0.552388 -0.025449
C13   C     C_R   0.823509 0.941468 0.892562 -0.161444
C14   C     C_R   0.176491 0.058532 0.107438 -0.161445
C15   C     C_R   0.675611 0.581966 0.603735 -0.161156
C16   C     C_R   0.324389 0.418036 0.396265 -0.161156
C17   C     C_R   0.794265 0.953993 0.959635 -0.171415
C18   C     C_R   0.205735 0.046007 0.040365 -0.171415
C19   C     C_R   0.705113 0.555900 0.537666 -0.171882
C20   C     C_R   0.294887 0.444101 0.462334 -0.171881
C21   C     C_R   0.890189 0.013118 0.077762 -0.210940
C22   C     C_R   0.109811 0.986882 0.922238 -0.210940
C23   C     C_R   0.610018 0.473063 0.423190 -0.210938
C24   C     C_R   0.389982 0.526936 0.576810 -0.210938
C25   C     C_R   0.921426 0.996510 0.011506 0.082392
C26   C     C_R   0.078574 0.003490 0.988494 0.082392
C27   C     C_R   0.578509 0.502497 0.488279 0.082139
C28   C     C_R   0.421491 0.497503 0.511721 0.082139
C29   C     C_R   0.886596 0.960713 0.917709 0.140229
C30   C     C_R   0.113404 0.039286 0.082291 0.140229
C31   C     C_R   0.612783 0.557284 0.579736 0.139803
C32   C     C_R   0.387217 0.442716 0.420263 0.139803
C33   C     C_R   0.985822 0.010849 0.035392 0.058358
C34   C     C_R   0.014178 0.989151 0.964608 0.058358
C35   C     C_R   0.514348 0.482397 0.465321 0.058145
C36   C     C_R   0.485652 0.517603 0.534679 0.058145
C37   C     C_R   0.977192 0.954787 0.872317 -0.186473
C38   C     C_R   0.022808 0.045213 0.127683 -0.186473
C39   C     C_R   0.522084 0.570890 0.624703 -0.186459
C40   C     C_R   0.477916 0.429110 0.375296 -0.186459
C41   C     C_R   0.914849 0.941435 0.849687 -0.200854
C42   C     C_R   0.085151 0.058564 0.150313 -0.200854
C43   C     C_R   0.584214 0.589697 0.646459 -0.200631
C44   C     C_R   0.415785 0.410304 0.353541 -0.200631
H1    H     H_    0.087040 0.961906 0.849513 0.097509
H2    H     H_    0.912960 0.038094 0.150487 0.097509
H3    H     H_    0.412347 0.566686 0.647856 0.097557
H4    H     H_    0.587653 0.433312 0.352144 0.097557
H5    H     H_    0.796893 0.913156 0.821100 0.112381
H6    H     H_    0.203107 0.086844 0.178900 0.112381
H7    H     H_    0.701803 0.624575 0.673384 0.112545
H8    H     H_    0.298197 0.375426 0.326616 0.112545
C45   C     C_1   0.416774 0.006354 0.918722 -0.191299
C46   C     C_1   0.583225 0.993645 0.081278 -0.191300
C47   C     C_1   0.083220 0.507608 0.581253 -0.191270
C48   C     C_1   0.916780 0.492392 0.418747 -0.191270
C49   C     C_1   0.469145 0.002092 0.969951 0.001369
C50   C     C_1   0.530855 0.997908 0.030049 0.001369
C51   C     C_1   0.030854 0.502715 0.530037 0.001291
C52   C     C_1   0.969146 0.497285 0.469963 0.001291
H9    H     H_    0.888460 0.914084 0.777980 0.123199
H10   H     H_    0.111539 0.085916 0.222020 0.123199
H11   H     H_    0.610178 0.631559 0.716386 0.123138
H12   H     H_    0.389822 0.368442 0.283614 0.123138
H13   H     H_    0.254221 0.066215 0.060268 0.104870
H14   H     H_    0.745779 0.933785 0.939732 0.104870
H15   H     H_    0.246636 0.420144 0.443555 0.105351
H16   H     H_    0.753364 0.579858 0.556445 0.105351
H17   H     H_    0.994795 0.936537 0.815091 0.124907
H18   H     H_    0.005205 0.063462 0.184909 0.124907
H19   H     H_    0.504204 0.600180 0.680754 0.125059
H20   H     H_    0.495796 0.399821 0.319246 0.125059

loop_
_geom_bond_atom_site_label_1
_geom_bond_atom_site_label_2
_ccdc_geom_bond_type
O17   V3    S    
O1    C5    A    
O19   V1    S    
C9    C21   A    
O3    C7    A    
C10   C18   A    
C48   C52   T    
O15   V3    S    
C49   C50   S    
C25   C33   A    
C33   C38   A    
O7    C3    A    
C35   C40   A    
C26   C30   A    
C36   C39   A    
C40   C44   A    
O9    V1    S    
C14   C18   A    
O16   V4    S    
O4    C8    A    
C37   H17   S    
C39   H19   S    
O1    V3    S    
O13   V1    S    
O2    V4    S    
O3    V1    S    
C22   H1    S    
C28   C36   A    
C1    O15   A    
C15   C31   A    
C2    O16   A    
C7    C9    S    
O2    C6    A    
C10   C22   A    
C15   H7    S    
C11   C19   A    
C16   C20   A    
C13   C29   A    
C34   C37   A    
O11   C7    A    
C17   H14   S    
C11   C23   A    
C35   C36   A    
O12   C8    A    
O10   V2    S    
O5    V1    S    
C39   C43   A    
O7    V3    S    
C38   C42   A    
O8    V4    S    
C40   H20   S    
O18   V4    S    
C23   C27   A    
C16   C32   A    
C32   C44   A    
C8    C10   S    
C16   H8    S    
C1    C48   S    
C26   C34   A    
O5    C1    A    
C3    C46   S    
C46   C50   T    
C31   C43   A    
C51   C52   S    
C14   C30   A    
C21   C25   A    
O8    C4    A    
C4    C45   S    
O9    C5    A    
O11   V3    S    
C20   H15   S    
O14   V2    S    
O6    V2    S    
C38   H18   S    
C44   H12   S    
C12   C20   A    
C27   C35   A    
C24   H3    S    
C29   C41   A    
C14   H6    S    
C13   H5    S    
C3    O13   A    
C21   H2    S    
C42   H10   S    
C15   C19   A    
C2    C47   S    
C41   H9    S    
C30   C42   A    
O12   V4    S    
C6    C12   S    
C22   C26   A    
C43   H11   S    
C19   H16   S    
C18   H13   S    
C9    C17   A    
O10   C6    A    
O20   V2    S    
C5    C11   S    
C47   C51   T    
C33   C34   A    
C25   C29   A    
C12   C24   A    
C27   C31   A    
C13   C17   A    
C23   H4    S    
O6    C2    A    
C37   C41   A    
C24   C28   A    
C45   C49   T    
C4    O14   A    
O4    V2    S    
C28   C32   A    
