data_mof_unit_48637.cif
_audit_creation_date              2013-03-05T15:48:35-0500
_audit_creation_method            fapswitch 2.2
_symmetry_space_group_name_H-M    P1
_symmetry_Int_Tables_number       1
_space_group_crystal_system       triclinic
_cell_length_a                    16.704986
_cell_length_b                    16.664569
_cell_length_c                    42.540615
_cell_angle_alpha                 90.227822
_cell_angle_beta                  89.910402
_cell_angle_gamma                 120.07644
_cell_volume                      10247.9282433

loop_
_atom_site_label
_atom_site_type_symbol
_atom_site_description
_atom_site_fract_x
_atom_site_fract_y
_atom_site_fract_z
_atom_type_partial_charge
O1    O     O_R   0.509640 0.171340 0.784000 -0.484567
O2    O     O_R   0.661700 0.490360 0.716000 -0.513410
O3    O     O_R   0.828660 0.338300 0.784000 -0.476392
O4    O     O_R   0.509640 0.171340 0.716000 -0.497485
O5    O     O_R   0.661700 0.490360 0.784000 -0.484097
O6    O     O_R   0.828660 0.338300 0.716000 -0.485026
O7    O     O_R   0.171340 0.509640 0.284000 -0.497609
O8    O     O_R   0.490360 0.661700 0.216000 -0.484760
O9    O     O_R   0.338300 0.828660 0.284000 -0.493928
O10   O     O_R   0.171340 0.509640 0.216000 -0.483354
O11   O     O_R   0.490360 0.661700 0.284000 -0.520767
O12   O     O_R   0.338300 0.828660 0.216000 -0.496457
O13   O     O_R   0.539230 0.345420 0.781810 -0.473432
O14   O     O_R   0.806190 0.460770 0.718190 -0.514769
O15   O     O_R   0.654580 0.193810 0.781810 -0.470072
O16   O     O_R   0.539230 0.345420 0.718190 -0.489985
O17   O     O_R   0.806190 0.460770 0.781810 -0.462520
O18   O     O_R   0.654580 0.193810 0.718190 -0.495738
O19   O     O_R   0.345420 0.539230 0.281810 -0.488307
O20   O     O_R   0.460770 0.806190 0.218190 -0.457006
O21   O     O_R   0.193810 0.654580 0.281810 -0.489496
O22   O     O_R   0.345420 0.539230 0.218190 -0.467003
O23   O     O_R   0.460770 0.806190 0.281810 -0.507001
O24   O     O_R   0.193810 0.654580 0.218190 -0.458502
C1    C     C_R   0.582415 0.427627 0.794062 0.558267
C2    C     C_R   0.844322 0.417015 0.705896 0.550075
C3    C     C_R   0.572106 0.152989 0.793779 0.563946
C4    C     C_R   0.583008 0.426431 0.705625 0.536440
C5    C     C_R   0.843795 0.417874 0.794666 0.563538
C6    C     C_R   0.573514 0.157001 0.705322 0.561589
C7    C     C_R   0.426517 0.583237 0.294405 0.537168
C8    C     C_R   0.416034 0.841227 0.204677 0.552261
C9    C     C_R   0.156515 0.573423 0.294322 0.569938
C10   C     C_R   0.427692 0.581741 0.205958 0.546736
C11   C     C_R   0.416979 0.843966 0.294237 0.559001
C12   C     C_R   0.155569 0.573353 0.205501 0.561970
Cr1   Cr    Cr6+3 0.530290 0.262330 0.750000 1.001463
Cr2   Cr    Cr6+3 0.732040 0.469710 0.750000 1.017724
Cr3   Cr    Cr6+3 0.737670 0.267960 0.750000 1.031962
Cr4   Cr    Cr6+3 0.262330 0.530290 0.250000 1.023490
Cr5   Cr    Cr6+3 0.469710 0.732040 0.250000 1.012911
Cr6   Cr    Cr6+3 0.267960 0.737670 0.250000 1.027538
O25   O     O_3   0.666667 0.333333 0.750000 -0.241520
O26   O     O_3   0.333333 0.666667 0.250000 -0.243358
C13   C     C_R   0.895730 0.458726 0.824731 0.035643
C14   C     C_R   0.560434 0.112426 0.673980 0.031767
C15   C     C_R   0.544802 0.448221 0.822738 0.016654
C16   C     C_R   0.889578 0.446421 0.675030 0.017962
C17   C     C_R   0.551983 0.085866 0.820405 0.029581
C18   C     C_R   0.551687 0.438805 0.674492 0.022847
C19   C     C_R   0.452427 0.895455 0.324035 0.020746
C20   C     C_R   0.097579 0.557814 0.176642 0.032492
C21   C     C_R   0.440663 0.550858 0.325077 0.015361
C22   C     C_R   0.448120 0.880582 0.172228 0.010166
C23   C     C_R   0.110236 0.559213 0.324974 0.037072
C24   C     C_R   0.446506 0.544469 0.176557 0.010673
C25   C     C_R   0.056279 0.634910 0.033202 0.048383
C26   C     C_R   0.623621 0.090511 0.460203 0.048259
C27   C     C_R   0.411490 0.442937 0.027765 0.057739
C28   C     C_R   0.988088 0.599870 0.465805 0.042314
C29   C     C_R   0.593441 0.993910 0.028560 0.051312
C30   C     C_R   0.385814 0.394344 0.466536 0.027947
C31   C     C_R   0.641064 0.118076 0.526316 0.054168
C32   C     C_R   0.035724 0.621720 0.967026 0.049283
C33   C     C_R   0.387751 0.400094 0.533287 0.025571
C34   C     C_R   0.613648 0.020739 0.962696 0.052944
C35   C     C_R   0.982450 0.596684 0.532666 0.025665
C36   C     C_R   0.400786 0.447305 0.961654 0.060047
C37   C     C_R   0.070677 0.631343 0.065791 0.462510
C38   C     C_R   0.601633 0.073410 0.427813 0.482506
C39   C     C_R   0.424424 0.441906 0.060407 0.488333
C40   C     C_R   0.999663 0.603494 0.432746 0.469161
C41   C     C_R   0.574695 0.984719 0.061171 0.467215
C42   C     C_R   0.383904 0.399630 0.433262 0.451032
C43   C     C_R   0.640460 0.128670 0.559370 0.435521
C44   C     C_R   0.029127 0.605736 0.934193 0.474647
C45   C     C_R   0.396471 0.397186 0.566405 0.454149
C46   C     C_R   0.613938 0.038346 0.930164 0.460259
C47   C     C_R   0.976273 0.590113 0.565919 0.447468
C48   C     C_R   0.403282 0.450073 0.928613 0.485789
O27   O     O_2   0.144182 0.687674 0.077831 -0.463135
O28   O     O_2   0.612646 0.136414 0.410485 -0.440998
O29   O     O_2   0.400508 0.368554 0.073780 -0.464689
O30   O     O_2   0.014082 0.672423 0.418129 -0.472804
O31   O     O_2   0.622201 0.048672 0.079079 -0.459627
O32   O     O_2   0.312344 0.351285 0.418745 -0.492054
O33   O     O_2   0.681387 0.205842 0.571291 -0.507184
O34   O     O_2   0.094236 0.654473 0.917024 -0.450911
O35   O     O_2   0.339421 0.330448 0.581377 -0.487352
O36   O     O_2   0.671879 0.112934 0.919268 -0.478546
O37   O     O_2   0.959781 0.642103 0.581293 -0.545161
O38   O     O_2   0.337736 0.392546 0.913187 -0.467934
N1    N     N_R   0.003408 0.562318 0.084128 -0.380659
N2    N     N_R   0.563914 0.984835 0.415804 -0.371553
N3    N     N_R   0.465533 0.523766 0.077324 -0.368529
N4    N     N_R   0.998688 0.530748 0.416906 -0.372287
N5    N     N_R   0.501426 0.904777 0.073102 -0.373007
N6    N     N_R   0.461521 0.462964 0.417106 -0.365250
N7    N     N_R   0.592197 0.052306 0.578500 -0.379798
N8    N     N_R   0.950046 0.533533 0.921304 -0.371641
N9    N     N_R   0.472263 0.467090 0.581716 -0.365721
N10   N     N_R   0.546913 0.973243 0.910589 -0.378286
N11   N     N_R   0.985807 0.522722 0.581260 -0.348988
N12   N     N_R   0.482078 0.515338 0.913424 -0.367000
C49   C     C_R   0.918642 0.499074 0.071716 0.447407
C50   C     C_R   0.550341 0.912071 0.434813 0.410531
C51   C     C_R   0.510823 0.607777 0.061595 0.412034
C52   C     C_R   0.980474 0.451051 0.432455 0.438582
C53   C     C_R   0.445373 0.831355 0.053605 0.434930
C54   C     C_R   0.542875 0.519581 0.432756 0.426906
C55   C     C_R   0.553272 0.963790 0.566265 0.475610
C56   C     C_R   0.874312 0.477680 0.939742 0.427642
C57   C     C_R   0.539282 0.541298 0.565103 0.421637
C58   C     C_R   0.482330 0.887068 0.921768 0.444601
C59   C     C_R   0.004500 0.462612 0.564879 0.429128
C60   C     C_R   0.544662 0.595253 0.929199 0.421470
O39   O     O_2   0.859543 0.441365 0.089013 -0.463644
O40   O     O_2   0.528213 0.837261 0.422686 -0.550946
O41   O     O_2   0.541455 0.679934 0.076512 -0.534867
O42   O     O_2   0.967585 0.383343 0.417155 -0.458116
O43   O     O_2   0.383262 0.760621 0.065267 -0.480233
O44   O     O_2   0.614049 0.563566 0.417602 -0.472827
O45   O     O_2   0.508016 0.897450 0.583406 -0.456595
O46   O     O_2   0.803881 0.417872 0.927072 -0.521501
O47   O     O_2   0.596736 0.609930 0.579393 -0.479691
O48   O     O_2   0.426684 0.829586 0.903463 -0.457726
O49   O     O_2   0.026101 0.413337 0.579472 -0.528719
O50   O     O_2   0.611949 0.654920 0.915234 -0.543005
C61   C     C_R   0.901098 0.499706 0.039182 0.037909
C62   C     C_R   0.559257 0.923184 0.467869 0.024481
C63   C     C_R   0.520270 0.610175 0.028408 -0.000035
C64   C     C_R   0.980975 0.449183 0.465563 0.017198
C65   C     C_R   0.459178 0.838346 0.020478 0.002910
C66   C     C_R   0.543582 0.528306 0.465750 0.024194
C67   C     C_R   0.562343 0.949738 0.533934 0.039458
C68   C     C_R   0.878611 0.488436 0.972863 0.023521
C69   C     C_R   0.542992 0.537172 0.532073 0.022382
C70   C     C_R   0.479103 0.866290 0.954254 0.031542
C71   C     C_R   0.995853 0.456072 0.531909 0.025586
C72   C     C_R   0.532930 0.605743 0.961750 0.006394
C73   C     C_R   0.973202 0.564315 0.019630 -0.107748
C74   C     C_R   0.595112 0.013704 0.480542 -0.099821
C75   C     C_R   0.465441 0.526984 0.011507 -0.101765
C76   C     C_R   0.985399 0.524909 0.482352 -0.114674
C77   C     C_R   0.531429 0.922686 0.008030 -0.093683
C78   C     C_R   0.464734 0.463191 0.482779 -0.097297
C79   C     C_R   0.600267 0.027275 0.513608 -0.108847
C80   C     C_R   0.962399 0.558193 0.986481 -0.097637
C81   C     C_R   0.465033 0.466902 0.516016 -0.096743
C82   C     C_R   0.541491 0.936420 0.974985 -0.098312
C83   C     C_R   0.987643 0.525813 0.515669 -0.090687
C84   C     C_R   0.466175 0.526880 0.978300 -0.101541
C85   C     C_R   0.122198 0.706891 0.013900 0.097418
C86   C     C_R   0.669766 0.181531 0.472877 0.096033
C87   C     C_R   0.346782 0.362728 0.011155 0.103109
C88   C     C_R   0.983672 0.670798 0.482758 0.142730
C89   C     C_R   0.672816 0.071934 0.016018 0.104930
C90   C     C_R   0.309267 0.325981 0.483890 0.120673
C91   C     C_R   0.679592 0.195340 0.505738 0.101835
C92   C     C_R   0.112617 0.699734 0.980884 0.096245
C93   C     C_R   0.306622 0.334873 0.517003 0.120621
C94   C     C_R   0.683020 0.085163 0.983219 0.105951
C95   C     C_R   0.979893 0.669001 0.515764 0.086613
C96   C     C_R   0.338667 0.366077 0.978253 0.104921
C97   C     C_R   0.813827 0.438359 0.025709 0.130727
C98   C     C_R   0.531272 0.846935 0.488723 0.097279
C99   C     C_R   0.580550 0.692309 0.011488 0.139495
C100  C     C_R   0.980961 0.375720 0.482120 0.121814
C101  C     C_R   0.405090 0.763911 0.999319 0.077565
C102  C     C_R   0.620023 0.601279 0.481876 0.122262
C103  C     C_R   0.531958 0.860292 0.521344 0.140768
C104  C     C_R   0.802189 0.432904 0.992903 0.084951
C105  C     C_R   0.623390 0.599754 0.515038 0.119643
C106  C     C_R   0.415533 0.777999 0.966597 0.126766
C107  C     C_R   0.991157 0.380240 0.514840 0.089957
C108  C     C_R   0.588165 0.689612 0.978672 0.143050
C109  C     C_R   0.046603 0.487295 0.124792 -0.090294
C110  C     C_R   0.432723 0.899510 0.380373 -0.095583
C111  C     C_R   0.539685 0.577863 0.129268 -0.073719
C112  C     C_R   0.115375 0.538010 0.381036 -0.121648
C113  C     C_R   0.408028 0.900442 0.118644 -0.070095
C114  C     C_R   0.463904 0.576452 0.381263 -0.097709
C115  C     C_R   0.534330 0.118541 0.617967 -0.114746
C116  C     C_R   0.942136 0.435900 0.876749 -0.093577
C117  C     C_R   0.576850 0.454194 0.618203 -0.095905
C118  C     C_R   0.473288 0.019115 0.870012 -0.109584
C119  C     C_R   0.881795 0.411560 0.619500 -0.103727
C120  C     C_R   0.531953 0.557257 0.857881 -0.072540
C121  C     C_R   0.080794 0.486457 0.154875 0.076256
C122  C     C_R   0.395227 0.864574 0.350840 0.077630
C123  C     C_R   0.534205 0.592287 0.161635 0.093038
C124  C     C_R   0.149748 0.540397 0.351119 0.073745
C125  C     C_R   0.389032 0.893247 0.151257 0.090033
C126  C     C_R   0.461332 0.609280 0.351658 0.075394
C127  C     C_R   0.526858 0.142782 0.648863 0.070805
C128  C     C_R   0.917066 0.406136 0.845597 0.070464
C129  C     C_R   0.607527 0.450243 0.648069 0.078137
C130  C     C_R   0.475162 0.058339 0.840700 0.076573
C131  C     C_R   0.852052 0.382730 0.649910 0.077678
C132  C     C_R   0.556807 0.537669 0.828235 0.082429
C133  C     C_R   0.065762 0.620572 0.169121 0.104248
C134  C     C_R   0.546254 0.966120 0.327087 0.075484
C135  C     C_R   0.372450 0.469447 0.160568 0.087376
C136  C     C_R   0.031920 0.570145 0.329272 0.071877
C137  C     C_R   0.531519 0.888146 0.160140 0.101171
C138  C     C_R   0.428269 0.460529 0.328931 0.077705
C139  C     C_R   0.593450 0.050466 0.667428 0.074698
C140  C     C_R   0.912785 0.547833 0.834922 0.094902
C141  C     C_R   0.465489 0.434892 0.670196 0.081144
C142  C     C_R   0.613127 0.051521 0.826875 0.077063
C143  C     C_R   0.964651 0.537018 0.669508 0.070993
C144  C     C_R   0.504852 0.380089 0.846261 0.086329
C145  C     C_R   0.029279 0.618391 0.138906 0.148738
C146  C     C_R   0.583597 0.000111 0.357402 0.148979
C147  C     C_R   0.375503 0.465951 0.127362 0.138969
C148  C     C_R   0.992233 0.558006 0.359614 0.167603
C149  C     C_R   0.547284 0.893209 0.127340 0.155315
C150  C     C_R   0.436942 0.430692 0.359389 0.168730
C151  C     C_R   0.604921 0.030679 0.635926 0.158253
C152  C     C_R   0.933433 0.574083 0.866883 0.143025
C153  C     C_R   0.438450 0.445823 0.639533 0.169552
C154  C     C_R   0.608807 0.009810 0.856367 0.142772
C155  C     C_R   0.999912 0.562487 0.638513 0.165987
C156  C     C_R   0.493311 0.404861 0.876822 0.140588
C157  C     C_R   0.024280 0.554563 0.116487 0.227203
C158  C     C_R   0.526813 0.963852 0.384164 0.210116
C159  C     C_R   0.459980 0.521978 0.111499 0.217405
C160  C     C_R   0.035799 0.543952 0.385512 0.209544
C161  C     C_R   0.484557 0.897705 0.106682 0.231204
C162  C     C_R   0.452805 0.488768 0.385507 0.204839
C163  C     C_R   0.576603 0.066319 0.611098 0.203794
C164  C     C_R   0.944568 0.515977 0.887876 0.232227
C165  C     C_R   0.494330 0.454187 0.613498 0.204099
C166  C     C_R   0.542010 0.999083 0.878511 0.230342
C167  C     C_R   0.955841 0.500065 0.613460 0.205501
C168  C     C_R   0.503135 0.492895 0.882533 0.209224
H1    H     H_    0.041445 0.438342 0.107001 0.132718
H2    H     H_    0.388981 0.872544 0.400958 0.134949
H3    H     H_    0.605174 0.613312 0.117078 0.147248
H4    H     H_    0.148429 0.526643 0.401077 0.135384
H5    H     H_    0.363999 0.908635 0.101929 0.144355
H6    H     H_    0.476472 0.620938 0.401531 0.153290
H7    H     H_    0.510428 0.144098 0.598877 0.146207
H8    H     H_    0.954647 0.393493 0.893007 0.135380
H9    H     H_    0.619764 0.460270 0.598177 0.148777
H10   H     H_    0.418250 0.004710 0.886514 0.128167
H11   H     H_    0.849206 0.362936 0.600285 0.175611
H12   H     H_    0.535238 0.622741 0.862241 0.167431
N13   N     N_3   0.710696 0.372165 0.980970 -0.633111
H13   H     H_    0.709681 0.318159 0.968135 0.282696
H14   H     H_    0.690318 0.410026 0.966860 0.277400
N14   N     N_3   0.502828 0.782073 0.541822 -0.521940
H15   H     H_    0.434544 0.732499 0.536301 0.256189
H16   H     H_    0.544804 0.753046 0.537779 0.269332
N15   N     N_3   0.650854 0.774901 0.963212 -0.564932
H17   H     H_    0.615480 0.788052 0.945562 0.264270
H18   H     H_    0.705805 0.769815 0.953666 0.277600
N16   N     N_3   0.991464 0.303502 0.530012 -0.632652
H19   H     H_    0.055461 0.326321 0.540816 0.273181
H20   H     H_    0.937683 0.274043 0.546408 0.277117
N17   N     N_3   0.362188 0.701125 0.945825 -0.528745
H21   H     H_    0.291922 0.674332 0.950568 0.267103
H22   H     H_    0.378586 0.649423 0.950408 0.244919
N18   N     N_3   0.709840 0.655949 0.531440 -0.559690
H23   H     H_    0.720397 0.611891 0.546132 0.242529
H24   H     H_    0.765924 0.679586 0.516107 0.226363
N19   N     N_3   0.498002 0.753795 0.477785 -0.638836
H25   H     H_    0.438144 0.731907 0.464384 0.269154
H26   H     H_    0.549527 0.751340 0.464603 0.262470
N20   N     N_3   0.735305 0.383074 0.045433 -0.530406
H27   H     H_    0.707511 0.313353 0.039282 0.250734
H28   H     H_    0.685182 0.401796 0.041201 0.255609
N21   N     N_3   0.690833 0.679389 0.464633 -0.558035
H29   H     H_    0.657743 0.701759 0.449063 0.243056
H30   H     H_    0.725526 0.737254 0.479272 0.226477
N22   N     N_3   0.339936 0.672162 0.010022 -0.633429
H31   H     H_    0.285516 0.672851 0.021865 0.284214
H32   H     H_    0.373395 0.648431 0.024834 0.279973
N23   N     N_3   0.973351 0.296725 0.465636 -0.533244
H33   H     H_    0.032139 0.291794 0.470402 0.260848
H34   H     H_    0.915122 0.237025 0.473987 0.252558
N24   N     N_3   0.640585 0.778816 0.026979 -0.564986
H35   H     H_    0.681987 0.769203 0.043186 0.256935
H36   H     H_    0.601031 0.802588 0.038386 0.278689
N25   N     N_2   0.907580 0.610055 0.813157 -0.485065
H37   H     H_    0.885646 0.653306 0.822104 0.251857
C169  C     C_3   0.987160 0.657361 0.792780 -0.296803
H38   H     H_    0.975106 0.700236 0.775623 0.127194
H39   H     H_    0.998706 0.606557 0.779459 0.149226
H40   H     H_    0.049833 0.703352 0.806835 0.136908
N26   N     N_2   0.615158 0.006812 0.691995 -0.545824
H41   H     H_    0.653028 0.049445 0.710283 0.262326
C170  C     C_3   0.536892 0.920624 0.702470 -0.320286
H42   H     H_    0.486022 0.934283 0.714686 0.132006
H43   H     H_    0.560827 0.885559 0.718954 0.137784
H44   H     H_    0.502577 0.873229 0.682251 0.174933
N27   N     N_2   0.469146 0.285221 0.838380 -0.477544
H45   H     H_    0.480199 0.246064 0.854608 0.255858
C171  C     C_3   0.375540 0.240674 0.826022 -0.256358
H46   H     H_    0.367874 0.191467 0.807085 0.190281
H47   H     H_    0.358850 0.291650 0.815479 0.135268
H48   H     H_    0.324968 0.202730 0.845061 0.122250
N28   N     N_2   0.011085 0.598699 0.695045 -0.526621
H49   H     H_    0.013859 0.566530 0.715344 0.246490
C172  C     C_3   0.984802 0.667947 0.701014 -0.315867
H50   H     H_    0.037181 0.722753 0.716536 0.134717
H51   H     H_    0.916825 0.636347 0.713061 0.158791
H52   H     H_    0.980883 0.700904 0.678906 0.147155
N29   N     N_2   0.675292 0.054853 0.803191 -0.501054
H53   H     H_    0.733760 0.055613 0.811157 0.237810
C173  C     C_3   0.630987 0.987692 0.778264 -0.303124
H54   H     H_    0.683373 0.996675 0.760418 0.135561
H55   H     H_    0.577067 0.997576 0.766671 0.148609
H56   H     H_    0.598932 0.916137 0.787785 0.128902
N30   N     N_2   0.409665 0.428104 0.696546 -0.526581
H57   H     H_    0.446775 0.463415 0.716231 0.245594
C174  C     C_3   0.336733 0.335023 0.703800 -0.309007
H58   H     H_    0.366327 0.292523 0.712328 0.156422
H59   H     H_    0.293122 0.300936 0.682859 0.147242
H60   H     H_    0.291944 0.337960 0.722543 0.139961
N31   N     N_2   0.602061 0.005388 0.299810 -0.522442
H61   H     H_    0.568002 0.011591 0.280585 0.246488
C175  C     C_3   0.665983 0.973579 0.291882 -0.297194
H62   H     H_    0.640472 0.927116 0.271023 0.154350
H63   H     H_    0.675283 0.935276 0.311472 0.131156
H64   H     H_    0.734301 0.034342 0.286116 0.142723
N32   N     N_2   0.070563 0.685747 0.191893 -0.486938
H65   H     H_    0.084750 0.749042 0.183127 0.247427
C176  C     C_3   0.994911 0.648112 0.214050 -0.302136
H66   H     H_    0.004934 0.703020 0.231018 0.126188
H67   H     H_    0.992698 0.589513 0.227119 0.151735
H68   H     H_    0.928052 0.623676 0.201684 0.133086
N33   N     N_2   0.414083 0.402443 0.302348 -0.524326
H69   H     H_    0.448884 0.437755 0.282401 0.245996
C177  C     C_3   0.318663 0.333699 0.295901 -0.312203
H70   H     H_    0.279428 0.367349 0.287934 0.162864
H71   H     H_    0.284370 0.291593 0.317022 0.145138
H72   H     H_    0.316242 0.286416 0.276995 0.133026
N34   N     N_2   0.599252 0.890057 0.181043 -0.481535
H73   H     H_    0.637065 0.861072 0.172740 0.257594
C178  C     C_3   0.655474 0.978067 0.196715 -0.300856
H74   H     H_    0.703041 0.972069 0.213492 0.126048
H75   H     H_    0.611273 0.998437 0.210134 0.148782
H76   H     H_    0.697260 0.032647 0.179233 0.145079
N35   N     N_2   0.988698 0.586638 0.303251 -0.527129
H77   H     H_    0.990833 0.555434 0.282549 0.244233
C179  C     C_3   0.012811 0.682361 0.299143 -0.313163
H78   H     H_    0.081598 0.722191 0.287740 0.158334
H79   H     H_    0.014537 0.715870 0.321914 0.146866
H80   H     H_    0.960021 0.685046 0.284123 0.136984
N36   N     N_2   0.296247 0.398802 0.177833 -0.495974
H81   H     H_    0.238826 0.354681 0.164887 0.238565
C180  C     C_3   0.320368 0.347357 0.199489 -0.286224
H82   H     H_    0.257914 0.297550 0.212830 0.127768
H83   H     H_    0.373264 0.394233 0.216694 0.146859
H84   H     H_    0.347219 0.308043 0.186317 0.140424
N37   N     N_3   0.178941 0.773553 0.961419 -0.555077
H85   H     H_    0.178375 0.834416 0.966947 0.224210
H86   H     H_    0.244799 0.783781 0.965948 0.234406
N38   N     N_3   0.725892 0.288120 0.518222 -0.568058
H87   H     H_    0.793573 0.323691 0.509683 0.226629
H88   H     H_    0.690943 0.322183 0.510988 0.229473
N39   N     N_3   0.271691 0.285033 0.961487 -0.563933
H89   H     H_    0.284708 0.230802 0.965534 0.225254
H90   H     H_    0.205579 0.266117 0.969699 0.228841
N40   N     N_3   0.976506 0.744015 0.531245 -0.633209
H91   H     H_    0.033037 0.777977 0.546432 0.278162
H92   H     H_    0.914313 0.718222 0.543562 0.274203
N41   N     N_3   0.765270 0.162736 0.970674 -0.560477
H93   H     H_    0.822540 0.157213 0.977275 0.226404
H94   H     H_    0.772565 0.224142 0.979936 0.228306
N42   N     N_3   0.220697 0.281563 0.533888 -0.560234
H95   H     H_    0.214579 0.326023 0.549878 0.256982
H96   H     H_    0.164886 0.264851 0.518946 0.224488
N43   N     N_3   0.708123 0.260244 0.452247 -0.535780
H97   H     H_    0.779445 0.299654 0.455964 0.245922
H98   H     H_    0.678075 0.300796 0.457215 0.239209
N44   N     N_3   0.196595 0.789095 0.027948 -0.564574
H99   H     H_    0.189793 0.845973 0.021708 0.220856
H100  H     H_    0.259755 0.799575 0.019482 0.233614
N45   N     N_3   0.236870 0.245751 0.467883 -0.559543
H101  H     H_    0.268736 0.216459 0.454685 0.252967
H102  H     H_    0.196533 0.192960 0.483678 0.234067
N46   N     N_3   0.744698 0.136246 0.036643 -0.552816
H103  H     H_    0.806043 0.136648 0.031426 0.226152
H104  H     H_    0.754712 0.202600 0.033110 0.232489
N47   N     N_3   0.980852 0.744625 0.466405 -0.532368
H105  H     H_    0.919764 0.743813 0.472489 0.256407
H106  H     H_    0.037065 0.807764 0.473710 0.252377
N48   N     N_3   0.286328 0.279223 0.027970 -0.564563
H107  H     H_    0.217778 0.261872 0.023990 0.222806
H108  H     H_    0.296129 0.225624 0.019715 0.232530
N49   N     N_3   0.940801 0.658291 0.878658 -0.580723
H109  H     H_    0.877228 0.655180 0.875612 0.233638
H110  H     H_    0.991517 0.714032 0.865818 0.239663
N50   N     N_3   0.650046 0.978708 0.628968 -0.553745
H111  H     H_    0.611791 0.912926 0.638959 0.270019
H112  H     H_    0.715517 0.012139 0.639397 0.226166
N51   N     N_3   0.472525 0.341198 0.902329 -0.593434
H113  H     H_    0.525335 0.325071 0.903932 0.230695
H114  H     H_    0.410215 0.280380 0.897604 0.252430
N52   N     N_3   0.082488 0.648868 0.632385 -0.552888
H115  H     H_    0.135350 0.653255 0.646705 0.247555
H116  H     H_    0.071027 0.703129 0.638289 0.248938
N53   N     N_3   0.670637 0.976707 0.864207 -0.590593
H117  H     H_    0.738325 0.032561 0.864282 0.227497
H118  H     H_    0.664661 0.928604 0.847176 0.224217
N54   N     N_3   0.357907 0.453985 0.634789 -0.551190
H119  H     H_    0.363447 0.507879 0.648993 0.248666
H120  H     H_    0.299645 0.392440 0.641801 0.252171
N55   N     N_3   0.679278 0.068434 0.361353 -0.544365
H121  H     H_    0.693900 0.125882 0.347505 0.271691
H122  H     H_    0.719720 0.040791 0.353515 0.223867
N56   N     N_3   0.996768 0.680383 0.130431 -0.598045
H123  H     H_    0.051850 0.748444 0.131396 0.222893
H124  H     H_    0.946183 0.672962 0.146515 0.223453
N57   N     N_3   0.434380 0.344280 0.363949 -0.555370
H125  H     H_    0.482956 0.342070 0.348992 0.254337
H126  H     H_    0.368796 0.290117 0.357943 0.243847
N58   N     N_3   0.626728 0.893267 0.114454 -0.576006
H127  H     H_    0.623232 0.830669 0.120169 0.247295
H128  H     H_    0.686408 0.948113 0.124383 0.236364
N59   N     N_3   0.905434 0.554434 0.364167 -0.538829
H129  H     H_    0.856525 0.503694 0.349198 0.252574
H130  H     H_    0.912598 0.618320 0.358106 0.255769
N60   N     N_3   0.292897 0.410122 0.109482 -0.578737
H131  H     H_    0.244247 0.429819 0.114989 0.218391
H132  H     H_    0.266391 0.340292 0.115062 0.249383
N61   N     N_2   0.107340 0.420011 0.162310 -0.492129
H133  H     H_    0.177427 0.446527 0.160453 0.273994
C181  C     C_3   0.050744 0.326148 0.150723 -0.308142
H134  H     H_    0.066346 0.279002 0.164366 0.141475
H135  H     H_    0.066131 0.321642 0.125588 0.129023
H136  H     H_    0.976117 0.302760 0.153723 0.175433
N62   N     N_2   0.301867 0.791293 0.348700 -0.493760
H137  H     H_    0.285892 0.739709 0.364989 0.253196
C182  C     C_3   0.235034 0.822220 0.349012 -0.271181
H138  H     H_    0.164497 0.761482 0.346614 0.152305
H139  H     H_    0.247601 0.870067 0.329105 0.167649
H140  H     H_    0.238829 0.857898 0.371562 0.145525
N63   N     N_2   0.614850 0.653350 0.179593 -0.491133
H141  H     H_    0.617724 0.628749 0.201534 0.258115
C183  C     C_3   0.704026 0.706033 0.164434 -0.315028
H142  H     H_    0.755857 0.753207 0.181870 0.134810
H143  H     H_    0.700514 0.749435 0.145354 0.152010
H144  H     H_    0.727058 0.658639 0.155005 0.145132
N64   N     N_2   0.224323 0.523086 0.347584 -0.494932
H145  H     H_    0.277468 0.561198 0.363142 0.252456
C184  C     C_3   0.195126 0.425401 0.348887 -0.254249
H146  H     H_    0.255296 0.415808 0.345338 0.149483
H147  H     H_    0.143620 0.386616 0.330149 0.169821
H148  H     H_    0.164506 0.396226 0.372218 0.173250
N65   N     N_2   0.312124 0.899270 0.163387 -0.484363
H149  H     H_    0.328387 0.943719 0.182296 0.262439
C185  C     C_3   0.245890 0.901644 0.142073 -0.301682
H150  H     H_    0.187887 0.898744 0.155764 0.121261
H151  H     H_    0.217187 0.840791 0.126016 0.199244
H152  H     H_    0.278992 0.967133 0.128404 0.143310
N66   N     N_2   0.478920 0.701752 0.349655 -0.501497
H153  H     H_    0.443660 0.714508 0.332441 0.282077
C186  C     C_3   0.575925 0.770767 0.352085 -0.243702
H154  H     H_    0.583482 0.840003 0.354707 0.158497
H155  H     H_    0.613486 0.769453 0.330699 0.146619
H156  H     H_    0.607554 0.758614 0.373174 0.181191
N67   N     N_2   0.492262 0.204194 0.654127 -0.483628
H157  H     H_    0.517269 0.257791 0.638172 0.257536
C187  C     C_3   0.392597 0.158142 0.656449 -0.269358
H158  H     H_    0.371439 0.210076 0.661791 0.145396
H159  H     H_    0.367310 0.105947 0.675587 0.163963
H160  H     H_    0.360225 0.123405 0.633842 0.145270
N68   N     N_2   0.912743 0.322647 0.835714 -0.497315
H161  H     H_    0.974042 0.323374 0.839615 0.250532
C188  C     C_3   0.834564 0.239771 0.848102 -0.246389
H162  H     H_    0.837488 0.178743 0.839317 0.124995
H163  H     H_    0.768862 0.234989 0.840332 0.196165
H164  H     H_    0.836742 0.239200 0.874205 0.172060
N69   N     N_2   0.695942 0.458398 0.650748 -0.517868
H165  H     H_    0.704180 0.420440 0.668141 0.282085
C189  C     C_3   0.773546 0.550951 0.645906 -0.265162
H166  H     H_    0.809983 0.579511 0.668468 0.153903
H167  H     H_    0.751756 0.599325 0.636536 0.174919
H168  H     H_    0.821639 0.547902 0.628702 0.177982
N70   N     N_2   0.398019 0.066942 0.831671 -0.500946
H169  H     H_    0.362379 0.073417 0.850423 0.239128
C190  C     C_3   0.336174 0.995926 0.809887 -0.288940
H170  H     H_    0.280679 0.010165 0.802642 0.123171
H171  H     H_    0.303828 0.926702 0.821270 0.148974
H172  H     H_    0.373935 0.995078 0.788482 0.160194
N71   N     N_2   0.785960 0.287982 0.655238 -0.484775
H173  H     H_    0.731229 0.261716 0.639690 0.269505
C191  C     C_3   0.827455 0.229896 0.657167 -0.256163
H174  H     H_    0.777582 0.162187 0.667463 0.152457
H175  H     H_    0.889458 0.261894 0.672645 0.168371
H176  H     H_    0.847676 0.218629 0.633363 0.152915
N72   N     N_2   0.590678 0.604782 0.803418 -0.495242
H177  H     H_    0.567475 0.578308 0.781206 0.251850
C192  C     C_3   0.603327 0.696406 0.808533 -0.306075
H178  H     H_    0.635219 0.739589 0.787348 0.135984
H179  H     H_    0.650723 0.730900 0.828682 0.171429
H180  H     H_    0.535509 0.691837 0.812735 0.142983

loop_
_geom_bond_atom_site_label_1
_geom_bond_atom_site_label_2
_geom_bond_distance
_ccdc_geom_bond_type
C64   C76   1.416873 A    
C100  C107  1.399744 A    
C117  C165  1.393213 A    
N66   H153  1.027862 S    
N15   H18   1.044642 S    
C9    C23   1.473050 S    
N37   H85   1.044894 S    
N55   H122  1.043931 S    
N9    C57   1.378030 Am   
C52   O42   1.222397 D    
C45   N9    1.379327 Am   
N26   H41   1.028027 S    
C69   C81   1.414826 A    
N28   C172  1.447096 S    
C182  H138  1.107913 S    
C188  H164  1.111329 S    
C10   C24   1.495687 S    
C45   O35   1.221554 D    
N24   H35   1.045376 S    
C135  C147  1.415444 A    
N58   H127  1.044804 S    
N50   H112  1.045087 S    
C56   O46   1.220873 D    
C76   C83   1.417709 A    
C37   N1    1.379555 Am   
C39   N3    1.380297 Am   
C28   C40   1.416699 A    
C114  H6    1.084661 S    
O24   Cr6   1.885213 S    
N42   H95   1.045826 S    
O10   Cr4   1.999861 S    
C20   C133  1.427919 A    
O12   Cr6   1.999552 S    
N12   C60   1.384370 Am   
C147  N60   1.435005 S    
N72   H177  1.031590 S    
C18   C141  1.420460 A    
C184  H147  1.110912 S    
C70   C106  1.416521 A    
C146  N55   1.433383 S    
C169  H39   1.111110 S    
C114  C126  1.384386 A    
C72   C84   1.415050 A    
O1    Cr1   2.000454 S    
N29   C173  1.444876 S    
N4    C52   1.376717 Am   
C24   C123  1.419588 A    
O3    Cr3   1.995988 S    
C50   O40   1.220906 D    
N56   H124  1.044810 S    
C21   C126  1.414663 A    
C191  H175  1.111948 S    
Cr6   O26   1.971752 S    
C180  H83   1.110104 S    
C36   C96   1.416059 A    
C66   C78   1.417003 A    
C33   C45   1.420099 A    
C97   N20   1.436964 S    
C16   C131  1.409844 A    
C53   C65   1.423393 A    
C175  H62   1.110634 S    
C35   C47   1.418865 A    
C144  N27   1.420854 S    
C177  H71   1.108278 S    
C26   C38   1.417138 A    
N48   H108  1.044925 S    
N33   H69   1.031422 S    
C5    C13   1.502178 S    
C48   O38   1.222180 D    
C174  H60   1.110160 S    
N64   C184  1.447673 S    
C69   C105  1.419727 A    
N10   C58   1.379612 Am   
O14   Cr2   1.888341 S    
O15   C3    1.296655 A    
N28   H49   1.031461 S    
C72   C108  1.422827 A    
C22   C137  1.429537 A    
C143  C155  1.420261 A    
C90   N45   1.445175 S    
C134  C146  1.419751 A    
O15   Cr3   1.890237 S    
C40   O30   1.221491 D    
C19   C122  1.409424 A    
O5    C1    1.282291 A    
C187  H159  1.110910 S    
C59   C71   1.408409 A    
N10   C166  1.447328 S    
C11   C19   1.475873 S    
N45   H101  1.046038 S    
C57   C69   1.409301 A    
C65   C77   1.419932 A    
N47   H105  1.045905 S    
C63   C75   1.413950 A    
C109  H1    1.081955 S    
C182  H140  1.111612 S    
C50   C62   1.415924 A    
C154  C166  1.400908 A    
N46   H104  1.043599 S    
N7    C163  1.450087 S    
N43   H97   1.044653 S    
C61   C97   1.415316 A    
C44   N8    1.377451 Am   
N49   H109  1.045209 S    
O23   Cr5   1.884523 S    
Cr2   O25   1.967221 S    
N69   C189  1.448961 S    
N53   H117  1.044036 S    
C154  N53   1.433873 S    
C53   O43   1.220371 D    
C29   C77   1.416628 A    
C20   C121  1.417023 A    
N23   H34   1.045902 S    
C33   C81   1.417348 A    
C38   O28   1.221372 D    
N3    C159  1.456092 S    
C183  H143  1.110283 S    
C177  H70   1.108831 S    
C40   N4    1.377570 Am   
N1    C157  1.442695 S    
C111  C123  1.407495 A    
C176  H67   1.109995 S    
N25   C169  1.446242 S    
N31   H61   1.031659 S    
C33   C93   1.420710 A    
C185  H151  1.110430 S    
C93   N42   1.445402 S    
C117  C129  1.384810 A    
N44   H99   1.044908 S    
C89   C94   1.410142 A    
C54   O44   1.222427 D    
N14   H15   1.045733 S    
N62   C182  1.445288 S    
C142  C154  1.420843 A    
N16   H20   1.045636 S    
N36   H81   1.027396 S    
C31   C91   1.419516 A    
C42   N6    1.377972 Am   
N61   H133  1.026517 S    
C130  N70   1.419819 S    
N66   C186  1.445993 S    
C137  C149  1.414541 A    
N13   H13   1.043657 S    
C148  C160  1.404868 A    
N4    C160  1.442018 S    
N26   C170  1.446349 S    
N68   C188  1.444468 S    
N17   H21   1.045244 S    
C58   O48   1.221446 D    
C120  C132  1.414364 A    
N51   H113  1.045519 S    
C104  N13   1.437341 S    
C121  N61   1.420636 S    
C174  H59   1.109188 S    
O3    C5    1.299155 A    
C119  H11   1.084038 S    
C92   N37   1.437241 S    
C114  C162  1.390169 A    
C181  H134  1.109663 S    
N18   H23   1.046224 S    
C172  H51   1.109236 S    
C17   C142  1.426436 A    
C190  H170  1.110278 S    
C47   O37   1.220033 D    
C77   C82   1.421312 A    
C12   C20   1.504126 S    
C19   C134  1.417634 A    
C13   C128  1.415348 A    
C27   C75   1.411684 A    
C32   C80   1.417792 A    
N27   C171  1.452089 S    
C47   N11   1.377655 Am   
C101  N22   1.437241 S    
C115  H7    1.083740 S    
C56   C68   1.417014 A    
C31   C79   1.416831 A    
N38   H87   1.044162 S    
N57   H126  1.043152 S    
C113  H5    1.080879 S    
N67   H157  1.030982 S    
C39   O29   1.221797 D    
C178  H75   1.111147 S    
O22   C10   1.298591 A    
O7    C9    1.282082 A    
C124  N64   1.420218 S    
O8    Cr5   1.993809 S    
N32   C176  1.444116 S    
N67   C187  1.445707 S    
C7    C21   1.477782 S    
O21   Cr6   1.890327 S    
C192  H179  1.110854 S    
C170  H42   1.111563 S    
N5    C53   1.381239 Am   
O2    Cr2   2.001423 S    
N70   H169  1.031852 S    
C136  N35   1.423363 S    
N39   H89   1.044980 S    
C88   N47   1.436932 S    
N7    C55   1.379544 Am   
C43   N7    1.381862 Am   
C21   C138  1.423066 A    
C116  H8    1.083419 S    
O8    C10   1.285554 A    
N54   H119  1.045413 S    
N71   C191  1.448295 S    
C41   O31   1.222180 D    
C68   C80   1.418583 A    
C43   O33   1.221940 D    
C13   C140  1.430166 A    
C67   C79   1.416080 A    
C173  H55   1.110142 S    
C119  C167  1.394552 A    
C54   C66   1.409971 A    
C179  H80   1.108796 S    
C115  C163  1.398120 A    
C118  H10   1.083443 S    
O9    C11   1.283392 A    
N52   H115  1.045398 S    
O20   C8    1.292747 A    
C186  H156  1.111408 S    
N11   C167  1.442955 S    
C153  C165  1.408921 A    
N20   H27   1.044619 S    
C74   C79   1.419667 A    
C6    C14   1.485797 S    
C30   C42   1.419986 A    
C151  C163  1.407210 A    
N47   H106  1.045682 S    
N19   H25   1.045200 S    
C188  H163  1.110624 S    
C136  C148  1.418281 A    
N24   H36   1.043465 S    
C85   C92   1.411642 A    
N58   H128  1.045285 S    
N16   H19   1.044726 S    
C134  N31   1.426534 S    
C86   C91   1.412236 A    
C108  N15   1.436205 S    
O6    C2    1.278295 A    
C95   N40   1.436614 S    
C31   C43   1.417118 A    
C71   C83   1.418898 A    
N21   H30   1.043906 S    
N42   H96   1.044527 S    
C147  C159  1.414216 A    
O17   Cr2   1.891960 S    
C58   C70   1.420380 A    
C111  C159  1.402226 A    
C62   C74   1.419107 A    
C171  H48   1.111776 S    
C52   C64   1.409020 A    
C145  C157  1.396804 A    
O19   Cr4   1.891291 S    
C109  C157  1.393932 A    
C35   C95   1.424692 A    
N12   C168  1.454987 S    
N22   H31   1.043737 S    
C184  H146  1.104097 S    
C66   C102  1.421155 A    
C102  N21   1.446782 S    
C3    C17   1.509694 S    
N41   H94   1.043640 S    
N30   C174  1.447101 S    
C36   C48   1.406350 A    
N6    C54   1.375870 Am   
C46   N10   1.379248 Am   
C141  C153  1.423002 A    
C149  N58   1.434623 S    
C189  H166  1.107270 S    
O19   C7    1.289787 A    
C91   N38   1.437687 S    
C180  H82   1.110612 S    
C189  H168  1.105641 S    
N59   H130  1.043369 S    
C24   C135  1.414861 A    
C46   O36   1.222305 D    
C155  N52   1.433366 S    
C48   N12   1.378780 Am   
C152  N49   1.434144 S    
C38   N2    1.378253 Am   
C34   C82   1.416636 A    
C190  H172  1.111009 S    
C144  C156  1.404445 A    
C110  C122  1.393135 A    
N63   C183  1.447904 S    
C61   C73   1.416332 A    
N60   H131  1.043679 S    
C112  H4    1.084075 S    
C150  N57   1.433023 S    
C34   C94   1.416517 A    
N27   H45   1.030160 S    
C8    C22   1.508465 S    
C122  N62   1.422152 S    
N65   C185  1.447459 S    
C65   C101  1.426739 A    
N40   H91   1.045369 S    
C150  C162  1.405939 A    
C105  N18   1.446298 S    
C111  H3    1.080556 S    
C26   C86   1.417207 A    
C90   C93   1.418799 A    
C68   C104  1.425358 A    
C88   C95   1.405154 A    
C115  C127  1.397151 A    
C98   N19   1.437001 S    
C30   C90   1.421834 A    
C67   C103  1.415084 A    
N35   C179  1.447549 S    
C113  C125  1.414793 A    
C1    C15   1.486977 S    
C2    C16   1.471908 S    
O16   Cr1   1.891503 S    
N33   C177  1.448090 S    
C132  N72   1.434858 S    
N30   H57   1.031456 S    
N37   H86   1.043537 S    
O5    Cr2   1.996784 S    
C94   N41   1.437586 S    
C49   O39   1.221763 D    
C125  N65   1.433068 S    
C126  N66   1.419653 S    
C51   O41   1.220129 D    
C18   C129  1.410732 A    
O20   Cr5   1.891903 S    
C182  H139  1.110846 S    
C34   C46   1.415296 A    
C145  N56   1.434592 S    
C137  N34   1.427851 S    
C55   O45   1.221646 D    
N64   H145  1.030987 S    
N50   H111  1.044739 S    
C181  H135  1.110350 S    
C179  H78   1.110243 S    
C29   C41   1.413624 A    
C116  C128  1.402132 A    
C87   N48   1.437053 S    
C25   C85   1.416609 A    
C103  N14   1.437606 S    
C112  C160  1.394316 A    
C70   C82   1.415486 A    
C119  C131  1.383778 A    
Cr1   O25   1.971869 S    
N11   C59   1.376135 Am   
O18   Cr3   1.886309 S    
C28   C88   1.415309 A    
N25   H37   1.029901 S    
C36   C84   1.412885 A    
C143  N28   1.425836 S    
C78   C81   1.414927 A    
C62   C98   1.425630 A    
N34   H73   1.029983 S    
C16   C143  1.418263 A    
C135  N36   1.430999 S    
C184  H148  1.111813 S    
C32   C92   1.417786 A    
C169  H40   1.111344 S    
C170  H44   1.111115 S    
O24   C12   1.288536 A    
C96   N39   1.436946 S    
C133  C145  1.415902 A    
N54   H120  1.043624 S    
N3    C51   1.387208 Am   
C75   C84   1.412661 A    
N70   C190  1.447563 S    
N8    C56   1.380048 Am   
C129  N69   1.418490 S    
C131  N71   1.420626 S    
N9    C165  1.446843 S    
N56   H123  1.043292 S    
C191  H176  1.111673 S    
N44   H100  1.043085 S    
C110  H2    1.083870 S    
C180  H84   1.111404 S    
N14   H16   1.046030 S    
C185  H150  1.109918 S    
C153  N54   1.433179 S    
C177  H72   1.110198 S    
N36   C180  1.449039 S    
N48   H107  1.044950 S    
C186  H155  1.110719 S    
C25   C73   1.415621 A    
C23   C124  1.408358 A    
C192  H180  1.110950 S    
C156  C168  1.412161 A    
N23   H33   1.045915 S    
N32   H65   1.029603 S    
C28   C76   1.417259 A    
C106  N17   1.437139 S    
N19   H26   1.044304 S    
C55   C67   1.414884 A    
C23   C136  1.419887 A    
O23   C11   1.291742 A    
C37   O27   1.222331 D    
N2    C158  1.449041 S    
C107  N16   1.437023 S    
C187  H160  1.111683 S    
O4    Cr1   1.992499 S    
N18   H24   1.043372 S    
C172  H50   1.109864 S    
N55   H121  1.045397 S    
N45   H102  1.043359 S    
C128  N68   1.418597 S    
O6    Cr3   1.999295 S    
C118  C130  1.403197 A    
O10   C12   1.296419 A    
C100  N23   1.437362 S    
C123  N63   1.434224 S    
C102  C105  1.412812 A    
O16   C4    1.287641 A    
C173  H54   1.109994 S    
C176  H66   1.108097 S    
C71   C107  1.422639 A    
N68   H161  1.031669 S    
N46   H103  1.044932 S    
N38   H88   1.044929 S    
N57   H125  1.045394 S    
N63   H141  1.031713 S    
C14   C127  1.415198 A    
N51   H114  1.045317 S    
N29   H53   1.028374 S    
C138  C150  1.423034 A    
C41   N5    1.378248 Am   
N49   H110  1.045348 S    
O9    Cr6   1.993478 S    
N69   H165  1.028505 S    
C29   C89   1.417298 A    
N53   H118  1.045393 S    
O17   C5    1.288019 A    
C57   O47   1.222652 D    
N15   H17   1.045712 S    
C59   O49   1.221313 D    
C192  H178  1.110543 S    
C89   N46   1.437451 S    
C26   C74   1.417832 A    
C183  H144  1.110995 S    
C73   C80   1.418737 A    
N1    C49   1.377217 Am   
C4    C18   1.477452 S    
N5    C161  1.449389 S    
C169  H38   1.110190 S    
C113  C161  1.397012 A    
N31   C175  1.449057 S    
C185  H152  1.110909 S    
O7    Cr4   1.998401 S    
C120  H12   1.080112 S    
O18   C6    1.294937 A    
O21   C9    1.288690 A    
N71   H173  1.031237 S    
C44   O34   1.221859 D    
O13   Cr1   1.883941 S    
C120  C168  1.404204 A    
C170  H43   1.109684 S    
C148  N59   1.433947 S    
C149  C161  1.399277 A    
C97   C104  1.405657 A    
C138  N33   1.426262 S    
O11   C7    1.283917 A    
C98   C103  1.403724 A    
C22   C125  1.424017 A    
N6    C162  1.442564 S    
C15   C144  1.408325 A    
O12   C8    1.299362 A    
N39   H90   1.044907 S    
O13   C1    1.293738 A    
N65   H149  1.031415 S    
C133  N32   1.424469 S    
C181  H136  1.111414 S    
N52   H116  1.043523 S    
C17   C130  1.418554 A    
N43   H98   1.044913 S    
Cr3   O25   1.972014 S    
C14   C139  1.419878 A    
N13   H14   1.045557 S    
C109  C121  1.405197 A    
C152  C164  1.399188 A    
N61   C181  1.447944 S    
C35   C83   1.421582 A    
C187  H158  1.109205 S    
N8    C164  1.444448 S    
C116  C164  1.395413 A    
C51   C63   1.418808 A    
C112  C124  1.387902 A    
N59   H129  1.045431 S    
N17   H22   1.045679 S    
C171  H46   1.107983 S    
C27   C87   1.414594 A    
C49   C61   1.416310 A    
C188  H162  1.105915 S    
O14   C2    1.293216 A    
C101  C106  1.408552 A    
C175  H63   1.109104 S    
C186  H154  1.101195 S    
C179  H79   1.109361 S    
C85   N44   1.437938 S    
C140  C152  1.415795 A    
Cr4   O26   1.967227 S    
C191  H174  1.104394 S    
C172  H52   1.109398 S    
O22   Cr4   1.889034 S    
N21   H29   1.045425 S    
C32   C44   1.414957 A    
N72   C192  1.448265 S    
C42   O32   1.221676 D    
C156  N51   1.436064 S    
C171  H47   1.114157 S    
C142  N29   1.426870 S    
C155  C167  1.409249 A    
N34   C178  1.446095 S    
N22   H32   1.044279 S    
C30   C78   1.418574 A    
C176  H68   1.110985 S    
C15   C132  1.419361 A    
C151  N50   1.434421 S    
C86   N43   1.437468 S    
C117  H9    1.084389 S    
N41   H93   1.044925 S    
C178  H76   1.111314 S    
N2    C50   1.381074 Am   
C64   C100  1.414702 A    
C139  N26   1.422894 S    
C189  H167  1.112826 S    
C127  N67   1.421992 S    
C87   C96   1.410420 A    
C139  C151  1.414322 A    
C175  H64   1.109407 S    
C25   C37   1.414013 A    
C183  H142  1.110409 S    
C190  H171  1.111771 S    
C140  N25   1.427668 S    
N60   H132  1.044994 S    
Cr5   O26   1.972124 S    
O11   Cr5   2.001340 S    
N20   H28   1.045741 S    
C174  H58   1.109594 S    
C146  C158  1.410180 A    
N40   H92   1.044610 S    
C110  C158  1.398703 A    
C99   N24   1.436555 S    
C63   C99   1.424666 A    
N62   H137  1.031760 S    
C60   O50   1.219600 D    
C173  H56   1.111698 S    
O1    C3    1.295255 A    
C178  H74   1.110272 S    
O2    C4    1.285367 A    
C118  C166  1.395156 A    
N35   H77   1.030563 S    
C141  N30   1.425123 S    
O4    C6    1.286515 A    
C27   C39   1.407148 A    
C99   C108  1.404187 A    
C60   C72   1.420591 A    
