data_mof_unit_17328.cif
_audit_creation_date              2012-12-11T20:51:00-0500
_audit_creation_method            fapswitch 2.2
_symmetry_space_group_name_H-M    P1
_symmetry_Int_Tables_number       1
_space_group_crystal_system       triclinic
_cell_length_a                    30.589657
_cell_length_b                    33.956923
_cell_length_c                    8.382662
_cell_angle_alpha                 90.000041
_cell_angle_beta                  89.957887
_cell_angle_gamma                 89.99995
_cell_volume                      8707.32540605

loop_
_atom_site_label
_atom_site_type_symbol
_atom_type_description
_atom_site_fract_x
_atom_site_fract_y
_atom_site_fract_z
_atom_type_partial_charge
Ba1   Ba    Ba6+2 0.999930 0.472870 0.844940 1.663757
Ba2   Ba    Ba6+2 0.999930 0.527130 0.344940 1.663758
Ba3   Ba    Ba6+2 0.499930 0.972870 0.844940 1.663754
Ba4   Ba    Ba6+2 0.499930 0.027130 0.344940 1.663766
C1    C     C_3   0.017502 0.284023 0.505996 -0.306811
C2    C     C_3   0.017493 0.715995 0.006292 -0.306882
C3    C     C_3   0.517519 0.784023 0.506077 -0.306907
C4    C     C_3   0.517584 0.216018 0.006650 -0.306779
C5    C     C_R   0.251187 0.697823 0.005201 -0.028596
C6    C     C_R   0.251162 0.302148 0.505108 -0.028598
C7    C     C_R   0.751211 0.197783 0.005430 -0.028592
C8    C     C_R   0.751182 0.802186 0.505330 -0.028602
C9    C     C_R   0.219897 0.669399 0.957968 0.633329
C10   C     C_R   0.219871 0.330571 0.457875 0.633309
C11   C     C_R   0.719925 0.169358 0.958174 0.633345
C12   C     C_R   0.719893 0.830609 0.458079 0.633342
C13   C     C_R   0.161612 0.715059 0.008915 0.610432
C14   C     C_R   0.161583 0.284941 0.509180 0.610460
C15   C     C_R   0.661644 0.215067 0.008511 0.610374
C16   C     C_R   0.661616 0.784930 0.508758 0.610418
C17   C     C_R   0.192121 0.744553 0.052256 -0.023081
C18   C     C_R   0.192094 0.255446 0.552502 -0.023099
C19   C     C_R   0.692153 0.244562 0.051845 -0.023088
C20   C     C_R   0.692126 0.755437 0.552087 -0.023098
C21   C     C_R   0.237131 0.735638 0.052392 -0.051347
C22   C     C_R   0.237106 0.264347 0.552459 -0.051323
C23   C     C_R   0.737157 0.235622 0.052309 -0.051357
C24   C     C_R   0.737131 0.764362 0.552376 -0.051336
C25   C     C_R   0.296193 0.689212 0.007868 -0.060470
C26   C     C_R   0.296169 0.310747 0.507617 -0.060485
C27   C     C_R   0.796210 0.189149 0.008424 -0.060462
C28   C     C_R   0.796181 0.810808 0.508156 -0.060478
C29   C     C_R   0.826604 0.217302 0.058690 -0.072272
C30   C     C_R   0.826579 0.782657 0.558415 -0.072284
C31   C     C_R   0.326592 0.717363 0.058113 -0.072273
C32   C     C_R   0.326571 0.282597 0.557858 -0.072288
C33   C     C_R   0.813092 0.255243 0.105362 -0.022339
C34   C     C_R   0.813070 0.744731 0.605246 -0.022352
C35   C     C_R   0.313077 0.755279 0.105097 -0.022350
C36   C     C_R   0.313056 0.244695 0.604991 -0.022368
C37   C     C_R   0.768228 0.264587 0.100377 -0.049691
C38   C     C_R   0.768205 0.735399 0.600435 -0.049673
C39   C     C_R   0.268205 0.764601 0.100445 -0.049684
C40   C     C_R   0.268182 0.235385 0.600502 -0.049671
C41   C     C_R   0.178675 0.782644 0.097196 -0.070693
C42   C     C_R   0.178647 0.217369 0.597595 -0.070707
C43   C     C_R   0.678710 0.282676 0.096460 -0.070710
C44   C     C_R   0.678686 0.717336 0.596867 -0.070711
C45   C     C_3   0.988961 0.331661 0.039157 0.322188
C46   C     C_3   0.988973 0.668345 0.539185 0.322216
C47   C     C_3   0.488980 0.831647 0.039079 0.322243
C48   C     C_3   0.488995 0.168360 0.539036 0.322290
C49   C     C_R   0.709275 0.311305 0.141106 -0.070427
C50   C     C_R   0.709253 0.688709 0.641504 -0.070441
C51   C     C_R   0.209241 0.811272 0.141830 -0.070431
C52   C     C_R   0.209216 0.188740 0.642208 -0.070438
C53   C     C_R   0.754296 0.302675 0.144371 -0.027730
C54   C     C_R   0.754275 0.697326 0.644594 -0.027747
C55   C     C_R   0.254269 0.802665 0.144757 -0.027738
C56   C     C_R   0.254245 0.197333 0.644968 -0.027748
C57   C     C_R   0.785667 0.331138 0.191280 0.590794
C58   C     C_R   0.785650 0.668863 0.691490 0.590811
C59   C     C_R   0.285644 0.831129 0.191639 0.590796
C60   C     C_R   0.285623 0.168870 0.691835 0.590802
C61   C     C_R   0.843424 0.283977 0.157171 0.588031
C62   C     C_R   0.843406 0.716000 0.657048 0.588083
C63   C     C_R   0.343415 0.784010 0.156896 0.588104
C64   C     C_R   0.343397 0.215965 0.656782 0.588144
C65   C     C_2   0.122146 0.646504 0.777480 -0.094555
C66   C     C_2   0.122129 0.353482 0.277521 -0.094649
C67   C     C_2   0.622170 0.146483 0.777425 -0.094405
C68   C     C_2   0.622146 0.853498 0.277474 -0.094530
C69   C     C_3   0.095687 0.612952 0.735550 -0.040760
C70   C     C_3   0.095682 0.387039 0.235562 -0.040691
C71   C     C_3   0.595697 0.112937 0.735528 -0.040839
C72   C     C_3   0.595688 0.887050 0.235545 -0.040743
C73   C     C_1   0.099774 0.588455 0.006400 0.033231
C74   C     C_1   0.099768 0.411544 0.506405 0.033224
C75   C     C_1   0.599780 0.088453 0.006396 0.033263
C76   C     C_1   0.599772 0.911544 0.506402 0.033232
C77   C     C_2   0.132671 0.615472 0.044748 0.125229
C78   C     C_2   0.132657 0.384521 0.544774 0.125249
C79   C     C_2   0.632682 0.115466 0.044731 0.125254
C80   C     C_2   0.632666 0.884525 0.544757 0.125242
C81   C     C_2   0.143731 0.647315 0.926678 0.212750
C82   C     C_2   0.143708 0.352670 0.426730 0.212787
C83   C     C_2   0.643757 0.147297 0.926621 0.212705
C84   C     C_2   0.643728 0.852684 0.426678 0.212728
C85   C     C_R   0.883537 0.346401 0.386481 -0.092705
C86   C     C_R   0.883531 0.653596 0.886491 -0.092703
C87   C     C_R   0.383532 0.846402 0.386486 -0.092712
C88   C     C_R   0.383516 0.153589 0.886515 -0.092694
C89   C     C_3   0.974202 0.289797 0.004961 -0.297375
C90   C     C_3   0.974224 0.710213 0.505019 -0.297360
C91   C     C_3   0.474257 0.789775 0.004815 -0.297308
C92   C     C_3   0.474288 0.210240 0.504844 -0.297358
C93   C     C_R   0.916376 0.376051 0.434875 -0.030795
C94   C     C_R   0.916376 0.623951 0.934866 -0.030818
C95   C     C_R   0.416375 0.876050 0.434870 -0.030822
C96   C     C_R   0.416363 0.123944 0.934889 -0.030955
C97   C     C_R   0.902707 0.412377 0.191457 0.039809
C98   C     C_R   0.902704 0.587622 0.691456 0.039823
C99   C     C_R   0.402704 0.912378 0.191457 0.039842
C100  C     C_R   0.402698 0.087620 0.691464 0.039871
C101  C     C_R   0.870206 0.384460 0.150770 -0.094951
C102  C     C_R   0.870198 0.615535 0.650784 -0.094969
C103  C     C_R   0.370196 0.884466 0.150788 -0.094951
C104  C     C_R   0.370184 0.115528 0.650808 -0.094940
C105  C     C_R   0.861713 0.350955 0.247343 0.225470
C106  C     C_R   0.861702 0.649039 0.747364 0.225559
C107  C     C_R   0.361702 0.850961 0.247363 0.225602
C108  C     C_R   0.361686 0.149029 0.747394 0.225700
C109  C     C_2   0.074741 0.596450 0.873433 -0.316001
C110  C     C_2   0.074737 0.403553 0.373427 -0.316091
C111  C     C_2   0.574748 0.096448 0.873430 -0.315873
C112  C     C_2   0.574742 0.903553 0.373427 -0.316027
C113  C     C_3   0.128797 0.476490 0.183734 0.295907
C114  C     C_3   0.128802 0.523509 0.683713 0.295919
C115  C     C_3   0.628800 0.976492 0.183739 0.295913
C116  C     C_3   0.628808 0.023506 0.683717 0.295931
C117  C     C_3   0.172886 0.457200 0.215950 -0.317956
C118  C     C_3   0.172895 0.542785 0.715991 -0.317899
C119  C     C_3   0.672891 0.957207 0.215968 -0.317954
C120  C     C_3   0.672904 0.042775 0.716017 -0.317896
C121  C     C_3   0.874082 0.525705 0.017809 0.292255
C122  C     C_3   0.874082 0.474295 0.517803 0.292276
C123  C     C_3   0.374078 0.025704 0.017807 0.292217
C124  C     C_3   0.374084 0.974294 0.517807 0.292231
C125  C     C_3   0.832978 0.550941 0.020468 -0.349190
C126  C     C_3   0.832977 0.449060 0.520456 -0.349229
C127  C     C_3   0.332972 0.050937 0.020470 -0.349181
C128  C     C_3   0.332980 0.949058 0.520462 -0.349202
C129  C     C_3   0.006013 0.327047 0.532523 0.299766
C130  C     C_3   0.005988 0.672973 0.032598 0.299625
C131  C     C_3   0.506002 0.827042 0.532481 0.299596
C132  C     C_3   0.505932 0.172994 0.032323 0.299323
C133  C     C_R   0.926541 0.407780 0.323509 -0.300171
C134  C     C_R   0.926543 0.592223 0.823497 -0.300185
C135  C     C_R   0.426543 0.907776 0.323497 -0.300182
C136  C     C_R   0.426537 0.092222 0.823504 -0.300208
H1    H     H_    0.035494 0.342909 0.575710 0.062328
H2    H     H_    0.035466 0.657091 0.075677 0.062252
H3    H     H_    0.535477 0.842926 0.575565 0.062215
H4    H     H_    0.535380 0.156974 0.074888 0.061825
H5    H     H_    0.193371 0.477004 0.290322 0.154596
H6    H     H_    0.193358 0.522983 0.790454 0.154592
H7    H     H_    0.693373 0.977014 0.290338 0.154610
H8    H     H_    0.693361 0.022968 0.790482 0.154605
H9    H     H_    0.168900 0.429075 0.280590 0.082368
H10   H     H_    0.168909 0.570919 0.780559 0.082325
H11   H     H_    0.668908 0.929083 0.280617 0.082338
H12   H     H_    0.668922 0.070908 0.780593 0.082284
H13   H     H_    0.190013 0.451368 0.101486 0.147595
H14   H     H_    0.190046 0.548597 0.601555 0.147591
H15   H     H_    0.690021 0.951374 0.101509 0.147569
H16   H     H_    0.690060 0.048586 0.601590 0.147565
H17   H     H_    0.885111 0.522348 0.893060 0.017166
H18   H     H_    0.885111 0.477653 0.393056 0.017176
H19   H     H_    0.385106 0.022347 0.893057 0.017175
H20   H     H_    0.385115 0.977650 0.393060 0.017174
H21   H     H_    0.899683 0.540458 0.090307 0.056267
H22   H     H_    0.899682 0.459541 0.590301 0.056252
H23   H     H_    0.399679 0.040459 0.090301 0.056263
H24   H     H_    0.399684 0.959541 0.590309 0.056269
H25   H     H_    0.806873 0.536698 0.948759 0.144545
H26   H     H_    0.806872 0.463305 0.448752 0.144547
H27   H     H_    0.306867 0.036692 0.948769 0.144543
H28   H     H_    0.306876 0.963301 0.448750 0.144543
H29   H     H_    0.839655 0.580405 0.969643 0.074758
H30   H     H_    0.839654 0.419596 0.469622 0.074730
H31   H     H_    0.339646 0.080402 0.969641 0.074826
H32   H     H_    0.339658 0.919593 0.469640 0.074785
H33   H     H_    0.821381 0.554608 0.145191 0.127944
H34   H     H_    0.821381 0.445391 0.645179 0.127942
H35   H     H_    0.321377 0.054604 0.145196 0.127937
H36   H     H_    0.321382 0.945392 0.645184 0.127939
H37   H     H_    0.996030 0.339298 0.414865 -0.024352
H38   H     H_    0.995992 0.660764 0.914902 -0.024227
H39   H     H_    0.495996 0.839262 0.414811 -0.024160
H40   H     H_    0.495800 0.160934 0.914496 -0.023724
H41   H     H_    0.041865 0.281537 0.408332 0.143838
H42   H     H_    0.041889 0.718493 0.908740 0.144003
H43   H     H_    0.541878 0.781533 0.408392 0.144032
H44   H     H_    0.541835 0.218545 0.908602 0.144021
H45   H     H_    0.031288 0.271163 0.616897 0.141878
H46   H     H_    0.031250 0.728822 0.117303 0.141727
H47   H     H_    0.531323 0.771192 0.616999 0.141780
H48   H     H_    0.531581 0.228660 0.117666 0.141921
H49   H     H_    0.941183 0.290234 0.950196 0.137930
H50   H     H_    0.941221 0.709784 0.450135 0.138013
H51   H     H_    0.441259 0.790196 0.949889 0.138070
H52   H     H_    0.441306 0.209834 0.449802 0.138150
H53   H     H_    0.697438 0.340233 0.174304 0.125685
H54   H     H_    0.697418 0.659792 0.674830 0.125690
H55   H     H_    0.197401 0.840181 0.175284 0.125682
H56   H     H_    0.197375 0.159841 0.675779 0.125682
H57   H     H_    0.144349 0.790485 0.098035 0.121223
H58   H     H_    0.144320 0.209539 0.598565 0.121220
H59   H     H_    0.644389 0.290537 0.097035 0.121211
H60   H     H_    0.644365 0.709487 0.597576 0.121229
H61   H     H_    0.860867 0.209245 0.060410 0.121936
H62   H     H_    0.860842 0.790705 0.560004 0.121934
H63   H     H_    0.360861 0.709324 0.059574 0.121915
H64   H     H_    0.360841 0.290627 0.559196 0.121907
H65   H     H_    0.877042 0.321362 0.462855 0.094680
H66   H     H_    0.877033 0.678634 0.962868 0.094629
H67   H     H_    0.377037 0.821362 0.462852 0.094571
H68   H     H_    0.377018 0.178628 0.962884 0.094504
H69   H     H_    0.308077 0.660447 0.972620 0.130145
H70   H     H_    0.308053 0.339501 0.472248 0.130144
H71   H     H_    0.808092 0.160364 0.973424 0.130157
H72   H     H_    0.808061 0.839581 0.473027 0.130158
H73   H     H_    0.129246 0.669055 0.689345 0.108228
H74   H     H_    0.129228 0.330928 0.189396 0.108188
H75   H     H_    0.629278 0.169025 0.689265 0.108266
H76   H     H_    0.629252 0.830952 0.189327 0.108244
H77   H     H_    0.851424 0.388698 0.042707 0.101258
H78   H     H_    0.851413 0.611296 0.542730 0.101194
H79   H     H_    0.351408 0.888706 0.042740 0.101131
H80   H     H_    0.351396 0.111286 0.542762 0.101058
H81   H     H_    0.951217 0.429142 0.356052 0.075866
H82   H     H_    0.951221 0.570862 0.856031 0.075868
H83   H     H_    0.451223 0.929136 0.356029 0.075865
H84   H     H_    0.451220 0.070865 0.856027 0.075870
H85   H     H_    0.987783 0.267310 0.471266 0.115512
H86   H     H_    0.987783 0.732728 0.971517 0.115494
H87   H     H_    0.487807 0.767288 0.471424 0.115506
H88   H     H_    0.487891 0.232907 0.972829 0.115517
H89   H     H_    0.039542 0.592429 0.877821 0.062015
H90   H     H_    0.039540 0.407586 0.377793 0.062051
H91   H     H_    0.539546 0.092450 0.877851 0.061917
H92   H     H_    0.539543 0.907578 0.377805 0.062024
H93   H     H_    0.986292 0.348621 0.926827 0.118851
H94   H     H_    0.986302 0.651389 0.426855 0.118831
H95   H     H_    0.486331 0.848608 0.926749 0.118841
H96   H     H_    0.486375 0.151418 0.426650 0.118893
H97   H     H_    0.967043 0.344866 0.130253 0.001991
H98   H     H_    0.967055 0.655142 0.630261 0.001999
H99   H     H_    0.467030 0.844839 0.130096 0.002113
H100  H     H_    0.467017 0.155152 0.629930 0.002151
H101  H     H_    0.997194 0.275511 0.920229 0.122542
H102  H     H_    0.997236 0.724506 0.420395 0.122480
H103  H     H_    0.497287 0.775501 0.920196 0.122454
H104  H     H_    0.497341 0.224526 0.420353 0.122334
H105  H     H_    0.973230 0.272509 0.117390 0.138014
H106  H     H_    0.973224 0.727488 0.617471 0.137993
H107  H     H_    0.473254 0.772487 0.117239 0.137977
H108  H     H_    0.473258 0.227507 0.617307 0.138005
H109  H     H_    0.111404 0.480346 0.298372 0.016846
H110  H     H_    0.111394 0.519662 0.798326 0.016799
H111  H     H_    0.611405 0.980347 0.298371 0.016845
H112  H     H_    0.611395 0.019660 0.798321 0.016791
H113  H     H_    0.109329 0.457704 0.102104 0.034008
H114  H     H_    0.109351 0.542298 0.602042 0.034019
H115  H     H_    0.609336 0.957704 0.102103 0.033996
H116  H     H_    0.609363 0.042298 0.602037 0.033997
N1    N     N_R   0.175612 0.677886 0.963829 -0.421383
N2    N     N_R   0.175585 0.322098 0.463900 -0.421382
N3    N     N_R   0.675641 0.177868 0.963749 -0.421386
N4    N     N_R   0.675610 0.822113 0.463819 -0.421369
N5    N     N_R   0.829727 0.321633 0.197382 -0.426172
N6    N     N_R   0.829711 0.678357 0.697416 -0.426161
N7    N     N_R   0.329712 0.821643 0.197413 -0.426182
N8    N     N_R   0.329693 0.178344 0.697450 -0.426184
O1    O     O_2   0.914200 0.445720 0.903420 -0.463929
O2    O     O_2   0.914200 0.554280 0.403420 -0.463911
O3    O     O_2   0.414200 0.945720 0.903420 -0.463928
O4    O     O_2   0.414200 0.054280 0.403420 -0.463902
O5    O     O_3   0.136803 0.487374 0.610833 -0.614505
O6    O     O_3   0.136801 0.512622 0.110831 -0.614503
O7    O     O_3   0.636805 0.987371 0.610831 -0.614509
O8    O     O_3   0.636802 0.012624 0.110831 -0.614512
O9    O     O_3   0.032028 0.330817 0.096589 -0.618697
O10   O     O_3   0.032035 0.669179 0.596614 -0.618690
O11   O     O_3   0.532029 0.830824 0.096673 -0.618744
O12   O     O_3   0.532030 0.169167 0.596793 -0.618795
O13   O     O_3   0.049930 0.518940 0.045960 -0.492264
O14   O     O_3   0.049930 0.481060 0.545960 -0.492274
O15   O     O_3   0.549930 0.018940 0.045960 -0.492260
O16   O     O_3   0.549930 0.981060 0.545960 -0.492275
O17   O     O_2   0.232043 0.636981 0.912652 -0.566185
O18   O     O_2   0.232017 0.362976 0.412419 -0.566206
O19   O     O_2   0.732072 0.136920 0.913092 -0.566160
O20   O     O_2   0.732037 0.863034 0.412854 -0.566186
O21   O     O_2   0.122559 0.722388 0.012625 -0.611347
O22   O     O_2   0.122527 0.277628 0.513088 -0.611336
O23   O     O_2   0.622593 0.222419 0.011947 -0.611387
O24   O     O_2   0.622566 0.777593 0.512352 -0.611367
O25   O     O_2   0.773705 0.364231 0.228447 -0.589593
O26   O     O_2   0.773690 0.635782 0.728797 -0.589596
O27   O     O_2   0.273679 0.864202 0.229068 -0.589578
O28   O     O_2   0.273658 0.135806 0.729388 -0.589579
O29   O     O_2   0.882118 0.275458 0.166428 -0.619350
O30   O     O_2   0.882102 0.724510 0.666162 -0.619379
O31   O     O_2   0.382118 0.775508 0.165876 -0.619366
O32   O     O_2   0.382104 0.224458 0.665625 -0.619361
O33   O     O_3   0.950020 0.480960 0.143730 -0.491144
O34   O     O_3   0.950020 0.519040 0.643730 -0.491142
O35   O     O_3   0.450020 0.980960 0.143730 -0.491138
O36   O     O_3   0.450020 0.019040 0.643730 -0.491140
O37   O     O_3   0.985090 0.412220 0.642040 -0.482783
O38   O     O_3   0.985090 0.587780 0.142040 -0.482781
O39   O     O_3   0.485090 0.912220 0.642040 -0.482780
O40   O     O_3   0.485090 0.087780 0.142040 -0.482756
O41   O     O_2   0.914617 0.377389 0.770071 -0.494645
O42   O     O_2   0.914605 0.622596 0.270035 -0.494567
O43   O     O_2   0.414618 0.877388 0.770064 -0.494580
O44   O     O_2   0.414616 0.122604 0.270072 -0.494499
O45   O     O_3   0.863782 0.488817 0.080788 -0.626698
O46   O     O_3   0.863782 0.511183 0.580788 -0.626709
O47   O     O_3   0.363781 0.988815 0.080791 -0.626718
O48   O     O_3   0.363783 0.011182 0.580783 -0.626732
O49   O     O_3   0.972720 0.329534 0.648031 -0.612146
O50   O     O_3   0.972699 0.670465 0.148100 -0.612135
O51   O     O_3   0.472719 0.829534 0.648021 -0.612162
O52   O     O_3   0.472706 0.170468 0.148057 -0.612159
O53   O     O_2   0.085560 0.445380 0.786390 -0.448614
O54   O     O_2   0.085560 0.554620 0.286390 -0.448629
O55   O     O_2   0.585560 0.945380 0.786390 -0.448619
O56   O     O_2   0.585560 0.054620 0.286390 -0.448649
O57   O     O_3   0.014550 0.412170 0.047860 -0.493911
O58   O     O_3   0.014550 0.587830 0.547860 -0.493903
O59   O     O_3   0.514550 0.912170 0.047860 -0.493886
O60   O     O_3   0.514550 0.087830 0.547860 -0.493858
O61   O     O_2   0.078831 0.373431 0.905372 -0.447452
O62   O     O_2   0.078830 0.626568 0.405368 -0.447475
O63   O     O_2   0.578823 0.873422 0.905368 -0.447517
O64   O     O_2   0.578815 0.126590 0.405365 -0.447530
P1    P     P_3+3 0.909970 0.458430 0.077330 0.993729
P2    P     P_3+3 0.909970 0.541570 0.577330 0.993726
P3    P     P_3+3 0.409970 0.958430 0.077330 0.993722
P4    P     P_3+3 0.409970 0.041570 0.577330 0.993724
P5    P     P_3+3 0.089830 0.458070 0.612460 1.023974
P6    P     P_3+3 0.089830 0.541930 0.112460 1.023985
P7    P     P_3+3 0.589830 0.958070 0.612460 1.023980
P8    P     P_3+3 0.589830 0.041930 0.112460 1.023992
P9    P     P_3+3 0.056152 0.377149 0.069786 0.972160
P10   P     P_3+3 0.056155 0.622847 0.569786 0.972159
P11   P     P_3+3 0.556154 0.877152 0.069794 0.972131
P12   P     P_3+3 0.556157 0.122844 0.569808 0.972113
P13   P     P_3+3 0.945927 0.625360 0.125302 0.935004
P14   P     P_3+3 0.945932 0.374636 0.625302 0.934990
P15   P     P_3+3 0.445928 0.125362 0.125300 0.934956
P16   P     P_3+3 0.445932 0.874636 0.625295 0.934990
I1    I     I_    0.173660 0.608025 0.248506 -0.374625
I2    I     I_    0.173664 0.391978 0.748473 -0.374608
I3    I     I_    0.673635 0.108039 0.248601 -0.374669
I4    I     I_    0.673643 0.891965 0.748554 -0.374639

loop_
_geom_bond_atom_site_label_1
_geom_bond_atom_site_label_2
_ccdc_geom_bond_type
O48   P4    S    
C51   C55   A    
C118  H14   S    
C95   C135  S    
C38   C54   A    
Ba2   O13   S    
O55   P7    D    
C126  H34   S    
C127  H31   S    
C94   C134  S    
C15   N3    Am   
C42   H58   S    
C70   C110  A    
C124  C128  S    
O49   P14   S    
C47   H95   S    
C16   O24   D    
C5    C9    A    
C92   H104  S    
O42   P13   D    
C7    C11   A    
C85   H65   S    
C8    C12   A    
Ba1   O53   S    
C66   C70   A    
Ba3   O55   S    
C130  O50   S    
C43   C49   A    
C114  O5    S    
Ba1   P1    S    
C45   O9    S    
C125  H33   S    
C73   C109  A    
C94   P13   S    
O5    P5    S    
O34   P2    S    
C66   H74   S    
C80   C84   S    
Ba1   O34   S    
C45   H97   S    
C114  H110  S    
C83   N3    S    
C97   C133  D    
C118  H6    S    
C13   C17   A    
C100  C136  D    
C115  H115  S    
C28   C30   A    
C12   O20   D    
C15   C19   A    
C90   H50   S    
Ba1   O13   S    
C6    C26   A    
Ba3   O15   S    
C7    C23   A    
C46   O10   S    
C6    C22   A    
Ba2   O38   S    
C89   H105  S    
C108  N8    S    
C103  H79   S    
C131  O51   S    
C44   H60   S    
C101  H77   S    
Ba4   O16   S    
C99   P3    S    
C71   C111  A    
C121  O45   S    
C48   H96   S    
C135  H83   S    
C25   C31   A    
C55   C59   A    
C46   C90   S    
C116  H112  S    
C63   N7    Am   
C53   C57   A    
C14   O22   D    
C115  C119  S    
C2    H46   S    
C61   N5    Am   
Ba2   P2    S    
C26   C32   A    
C56   C60   A    
C77   I1    S    
O39   P16   S    
C57   N5    Am   
C3    H87   S    
C117  H9    S    
O9    P9    S    
C3    H43   S    
O6    P6    S    
C123  C127  S    
O61   P9    D    
C121  C125  S    
C99   C103  A    
C128  H32   S    
C45   C89   S    
C47   C91   S    
C50   H54   S    
C75   C111  A    
C21   C39   A    
C4    H88   S    
C22   C40   A    
C1    C129  S    
C2    H42   S    
C3    H47   S    
C126  H30   S    
C128  H36   S    
C12   N4    Am   
C134  H82   S    
C41   H57   S    
Ba2   O2    S    
C69   P10   S    
C124  H24   S    
C114  C118  S    
C9    N1    Am   
O51   P16   S    
C91   H107  S    
O46   P2    S    
C113  H113  S    
Ba3   O59   S    
C1    H85   S    
C33   C61   A    
C96   P15   S    
Ba4   O56   S    
C78   I2    S    
C39   C55   A    
C131  H3    S    
C127  H27   S    
C86   H66   S    
C112  H92   S    
C43   H59   S    
O1    P1    D    
C93   C133  S    
O52   P15   S    
C17   C41   A    
C132  O52   S    
C74   P5    S    
C19   C43   A    
C20   C44   A    
C76   C112  A    
C6    C10   A    
C136  H84   S    
Ba2   O54   S    
C115  H111  S    
O58   P10   S    
Ba1   P5    S    
Ba3   P7    S    
O40   P15   S    
O64   P12   D    
C18   C22   A    
Ba2   O33   S    
C13   N1    Am   
Ba3   Ba4   S    
O50   P13   S    
C64   N8    Am   
C65   C81   A    
C101  C105  A    
C14   C18   A    
C103  C107  A    
O44   P15   D    
O45   P1    S    
C20   C24   A    
Ba2   O14   S    
C87   H67   S    
C109  H89   S    
C113  C117  S    
C47   O11   S    
C60   O28   D    
C81   N1    S    
C92   H52   S    
C120  H16   S    
C89   H101  S    
O2    P2    D    
C9    O17   D    
C30   H62   S    
C67   H75   S    
C72   P11   S    
C33   C37   A    
C122  O46   S    
C48   H100  S    
C36   C40   A    
C41   C51   A    
C42   C52   A    
C87   C95   S    
C77   C81   S    
C54   C58   A    
C79   C83   S    
Ba2   P6    S    
C4    C132  S    
C49   H53   S    
C1    H45   S    
C76   C80   A    
C5    C21   A    
C48   O12   S    
C119  H15   S    
C4    H48   S    
C120  H8    S    
C124  H20   S    
C58   O26   D    
C117  H13   S    
C8    C24   A    
C118  H10   S    
C102  C106  A    
C121  H17   S    
C122  C126  S    
C133  H81   S    
C69   C109  A    
Ba4   O40   S    
C46   H94   S    
C82   N2    S    
C17   C21   A    
C52   H56   S    
O7    P7    S    
C65   C69   A    
C129  O49   S    
O47   P3    S    
C74   C110  A    
C1    H41   S    
O63   P11   D    
O35   P3    S    
C119  H11   S    
Ba4   P4    S    
Ba3   O3    S    
C75   P8    S    
C65   H73   S    
C10   N2    Am   
C49   C53   A    
C88   C108  D    
C78   C82   S    
C29   C33   A    
C104  C108  A    
O8    P8    S    
O60   P12   S    
C31   C35   A    
C110  H90   S    
C130  H2    S    
C126  H26   S    
C73   C77   A    
C130  H38   S    
C25   H69   S    
C90   H106  S    
C67   C83   A    
C102  H78   S    
C89   H49   S    
O12   P12   S    
C71   P12   S    
C105  N5    S    
C100  C104  A    
C123  H23   S    
O41   P14   D    
O54   P6    D    
C121  H21   S    
C59   N7    Am   
Ba1   O57   S    
C60   N8    Am   
Ba4   O4    S    
Ba3   P3    S    
C129  H1    S    
C125  H25   S    
C37   C53   A    
Ba1   O14   S    
C132  H4    S    
C75   C79   A    
C29   H61   S    
C129  H37   S    
Ba3   O16   S    
C40   C56   A    
C2    H86   S    
C127  H35   S    
O10   P10   S    
O62   P10   D    
Ba3   O36   S    
C14   N2    Am   
C84   N4    S    
O33   P1    S    
C104  H80   S    
C52   C56   A    
C36   C64   A    
C63   O31   D    
Ba4   O15   S    
C62   O30   D    
C47   H99   S    
C62   N6    Am   
C92   H108  S    
C51   H55   S    
O59   P11   S    
C11   O19   D    
C68   H76   S    
C68   C72   A    
C58   N6    Am   
C113  O6    S    
C97   P1    S    
C10   O18   D    
C46   H98   S    
C44   C50   A    
C115  O8    S    
C116  O7    S    
C125  H29   S    
C34   C38   A    
C28   H72   S    
C70   P9    S    
C85   C105  D    
C76   P7    S    
Ba1   Ba2   S    
C98   C134  D    
C87   C107  D    
O36   P4    S    
C74   C78   A    
C45   H93   S    
C96   C136  S    
C34   C62   A    
O53   P5    D    
Ba2   O58   S    
O13   P6    S    
C27   C29   A    
C98   C102  A    
Ba4   O35   S    
C19   C23   A    
O15   P8    S    
C79   I3    S    
C111  H91   S    
C91   H51   S    
O38   P13   S    
C4    H44   S    
C120  H12   S    
C7    C27   A    
C8    C28   A    
C59   O27   D    
O56   P8    D    
Ba1   O37   S    
O11   P11   S    
C100  P4    S    
Ba3   O39   S    
C68   C84   A    
C122  H18   S    
C97   C101  A    
C16   C20   A    
C32   C36   A    
C35   C39   A    
C80   I4    S    
C85   C93   S    
C116  H116  S    
C3    C131  S    
C88   H68   S    
C99   C135  D    
C13   O21   D    
C23   C37   A    
O16   P7    S    
O57   P9    S    
C15   O23   D    
C98   P2    S    
C27   H71   S    
C73   P6    S    
C113  H109  S    
C107  N7    S    
C16   N4    Am   
C119  H7    S    
Ba4   P8    S    
O4    P4    D    
C117  H5    S    
C86   C106  D    
C66   C82   A    
C123  H19   S    
C11   N3    Am   
C88   C96   S    
C50   C54   A    
C18   C42   A    
C30   C34   A    
C35   C63   A    
C128  H28   S    
O14   P5    S    
C114  H114  S    
O43   P16   D    
C26   H70   S    
C5    C25   A    
C123  O47   S    
C132  H40   S    
C124  O48   S    
O37   P14   S    
C90   H102  S    
C131  H39   S    
C2    C130  S    
O3    P3    D    
C67   C71   A    
C31   H63   S    
C57   O25   D    
C64   O32   D    
C24   C38   A    
C72   C112  A    
C48   C92   S    
C93   P14   S    
C106  N6    S    
C95   P16   S    
C61   O29   D    
Ba1   O1    S    
Ba4   O60   S    
C32   H64   S    
C122  H22   S    
C86   C94   S    
C116  C120  S    
C91   H103  S    
