data_mof_unit_65715.cif
_audit_creation_date              2012-12-10T16:51:47-0500
_audit_creation_method            fapswitch 2.2
_symmetry_space_group_name_H-M    P1
_symmetry_Int_Tables_number       1
_space_group_crystal_system       triclinic
_cell_length_a                    30.112058
_cell_length_b                    30.44923
_cell_length_c                    21.717847
_cell_angle_alpha                 89.999694
_cell_angle_beta                  134.338581
_cell_angle_gamma                 90.000414
_cell_volume                      14242.117308

loop_
_atom_site_label
_atom_site_type_symbol
_atom_type_description
_atom_site_fract_x
_atom_site_fract_y
_atom_site_fract_z
_atom_type_partial_charge
C1    C     C_R   0.689152 0.809932 0.881597 0.934288
C2    C     C_R   0.525406 0.666947 0.003872 0.183901
C3    C     C_R   0.663083 0.250108 0.999938 0.893566
C4    C     C_R   0.406086 0.788640 0.996680 -0.256000
C5    C     C_R   0.593958 0.788638 0.003409 -0.255989
C6    C     C_R   0.906248 0.288839 0.997048 -0.256348
C7    C     C_R   0.093754 0.288839 0.002957 -0.256343
C8    C     C_R   0.384357 0.749176 0.999467 -0.066414
C9    C     C_R   0.615640 0.749175 0.000532 -0.066460
C10   C     C_R   0.884825 0.249358 0.000372 -0.067366
C11   C     C_R   0.115174 0.249358 0.999626 -0.067368
C12   C     C_R   0.407488 0.709012 0.001342 -0.235452
C13   C     C_R   0.979673 0.167257 0.005973 0.183156
C14   C     C_R   0.592462 0.709012 0.998563 -0.235458
C15   C     C_R   0.909080 0.209249 0.004411 -0.233552
C16   C     C_R   0.090915 0.209249 0.995580 -0.233556
C17   C     C_R   0.452673 0.707473 0.998743 0.049470
C18   C     C_R   0.547274 0.707472 0.001157 0.049467
C19   C     C_R   0.955283 0.207746 0.003824 0.048792
C20   C     C_R   0.044712 0.207746 0.996167 0.048790
C21   C     C_R   0.476583 0.747711 0.999564 0.007479
C22   C     C_R   0.523412 0.747711 0.000431 0.007487
C23   C     C_R   0.976931 0.247971 0.000248 0.007721
C24   C     C_R   0.020318 0.167258 0.994012 0.183150
C25   C     C_R   0.023068 0.247971 0.999750 0.007724
C26   C     C_3   0.441073 0.624523 0.979556 -0.920828
C27   C     C_3   0.558768 0.624509 0.020140 -0.920863
C28   C     C_3   0.964343 0.124864 0.024688 -0.920650
C29   C     C_3   0.035644 0.124866 0.975290 -0.920635
C30   C     C_R   0.523589 0.828101 0.001132 -0.216980
C31   C     C_R   0.476503 0.828102 0.999052 -0.216970
C32   C     C_R   0.023660 0.328343 0.001262 -0.216935
C33   C     C_R   0.976346 0.328343 0.998748 -0.216934
C34   C     C_2   0.560261 0.873845 0.681732 -0.154495
C35   C     C_2   0.439734 0.873833 0.318296 -0.154534
C36   C     C_2   0.060258 0.373850 0.681743 -0.154506
C37   C     C_R   0.310850 0.809932 0.118404 0.934296
C38   C     C_2   0.939744 0.373857 0.318242 -0.154506
C39   C     C_2   0.590349 0.903462 0.676659 -0.334874
C40   C     C_2   0.409646 0.903467 0.323331 -0.334866
C41   C     C_2   0.090345 0.403458 0.676653 -0.334858
C42   C     C_2   0.909660 0.403453 0.323358 -0.334880
C43   C     C_2   0.594875 0.837708 0.743274 -0.156613
C44   C     C_2   0.405117 0.837697 0.256752 -0.156620
C45   C     C_2   0.094871 0.337711 0.743281 -0.156573
C46   C     C_2   0.905134 0.337718 0.256704 -0.156574
C47   C     C_2   0.653011 0.844413 0.818993 -0.339099
C48   C     C_R   0.189153 0.309932 0.881597 0.934307
C49   C     C_2   0.346999 0.844412 0.181008 -0.339137
C50   C     C_2   0.153012 0.344414 0.818994 -0.339031
C51   C     C_2   0.846981 0.344414 0.181006 -0.339010
C52   C     C_R   0.132010 0.749160 0.078253 -0.256626
C53   C     C_R   0.867990 0.749162 0.921748 -0.256626
C54   C     C_R   0.632010 0.249161 0.078253 -0.256621
C55   C     C_R   0.367990 0.249162 0.921748 -0.256620
C56   C     C_R   0.115266 0.750427 0.999906 -0.060715
C57   C     C_R   0.884734 0.750428 0.000095 -0.060709
C58   C     C_R   0.615266 0.250427 0.999905 -0.060702
C59   C     C_R   0.810846 0.309932 0.118403 0.934296
C60   C     C_R   0.384734 0.250428 0.000095 -0.060704
C61   C     C_R   0.053036 0.751917 0.921590 -0.257938
C62   C     C_R   0.946964 0.751916 0.078411 -0.257947
C63   C     C_R   0.553036 0.251916 0.921590 -0.257971
C64   C     C_R   0.446964 0.251917 0.078411 -0.257971
C65   C     C_R   0.663112 0.749841 0.999937 0.889536
C66   C     C_R   0.336887 0.749842 0.000063 0.889542
C67   C     C_R   0.163054 0.249875 0.999826 0.889840
C68   C     C_R   0.836945 0.249875 0.000173 0.889835
C69   C     C_R   0.006562 0.751341 0.920966 0.122616
C70   C     C_R   0.452962 0.788323 0.998377 0.152741
C71   C     C_R   0.993438 0.751340 0.079035 0.122620
C72   C     C_R   0.506562 0.251340 0.920965 0.122629
C73   C     C_R   0.493438 0.251341 0.079035 0.122628
C74   C     C_R   0.023195 0.750713 0.999980 0.057539
C75   C     C_R   0.976805 0.750713 0.000021 0.057539
C76   C     C_R   0.523195 0.250713 0.999980 0.057539
C77   C     C_R   0.476805 0.250713 0.000020 0.057539
C78   C     C_R   0.086217 0.750007 0.078954 0.120973
C79   C     C_R   0.913784 0.750009 0.921046 0.120973
C80   C     C_R   0.586217 0.250007 0.078954 0.120975
C81   C     C_R   0.547082 0.788322 0.001713 0.152730
C82   C     C_R   0.413784 0.250008 0.921046 0.120976
C83   C     C_R   0.943916 0.751193 0.842914 -0.216951
C84   C     C_R   0.056084 0.751189 0.157087 -0.216957
C85   C     C_R   0.443916 0.251191 0.842914 -0.216969
C86   C     C_R   0.556084 0.251191 0.157087 -0.216968
C87   C     C_R   0.897691 0.750212 0.842954 -0.216464
C88   C     C_R   0.102309 0.750208 0.157047 -0.216464
C89   C     C_R   0.397691 0.250210 0.842954 -0.216468
C90   C     C_R   0.602309 0.250210 0.157047 -0.216468
C91   C     C_2   0.939756 0.626110 0.318182 -0.153460
C92   C     C_R   0.953001 0.288561 0.998478 0.152664
C93   C     C_2   0.060254 0.626138 0.681754 -0.153499
C94   C     C_2   0.439765 0.126096 0.318153 -0.153417
C95   C     C_2   0.560235 0.126092 0.681854 -0.153409
C96   C     C_2   0.909691 0.596518 0.323337 -0.333964
C97   C     C_2   0.090326 0.596503 0.676693 -0.333902
C98   C     C_2   0.409702 0.096529 0.323357 -0.334021
C99   C     C_2   0.590296 0.096530 0.676639 -0.334028
C100  C     C_2   0.905134 0.662246 0.256626 -0.156505
C101  C     C_2   0.094884 0.662271 0.743317 -0.156524
C102  C     C_2   0.405147 0.162235 0.256602 -0.156582
C103  C     C_R   0.047001 0.288561 0.001526 0.152663
C104  C     C_2   0.594851 0.162231 0.743406 -0.156578
C105  C     C_2   0.846960 0.655564 0.180963 -0.335136
C106  C     C_2   0.153019 0.655566 0.819034 -0.335226
C107  C     C_2   0.346957 0.155563 0.180962 -0.334865
C108  C     C_2   0.653047 0.155563 0.819038 -0.334850
C109  C     C_R   0.058653 0.560519 0.616811 0.929548
C110  C     C_R   0.941351 0.560522 0.383196 0.929576
C111  C     C_R   0.558646 0.060525 0.616799 0.929568
C112  C     C_R   0.441353 0.060525 0.383200 0.929558
C113  C     C_R   0.810824 0.690047 0.118355 0.933417
C114  C     C_R   0.474490 0.666950 0.995930 0.183902
C115  C     C_R   0.189171 0.690047 0.881644 0.933443
C116  C     C_R   0.310825 0.190047 0.118355 0.933703
C117  C     C_R   0.689176 0.190047 0.881645 0.933696
C118  C     C_R   0.558690 0.939464 0.616831 0.929740
C119  C     C_R   0.441308 0.939466 0.383167 0.929731
C120  C     C_R   0.058689 0.439463 0.616830 0.929729
C121  C     C_R   0.941311 0.439462 0.383172 0.929750
C122  C     C_R   0.836917 0.750108 0.000062 0.893559
C123  C     C_R   0.163083 0.750108 0.999938 0.893569
C124  C     C_R   0.336917 0.250108 0.000062 0.893571
H1    H     H_    0.387530 0.819542 0.995486 0.146678
H2    H     H_    0.069258 0.751545 0.218008 0.147235
H3    H     H_    0.430742 0.251547 0.781992 0.147226
H4    H     H_    0.569258 0.251548 0.218008 0.147226
H5    H     H_    0.849437 0.749810 0.782060 0.148214
H6    H     H_    0.150563 0.749805 0.217941 0.148213
H7    H     H_    0.349437 0.249808 0.782060 0.148203
H8    H     H_    0.650563 0.249808 0.217941 0.148203
H9    H     H_    0.989880 0.624885 0.361391 0.166393
H10   H     H_    0.010123 0.624955 0.638454 0.166362
H11   H     H_    0.489883 0.124846 0.361308 0.166422
H12   H     H_    0.612550 0.819539 0.004674 0.146715
H13   H     H_    0.510118 0.124838 0.638708 0.166424
H14   H     H_    0.860828 0.600654 0.287114 0.157089
H15   H     H_    0.139207 0.600596 0.713004 0.157066
H16   H     H_    0.360852 0.100691 0.287182 0.157190
H17   H     H_    0.639144 0.100697 0.712805 0.157190
H18   H     H_    0.928018 0.693689 0.272151 0.163231
H19   H     H_    0.072039 0.693735 0.727740 0.163312
H20   H     H_    0.428048 0.193671 0.272108 0.163185
H21   H     H_    0.571945 0.193663 0.727909 0.163173
H22   H     H_    0.826644 0.622886 0.161399 0.156602
H23   H     H_    0.887287 0.319714 0.995104 0.147042
H24   H     H_    0.173288 0.622876 0.838629 0.156650
H25   H     H_    0.326624 0.122888 0.161410 0.156552
H26   H     H_    0.673388 0.122891 0.838584 0.156542
H27   H     H_    0.389475 0.679286 0.004561 0.162618
H28   H     H_    0.610438 0.679288 0.995275 0.162657
H29   H     H_    0.889587 0.179484 0.004705 0.161769
H30   H     H_    0.110405 0.179484 0.995281 0.161771
H31   H     H_    0.541503 0.859208 0.001958 0.146975
H32   H     H_    0.458626 0.859210 0.998299 0.146977
H33   H     H_    0.041636 0.359447 0.002208 0.146986
H34   H     H_    0.112718 0.319714 0.004906 0.147043
H35   H     H_    0.958373 0.359448 0.997807 0.146986
H36   H     H_    0.510130 0.875055 0.638477 0.167079
H37   H     H_    0.489866 0.875028 0.361583 0.167079
H38   H     H_    0.010128 0.375070 0.638510 0.167092
H39   H     H_    0.989870 0.375089 0.361449 0.167105
H40   H     H_    0.639222 0.899341 0.712925 0.157466
H41   H     H_    0.360766 0.899362 0.287032 0.157471
H42   H     H_    0.139215 0.399327 0.712900 0.157501
H43   H     H_    0.860797 0.399310 0.287136 0.157509
H44   H     H_    0.572017 0.806247 0.727687 0.166952
H45   H     H_    0.041015 0.752546 0.861430 0.146065
H46   H     H_    0.427957 0.806225 0.272367 0.166985
H47   H     H_    0.072007 0.306249 0.727693 0.166910
H48   H     H_    0.928009 0.306264 0.272274 0.166894
H49   H     H_    0.673288 0.877103 0.838590 0.157883
H50   H     H_    0.326745 0.877109 0.161396 0.157905
H51   H     H_    0.173292 0.377106 0.838593 0.157885
H52   H     H_    0.826685 0.377101 0.161419 0.157876
H53   H     H_    0.180636 0.748370 0.138396 0.149699
H54   H     H_    0.819364 0.748373 0.861605 0.149696
H55   H     H_    0.680636 0.248371 0.138396 0.149693
H56   H     H_    0.958985 0.752543 0.138571 0.146054
H57   H     H_    0.319364 0.248372 0.861605 0.149694
H58   H     H_    0.390030 0.629430 0.928115 0.234183
H59   H     H_    0.449816 0.597864 0.954439 0.252568
H60   H     H_    0.454636 0.613524 0.039539 0.242496
H61   H     H_    0.609817 0.629382 0.071589 0.234184
H62   H     H_    0.549993 0.597836 0.045196 0.252572
H63   H     H_    0.545189 0.613547 0.960131 0.242503
H64   H     H_    0.967569 0.129858 0.078352 0.237387
H65   H     H_    0.916793 0.113852 0.966320 0.240625
H66   H     H_    0.997981 0.098193 0.047812 0.252530
H67   H     H_    0.541015 0.252544 0.861430 0.146041
H68   H     H_    0.032414 0.129862 0.921622 0.237387
H69   H     H_    0.083195 0.113853 0.033655 0.240621
H70   H     H_    0.002005 0.098193 0.952166 0.252529
H71   H     H_    0.458985 0.252545 0.138570 0.146043
H72   H     H_    0.930742 0.751550 0.781992 0.147239
O1    O     O_R   0.679230 0.769690 0.858450 -0.617926
O2    O     O_R   0.492070 0.954750 0.409550 -0.614990
O3    O     O_R   0.007930 0.454750 0.590450 -0.615015
O4    O     O_R   0.992070 0.454750 0.409550 -0.615017
O5    O     O_R   0.582530 0.954770 0.590430 -0.626436
O6    O     O_R   0.417470 0.954770 0.409570 -0.626432
O7    O     O_R   0.082530 0.454770 0.590430 -0.626411
O8    O     O_R   0.917470 0.454770 0.409570 -0.626410
O9    O     O_R   0.730270 0.820760 0.960570 -0.624587
O10   O     O_R   0.269730 0.820760 0.039430 -0.624592
O11   O     O_R   0.230270 0.320760 0.960570 -0.624591
O12   O     O_R   0.320770 0.769690 0.141550 -0.617938
O13   O     O_R   0.769730 0.320760 0.039430 -0.624587
O14   O     O_R   0.658400 0.724440 0.948940 -0.627970
O15   O     O_R   0.341600 0.724440 0.051060 -0.627953
O16   O     O_R   0.158400 0.224440 0.948940 -0.628159
O17   O     O_R   0.841600 0.224440 0.051060 -0.628160
O18   O     O_R   0.709450 0.775510 0.051050 -0.620842
O19   O     O_R   0.290550 0.775510 0.948950 -0.620831
O20   O     O_R   0.209450 0.275510 0.051050 -0.620940
O21   O     O_R   0.790550 0.275510 0.948950 -0.620938
O22   O     O_R   0.769710 0.679220 0.039380 -0.624769
O23   O     O_R   0.179230 0.269690 0.858450 -0.617979
O24   O     O_R   0.230290 0.679220 0.960620 -0.624780
O25   O     O_R   0.269710 0.179220 0.039380 -0.624779
O26   O     O_R   0.730290 0.179220 0.960620 -0.624777
O27   O     O_R   0.820750 0.730290 0.141500 -0.617358
O28   O     O_R   0.179250 0.730290 0.858500 -0.617382
O29   O     O_R   0.320750 0.230290 0.141500 -0.617321
O30   O     O_R   0.679250 0.230290 0.858500 -0.617317
O31   O     O_R   0.790530 0.724470 0.948890 -0.622158
O32   O     O_R   0.209470 0.724470 0.051110 -0.622161
O33   O     O_R   0.290530 0.224470 0.948890 -0.622165
O34   O     O_R   0.820770 0.269690 0.141550 -0.617972
O35   O     O_R   0.709470 0.224470 0.051110 -0.622165
O36   O     O_R   0.841580 0.775540 0.051010 -0.626629
O37   O     O_R   0.158420 0.775540 0.948990 -0.626626
O38   O     O_R   0.341580 0.275540 0.051010 -0.626630
O39   O     O_R   0.658420 0.275540 0.948990 -0.626630
O40   O     O_R   0.007900 0.545210 0.590430 -0.614838
O41   O     O_R   0.992100 0.545210 0.409570 -0.614856
O42   O     O_R   0.507900 0.045210 0.590430 -0.614869
O43   O     O_R   0.492100 0.045210 0.409570 -0.614867
O44   O     O_R   0.082500 0.545230 0.590410 -0.626292
O45   O     O_R   0.917500 0.545230 0.409590 -0.626303
O46   O     O_R   0.582500 0.045230 0.590410 -0.626332
O47   O     O_R   0.417500 0.045230 0.409590 -0.626333
O48   O     O_R   0.507930 0.954750 0.590450 -0.614997
Zn1   Zn    Zn3+2 0.715910 0.715890 0.931790 0.952844
Zn2   Zn    Zn3+2 0.549820 0.999980 0.500010 0.952333
Zn3   Zn    Zn3+2 0.950180 0.499980 0.499990 0.952433
Zn4   Zn    Zn3+2 0.049820 0.499980 0.500010 0.952421
Zn5   Zn    Zn3+2 0.284090 0.715890 0.068210 0.952843
Zn6   Zn    Zn3+2 0.215910 0.215890 0.931790 0.952463
Zn7   Zn    Zn3+2 0.784090 0.215890 0.068210 0.952467
Zn8   Zn    Zn3+2 0.784070 0.784090 0.068160 0.953620
Zn9   Zn    Zn3+2 0.215930 0.784090 0.931840 0.953615
Zn10  Zn    Zn3+2 0.284070 0.284090 0.068160 0.953589
Zn11  Zn    Zn3+2 0.715930 0.284090 0.931840 0.953593
Zn12  Zn    Zn3+2 0.450180 0.999980 0.499990 0.952331

loop_
_geom_bond_atom_site_label_1
_geom_bond_atom_site_label_2
_ccdc_geom_bond_type
O27   Zn8   S    
C44   C49   D    
C5    H12   S    
C83   C87   A    
C8    C66   S    
C67   O16   A    
C37   C49   S    
C2    C18   A    
C119  O2    A    
C101  H19   S    
C37   O10   A    
C14   C18   A    
C19   C23   A    
C12   H27   S    
C88   H6    S    
C4    C8    A    
O35   Zn7   S    
C28   H65   S    
O4    Zn4   S    
C4    C70   A    
C72   C85   A    
C36   C41   D    
C110  O41   A    
C57   C62   A    
C7    H34   S    
C43   H44   S    
C42   H43   S    
C15   C19   A    
C104  H21   S    
C100  C105  D    
O46   Zn2   S    
C82   C89   A    
C4    H1    S    
C63   H67   S    
O43   Zn2   S    
C45   C50   D    
C105  C113  S    
C53   C79   A    
O11   Zn10  S    
C71   C84   A    
C10   C15   A    
C28   H64   S    
C62   H56   S    
C30   C31   A    
C95   C99   D    
C20   C25   A    
C94   C98   D    
C78   C88   A    
C29   H70   S    
C64   H71   S    
O19   Zn9   S    
C120  O3    A    
C106  H24   S    
C54   H55   S    
C27   H61   S    
C116  O25   A    
C60   C124  S    
C24   C29   S    
C113  O27   A    
C15   H29   S    
C22   C81   A    
C3    O39   A    
C91   C96   D    
C52   H53   S    
C52   C56   A    
C31   C70   A    
O6    Zn12  S    
O7    Zn4   S    
C20   C24   A    
C11   C67   S    
O29   Zn10  S    
O23   Zn6   S    
C12   C17   A    
O28   Zn9   S    
O20   Zn10  S    
C64   C73   A    
C13   C28   S    
C2    C27   S    
O36   Zn8   S    
C91   C100  S    
C1    O9    A    
O38   Zn10  S    
O33   Zn6   S    
O37   Zn9   S    
C109  O40   A    
O12   Zn5   S    
C90   H8    S    
C26   H59   S    
C48   C50   S    
C57   C122  S    
O45   Zn3   S    
C55   C60   A    
C53   H54   S    
C66   O19   A    
C36   H38   S    
O40   Zn3   S    
C67   O20   A    
C119  O6    A    
C102  H20   S    
C52   C78   A    
C45   H47   S    
C79   C87   A    
C49   H50   S    
C118  O48   A    
C17   C114  A    
C31   H32   S    
C44   H46   S    
C54   C80   A    
C112  O47   A    
C84   H2    S    
C98   H16   S    
C107  C116  S    
C8    C12   A    
C1    O1    A    
C117  O30   A    
C95   H13   S    
C111  O42   A    
C98   C112  S    
C74   C75   A    
C13   C19   A    
C86   H4    S    
C34   C39   D    
C56   C123  S    
C76   C80   A    
C115  O28   A    
C36   C45   S    
C101  C106  D    
C76   C77   A    
C93   H10   S    
C86   C90   A    
C33   C92   A    
C93   C101  S    
C85   C89   A    
C1    C47   S    
C123  O32   A    
C96   C110  S    
C46   C51   D    
C17   C21   A    
O47   Zn12  S    
O41   Zn4   S    
O42   Zn12  S    
C50   H51   S    
O21   Zn11  S    
C27   H62   S    
C124  O33   A    
C7    C11   A    
C9    C14   A    
C26   C114  S    
C121  O4    A    
C5    C9    A    
C69   C83   A    
O31   Zn1   S    
C97   C109  S    
C11   C16   A    
C91   H9    S    
C16   C20   A    
C112  O43   A    
C99   C111  S    
C41   H42   S    
C94   H11   S    
C55   H57   S    
C29   H68   S    
C105  H22   S    
C102  C107  D    
C56   C61   A    
C27   H63   S    
O15   Zn5   S    
C55   C82   A    
C32   C103  A    
C68   O17   A    
C7    C103  A    
C35   C44   S    
C65   O14   A    
C47   H49   S    
C68   O21   A    
C108  H26   S    
C26   H58   S    
C30   H31   S    
C71   C75   A    
C111  O46   A    
C10   C68   S    
C16   H30   S    
C37   O12   A    
C115  O24   A    
C85   H3    S    
C118  O5    A    
C61   H45   S    
C123  O37   A    
C35   H37   S    
C3    O35   A    
O34   Zn7   S    
C5    C81   A    
C93   C97   D    
C113  O22   A    
C104  C108  D    
C95   C104  S    
O25   Zn6   S    
C32   H33   S    
C54   C58   A    
C109  O44   A    
C61   C69   A    
C58   C63   A    
C38   H39   S    
C53   C57   A    
O5    Zn2   S    
O24   Zn5   S    
C83   H72   S    
C116  O29   A    
O48   Zn12  S    
C40   H41   S    
C99   H17   S    
C25   C103  A    
C34   C43   S    
C84   C88   A    
C121  O8    A    
C28   H66   S    
C6    C10   A    
O18   Zn8   S    
C38   C42   D    
O32   Zn5   S    
O3    Zn3   S    
C39   C118  S    
C122  O36   A    
C21   C70   A    
C89   H7    S    
C117  O26   A    
C60   C64   A    
C32   C33   A    
C87   H5    S    
C30   C81   A    
C18   C22   A    
C35   C40   D    
C66   O15   A    
C124  O38   A    
C65   O18   A    
O9    Zn8   S    
O30   Zn11  S    
C75   C79   A    
O26   Zn7   S    
C59   O34   A    
C96   H14   S    
C6    H23   S    
C2    C114  A    
C110  O45   A    
O22   Zn1   S    
C42   C121  S    
C43   C47   D    
C77   C82   A    
O2    Zn2   S    
C72   C76   A    
C29   H69   S    
C122  O31   A    
C108  C117  S    
C48   O11   A    
O1    Zn1   S    
C69   C74   A    
C46   H48   S    
C62   C71   A    
O17   Zn7   S    
C6    C92   A    
C23   C25   A    
C41   C120  S    
C80   C90   A    
C51   H52   S    
C9    C65   S    
C73   C86   A    
C38   C46   S    
O8    Zn3   S    
O39   Zn11  S    
C107  H25   S    
C3    C58   S    
C59   O13   A    
C40   C119  S    
C51   C59   S    
C63   C72   A    
C13   C24   A    
C74   C78   A    
C14   H28   S    
O44   Zn4   S    
C120  O7    A    
C73   C77   A    
C23   C92   A    
C100  H18   S    
O14   Zn1   S    
C39   H40   S    
C21   C22   A    
O10   Zn9   S    
O16   Zn6   S    
C97   H15   S    
O13   Zn11  S    
C33   H35   S    
C94   C102  S    
C34   H36   S    
C106  C115  S    
C48   O23   A    
C26   H60   S    
