data_mof_unit_67193.cif
_audit_creation_date              2013-03-05T15:59:36-0500
_audit_creation_method            fapswitch 2.2
_symmetry_space_group_name_H-M    P1
_symmetry_Int_Tables_number       1
_space_group_crystal_system       triclinic
_cell_length_a                    8.233617
_cell_length_b                    12.721046
_cell_length_c                    17.333707
_cell_angle_alpha                 98.264766
_cell_angle_beta                  96.767107
_cell_angle_gamma                 98.687986
_cell_volume                      1757.90178409

loop_
_atom_site_label
_atom_site_type_symbol
_atom_site_description
_atom_site_fract_x
_atom_site_fract_y
_atom_site_fract_z
_atom_type_partial_charge
P1    P     P_3+3 0.996360 0.395990 0.320310 0.482668
O1    O     O_2   0.825360 0.427200 0.308020 -0.363766
O2    O     O_3   0.099050 0.435020 0.406000 -0.404056
O3    O     O_3   0.623690 0.628090 0.355970 -0.382045
O4    O     O_2   0.736778 0.562903 0.223988 -0.393987
O5    O     O_3   0.960512 0.254957 0.300912 -0.545567
O6    O     O_3   0.599572 0.732626 0.220276 -0.534671
H1    H     H_    0.710109 0.830093 0.324847 0.160118
C1    C     C_3   0.568771 0.915714 0.250343 -0.888359
H2    H     H_    0.569964 0.982810 0.299131 0.236911
H3    H     H_    0.669067 0.937813 0.215176 0.281048
P2    P     P_3+3 0.688190 0.753610 0.561600 0.448054
P3    P     P_3+3 0.105836 0.824390 0.396318 0.453205
O7    O     O_2   0.857620 0.767930 0.537920 -0.373605
O8    O     O_3   0.055170 0.686660 0.395490 -0.381961
O9    O     O_2   0.994834 0.879265 0.449503 -0.383256
O10   O     O_3   0.724648 0.790385 0.663902 -0.594029
O11   O     O_3   0.036578 0.850789 0.302886 -0.500162
C2    C     C_3   0.086946 0.777356 0.245650 0.282709
H4    H     H_    0.037561 0.692841 0.250983 0.081011
H5    H     H_    0.224077 0.788314 0.251392 0.029039
C3    C     C_3   0.018499 0.795153 0.163568 0.110596
H6    H     H_    0.880814 0.780277 0.156429 0.126128
C4    C     C_3   0.265058 0.787443 0.632798 0.354823
H7    H     H_    0.394906 0.783294 0.624779 0.095033
H8    H     H_    0.179888 0.746637 0.578812 0.146294
C5    C     C_3   0.242441 0.904041 0.646006 -0.913950
H9    H     H_    0.312084 0.944295 0.703708 0.260712
H10   H     H_    0.287251 0.945447 0.598534 0.249054
H11   H     H_    0.109619 0.908260 0.647587 0.264549
Ba1   Ba    Ba6+2 0.843240 0.548600 0.461650 1.542202
C6    C     C_3   0.928359 0.212272 0.368525 0.335130
H12   H     H_    0.800189 0.219022 0.377460 0.089493
H13   H     H_    0.015816 0.252361 0.421930 0.136376
C7    C     C_3   0.945480 0.094153 0.355020 -0.767102
H14   H     H_    0.877814 0.054009 0.296832 0.280456
H15   H     H_    0.895002 0.052965 0.401316 0.207561
H16   H     H_    0.078066 0.087195 0.355832 0.275388
C8    C     C_3   0.784959 0.709159 0.699023 0.313706
H17   H     H_    0.898248 0.691392 0.675051 0.099273
H18   H     H_    0.690411 0.634508 0.688716 0.123740
C9    C     C_3   0.830342 0.750893 0.787301 -0.506820
H19   H     H_    0.906941 0.832196 0.795285 0.229001
H20   H     H_    0.906575 0.698198 0.814986 0.182112
P4    P     P_3+3 0.193350 0.604100 0.679700 0.457426
O12   O     O_2   0.364350 0.572830 0.692030 -0.354305
O13   O     O_3   0.090660 0.565070 0.594010 -0.415381
O14   O     O_3   0.566030 0.372000 0.644040 -0.357280
O15   O     O_3   0.232302 0.744658 0.700351 -0.576667
P5    P     P_3+3 0.087395 0.173048 0.601471 0.454168
O16   O     O_3   0.601410 0.366560 0.460070 -0.389691
O17   O     O_3   0.134540 0.313430 0.604520 -0.367153
O18   O     O_2   0.196490 0.120565 0.546073 -0.365159
O19   O     O_3   0.161436 0.138513 0.691656 -0.543950
Ba2   Ba    Ba6+2 0.346590 0.451490 0.538360 1.541816
P6    P     P_3+3 0.587222 0.608435 0.253367 0.450553
C10   C     C_3   0.592463 0.813688 0.283132 0.389100
H21   H     H_    0.486380 0.790843 0.314728 0.047162
H22   H     H_    0.448821 0.901893 0.210947 0.299101
O20   O     O_3   0.588300 0.633530 0.539940 -0.382321
C11   C     C_3   0.423945 0.274364 0.295223 0.448395
H23   H     H_    0.297581 0.286484 0.306302 0.092117
H24   H     H_    0.513109 0.350742 0.315923 0.111507
C12   C     C_3   0.423925 0.244151 0.206879 -0.915381
H25   H     H_    0.334356 0.169060 0.183058 0.320174
H26   H     H_    0.387206 0.308666 0.175514 0.188827
H27   H     H_    0.550094 0.231795 0.194965 0.268260
P7    P     P_3+3 0.506449 0.230720 0.434492 0.428445
O21   O     O_2   0.332090 0.232110 0.462130 -0.363461
O22   O     O_3   0.469490 0.189889 0.332126 -0.564732
H28   H     H_    0.057403 0.736243 0.118630 0.040192
C13   C     C_3   0.114724 0.206313 0.753232 0.203107
H29   H     H_    0.175044 0.290990 0.754025 0.138689
H30   H     H_    0.978930 0.201850 0.744778 0.018168
C14   C     C_3   0.171428 0.171555 0.832600 0.008605
H31   H     H_    0.306003 0.173396 0.835913 0.228318
P8    P     P_3+3 0.603593 0.396958 0.746999 0.435293
C15   C     C_3   0.643527 0.212935 0.790681 0.683299
H32   H     H_    0.772447 0.254519 0.793237 0.001170
O23   O     O_2   0.492509 0.475124 0.778349 -0.398195
O24   O     O_3   0.528422 0.283568 0.786631 -0.550126
H33   H     H_    0.751812 0.137375 0.885525 0.233039
C16   C     C_3   0.636354 0.167886 0.868039 -1.033412
H34   H     H_    0.531005 0.101049 0.862984 0.255567
H35   H     H_    0.621194 0.231692 0.915865 0.259553
C17   C     C_2   0.266905 0.514231 0.274391 -0.447070
C18   C     C_3   0.387531 0.516494 0.215019 0.225921
C19   C     C_2   0.298285 0.533923 0.137160 -0.338382
C20   C     C_2   0.136958 0.483310 0.114820 0.070573
C21   C     C_2   0.066082 0.421647 0.174590 -0.220141
C22   C     C_1   0.121010 0.452030 0.250557 0.291934
C23   C     C_R   0.867691 0.495163 0.860693 -0.315708
C24   C     C_R   0.816824 0.461328 0.781091 0.210753
C25   C     C_R   0.082519 0.540602 0.753308 0.330523
C26   C     C_R   0.143496 0.557661 0.835317 -0.292744
C27   C     C_R   0.036541 0.527764 0.890722 0.135067
C28   C     C_2   0.034653 0.482146 0.034653 0.202292
C29   C     C_2   0.105950 0.530756 0.976757 -0.282285
C30   C     C_R   0.923971 0.482357 0.727067 -0.501711
H36   H     H_    0.234186 0.569297 0.989641 0.137481
H37   H     H_    0.027328 0.335727 0.155825 0.154043
H38   H     H_    0.770101 0.497076 0.895943 0.149070
H39   H     H_    0.368530 0.580013 0.100773 0.166437
H40   H     H_    0.271165 0.595484 0.855657 0.155836
H41   H     H_    0.281193 0.579379 0.323867 0.156870
H42   H     H_    0.878386 0.462606 0.664697 0.176030
C31   C     C_R   0.769967 0.181858 0.529271 -0.507744
C32   C     C_R   0.421967 0.807535 0.468736 -0.529010
C33   C     C_R   0.390578 0.983489 0.439359 -0.186488
C34   C     C_R   0.325254 0.875451 0.435936 0.208407
C35   C     C_R   0.581388 0.847816 0.509683 0.278371
C36   C     C_R   0.647756 0.959540 0.515665 -0.063237
C37   C     C_R   0.550287 0.027690 0.479710 -0.065316
C38   C     C_R   0.613739 0.139023 0.486725 0.264815
C39   C     C_R   0.869346 0.115643 0.561606 0.217643
C40   C     C_R   0.807837 0.005736 0.556201 -0.183530
H43   H     H_    0.312649 0.032431 0.412038 0.190539
H44   H     H_    0.886449 0.958143 0.584244 0.179803
H45   H     H_    0.818870 0.266662 0.533153 0.167003
H46   H     H_    0.369134 0.723615 0.465874 0.175106
C41   C     C_3   0.675985 0.756976 0.828277 -0.184391
C42   C     C_3   0.723788 0.810563 0.914175 -0.948097
H47   H     H_    0.806221 0.764710 0.946318 0.272707
H48   H     H_    0.788659 0.894703 0.917896 0.269841
H49   H     H_    0.610181 0.812385 0.942742 0.262386
H50   H     H_    0.592104 0.803454 0.797736 0.226414
H51   H     H_    0.607043 0.674515 0.826221 0.221823
C43   C     C_3   0.143576 0.255892 0.901267 -0.410656
C44   C     C_3   0.214390 0.235847 0.982353 -0.790531
H52   H     H_    0.138320 0.164942 0.998768 0.285973
H53   H     H_    0.345394 0.223991 0.983353 0.248959
H54   H     H_    0.211958 0.306474 0.027295 0.241959
H55   H     H_    0.206090 0.336798 0.893728 0.210965
H56   H     H_    0.009349 0.258662 0.899780 0.194812
C45   C     C_3   0.087538 0.054854 0.836953 -0.300203
C46   C     C_3   0.203867 0.990332 0.878461 -0.835152
H57   H     H_    0.272092 0.036119 0.934980 0.284132
H58   H     H_    0.131156 0.915547 0.891123 0.263117
H59   H     H_    0.295203 0.966793 0.839998 0.245190
H60   H     H_    0.976057 0.056110 0.866961 0.197969
H61   H     H_    0.045776 0.008394 0.776904 0.206766
C47   C     C_3   0.595095 0.125123 0.717377 -0.312170
C48   C     C_3   0.667183 0.022387 0.722380 -0.992401
H62   H     H_    0.802065 0.038098 0.721303 0.261924
H63   H     H_    0.640548 0.987032 0.775188 0.281703
H64   H     H_    0.608418 0.961788 0.670661 0.286801
H65   H     H_    0.458469 0.103901 0.705927 0.247844
H66   H     H_    0.633594 0.159407 0.665810 0.177829
C49   C     C_3   0.849802 0.429534 0.017508 -0.335413
C50   C     C_3   0.761882 0.358185 0.069285 -0.895561
H67   H     H_    0.810534 0.281370 0.068485 0.266974
H68   H     H_    0.762998 0.401183 0.129449 0.302809
H69   H     H_    0.628599 0.335688 0.044076 0.239744
H70   H     H_    0.777870 0.496480 0.015722 0.197894
H71   H     H_    0.833317 0.374467 0.960679 0.198871
S1    S     S_3+6 0.088897 0.929058 0.146140 -0.035341
O25   O     O_2   0.186915 0.997548 0.219577 -0.255251
O26   O     O_2   0.196809 0.924504 0.081993 -0.310307
O27   O     O_3   0.924664 0.985973 0.118437 -0.508249
H72   H     H_    0.862768 0.936188 0.071483 0.339279

loop_
_geom_bond_atom_site_label_1
_geom_bond_atom_site_label_2
_geom_bond_distance
_ccdc_geom_bond_type
C11   O22   1.402650 S    
O14   P8    1.748942 S    
O14   Ba2   2.819056 S    
O5    C6    1.396829 S    
C18   C19   1.520523 S    
C5    H10   1.108214 S    
C32   H46   1.082021 S    
O4    P6    1.545833 D    
C26   C27   1.430251 A    
C4    C5    1.510947 S    
P1    Ba1   3.385335 S    
O7    Ba1   2.889526 S    
C14   H31   1.099267 S    
C43   C44   1.528159 S    
C28   C29   1.393452 D    
C21   C22   1.322259 D    
C33   H43   1.075841 S    
C45   C46   1.534158 S    
C8    H18   1.111246 S    
C3    S1    1.794370 S    
P4    O12   1.519526 D    
P5    O19   1.749901 S    
P3    O11   1.748538 S    
S1    O25   1.502460 D    
C7    H15   1.106779 S    
C4    H8    1.110242 S    
P1    O1    1.519157 D    
C17   C22   1.319725 D    
C15   C47   1.535996 S    
O27   H72   0.989843 S    
C14   C45   1.556091 S    
P8    O23   1.535290 D    
C48   H62   1.101161 S    
C23   C27   1.403188 A    
C14   C43   1.546560 S    
O10   C8    1.396238 S    
C11   H24   1.110824 S    
O2    Ba2   2.844734 S    
C15   C16   1.535999 S    
C2    H4    1.111359 S    
C40   H44   1.072674 S    
P7    O21   1.567834 D    
C50   H69   1.110532 S    
C27   C29   1.525875 S    
O12   Ba2   2.856062 S    
P5    O17   1.761012 S    
P4    O15   1.744648 S    
C1    H2    1.109855 S    
C24   C30   1.386436 A    
O16   Ba2   2.888797 S    
O17   Ba2   2.751811 S    
C33   C37   1.407607 A    
C44   H54   1.105608 S    
P1    C22   1.828286 S    
Ba1   O13   2.844128 S    
Ba2   O20   2.810818 S    
O3    P6    1.743374 S    
C5    H11   1.106333 S    
C11   H23   1.109130 S    
C9    H20   1.105544 S    
O6    P6    1.749569 S    
C46   H59   1.108379 S    
P4    C25   1.860408 S    
C31   H45   1.082573 S    
C36   C37   1.425371 A    
C8    C9    1.527980 S    
P4    O13   1.591473 S    
C45   H60   1.108100 S    
P5    O18   1.541039 D    
P1    O5    1.749893 S    
C6    C7    1.517597 S    
C47   H66   1.107592 S    
C2    C3    1.528181 S    
C4    H7    1.102308 S    
C13   H30   1.102099 S    
C48   H64   1.103839 S    
C8    H17   1.105370 S    
C17   C18   1.512333 S    
O11   C2    1.405865 S    
P6    C18   1.857703 S    
O8    Ba1   2.751233 S    
C20   C28   1.534654 S    
O1    Ba1   2.855640 S    
P1    O2    1.591471 S    
C7    H14   1.105459 S    
C6    H13   1.109854 S    
Ba1   O20   2.889622 S    
P2    O10   1.745593 S    
C11   C12   1.524274 S    
C49   H70   1.110245 S    
C12   H27   1.112228 S    
C21   H37   1.081769 S    
C43   H55   1.111649 S    
P3    C34   1.839078 S    
C43   H56   1.108432 S    
H1    C10   1.111376 S    
C16   H34   1.104913 S    
P8    O24   1.746726 S    
C7    H16   1.107104 S    
O2    Ba1   2.907208 S    
C1    H3    1.109191 S    
C31   C39   1.388904 A    
C41   C42   1.524980 S    
Ba2   O21   2.889721 S    
C46   H58   1.109307 S    
C16   H35   1.105983 S    
P2    O7    1.492453 D    
C29   H36   1.077783 S    
P3    O8    1.736238 S    
P2    Ba1   3.414787 S    
C50   H68   1.104115 S    
C17   H41   1.085631 S    
C9    H19   1.108076 S    
C42   H48   1.111050 S    
C20   C21   1.505680 S    
C3    H28   1.111072 S    
C36   C40   1.416099 A    
C19   H39   1.079782 S    
C26   H40   1.082526 S    
O13   Ba2   2.908036 S    
C37   C38   1.416165 A    
C31   C38   1.394485 A    
C4    O15   1.397630 S    
C48   H63   1.106407 S    
C30   H42   1.081932 S    
C35   C36   1.427917 A    
C2    H5    1.107316 S    
C15   H32   1.105017 S    
C47   H65   1.103611 S    
S1    O27   1.681074 S    
Ba1   O16   2.811393 S    
C13   H29   1.113417 S    
C41   H51   1.108355 S    
C23   H38   1.066251 S    
C50   H67   1.109576 S    
C32   C35   1.400699 A    
Ba1   Ba2   4.499262 S    
C6    H12   1.098681 S    
C42   H49   1.110453 S    
S1    O26   1.502995 D    
C44   H52   1.109925 S    
C41   H50   1.110847 S    
C12   H26   1.106810 S    
C33   C34   1.388303 A    
P5    C39   1.844040 S    
C15   O24   1.403629 S    
C13   C14   1.546616 S    
C10   H21   1.108663 S    
C25   C30   1.389603 A    
C12   H25   1.108536 S    
P8    C24   1.812218 S    
C23   C24   1.379534 A    
C32   C34   1.395035 A    
C1    C10   1.519213 S    
O16   P7    1.756081 S    
C49   H71   1.104930 S    
C25   C26   1.424809 A    
O3    Ba1   2.819615 S    
P2    O20   1.591722 S    
C45   H61   1.108314 S    
O19   C13   1.401179 S    
C19   C20   1.370264 D    
P4    Ba2   3.385871 S    
P7    O22   1.752391 S    
H33   C16   1.106167 S    
P3    O9    1.542329 D    
C5    H9    1.104666 S    
C47   C48   1.524010 S    
C28   C49   1.543111 S    
C3    H6    1.109813 S    
C46   H57   1.105439 S    
C1    H22   1.107567 S    
C42   H47   1.111408 S    
C49   C50   1.530389 S    
O6    C10   1.401466 S    
P2    C35   1.860440 S    
C39   C40   1.399021 A    
C9    C41   1.533731 S    
P7    C38   1.840448 S    
C44   H53   1.109957 S    
