data_mof_unit_23570.cif
_audit_creation_date              2013-03-05T16:01:05-0500
_audit_creation_method            fapswitch 2.2
_symmetry_space_group_name_H-M    P1
_symmetry_Int_Tables_number       1
_space_group_crystal_system       triclinic
_cell_length_a                    8.297022
_cell_length_b                    12.758339
_cell_length_c                    18.619844
_cell_angle_alpha                 99.217807
_cell_angle_beta                  90.591382
_cell_angle_gamma                 98.757799
_cell_volume                      1921.67212877

loop_
_atom_site_label
_atom_site_type_symbol
_atom_site_description
_atom_site_fract_x
_atom_site_fract_y
_atom_site_fract_z
_atom_type_partial_charge
P1    P     P_3+3 0.041040 0.394770 0.336330 0.485666
O1    O     O_2   0.873090 0.425890 0.325140 -0.375787
O2    O     O_3   0.122420 0.434370 0.414380 -0.423510
O3    O     O_3   0.659500 0.627100 0.368810 -0.371623
O4    O     O_2   0.778439 0.551572 0.241134 -0.350492
O5    O     O_3   0.996048 0.254465 0.324765 -0.539002
O6    O     O_3   0.657778 0.730105 0.245503 -0.554883
H1    H     H_    0.594337 0.819130 0.340652 0.073276
C1    C     C_3   0.538382 0.890956 0.248234 -0.045080
H2    H     H_    0.447731 0.937112 0.276510 0.147911
H3    H     H_    0.658041 0.943995 0.254588 0.102853
P2    P     P_3+3 0.672880 0.754030 0.556100 0.459725
P3    P     P_3+3 0.133370 0.825692 0.407000 0.434091
O7    O     O_2   0.848200 0.768190 0.534530 -0.394146
O8    O     O_3   0.081160 0.685950 0.404810 -0.361930
O9    O     O_2   0.995826 0.882916 0.443096 -0.417363
O10   O     O_3   0.686760 0.789406 0.651020 -0.570964
O11   O     O_3   0.150051 0.860147 0.319004 -0.603735
C2    C     C_3   0.014710 0.811147 0.273319 0.834018
H4    H     H_    0.906014 0.793764 0.305721 0.078972
C3    C     C_3   0.979752 0.888145 0.221921 -0.769164
H5    H     H_    0.950258 0.963534 0.252650 0.232766
H6    H     H_    0.087596 0.907159 0.188929 0.312434
C4    C     C_3   0.203483 0.796541 0.625411 0.346303
H7    H     H_    0.333446 0.821707 0.614575 0.071691
H8    H     H_    0.140677 0.748525 0.575357 0.127545
C5    C     C_3   0.123751 0.895467 0.645515 -0.851828
H9    H     H_    0.170604 0.939017 0.699561 0.291090
H10   H     H_    0.145792 0.947569 0.603360 0.245367
H11   H     H_    0.991939 0.871048 0.651528 0.263627
Ba1   Ba    Ba6+2 0.852780 0.548340 0.465070 1.561042
C6    C     C_3   0.956071 0.221854 0.391433 0.460145
H12   H     H_    0.849249 0.256856 0.412824 0.073260
H13   H     H_    0.059157 0.246487 0.431819 0.140913
C7    C     C_3   0.916689 0.100166 0.379010 -0.925993
H14   H     H_    0.816778 0.073139 0.337218 0.244353
H15   H     H_    0.877759 0.069985 0.429026 0.227822
H16   H     H_    0.027315 0.065244 0.362317 0.300237
C8    C     C_3   0.728722 0.704400 0.682510 0.411182
H17   H     H_    0.842927 0.680505 0.659844 0.087744
H18   H     H_    0.629063 0.634506 0.673227 0.135939
C9    C     C_3   0.755354 0.742255 0.764112 -0.943708
H19   H     H_    0.862629 0.806966 0.774864 0.296759
H20   H     H_    0.777070 0.674959 0.791992 0.208300
H21   H     H_    0.645791 0.773885 0.786837 0.267545
P4    P     P_3+3 0.148670 0.605320 0.663680 0.462183
O12   O     O_2   0.316610 0.574140 0.674900 -0.361954
O13   O     O_3   0.067290 0.565720 0.585630 -0.423963
O14   O     O_3   0.530210 0.372990 0.631200 -0.351296
O15   O     O_3   0.196242 0.744885 0.686254 -0.546514
P5    P     P_3+3 0.058833 0.177326 0.600356 0.442876
O16   O     O_3   0.611340 0.366290 0.463630 -0.391969
O17   O     O_3   0.108550 0.314140 0.595200 -0.374823
O18   O     O_2   0.175670 0.120852 0.549126 -0.400189
O19   O     O_3   0.118855 0.158432 0.687282 -0.506747
Ba2   Ba    Ba6+2 0.337060 0.451750 0.534940 1.554824
P6    P     P_3+3 0.633876 0.604444 0.273747 0.453364
C10   C     C_3   0.549048 0.791771 0.283338 0.125742
H22   H     H_    0.424146 0.745703 0.282516 0.140574
O20   O     O_3   0.578370 0.633800 0.536380 -0.387048
C11   C     C_3   0.480027 0.258817 0.313044 0.252981
H23   H     H_    0.363188 0.285832 0.330630 0.105215
H24   H     H_    0.579116 0.329117 0.321499 0.086543
C12   C     C_3   0.465171 0.211040 0.231745 -0.019864
H25   H     H_    0.578410 0.177054 0.217131 0.175020
P7    P     P_3+3 0.523681 0.229738 0.445117 0.438096
O21   O     O_2   0.341510 0.231850 0.465510 -0.368322
O22   O     O_3   0.517974 0.179887 0.351963 -0.578428
H26   H     H_    0.874539 0.851695 0.184230 0.258250
C13   C     C_3   0.066548 0.238019 0.739164 0.364021
H27   H     H_    0.122001 0.319775 0.730422 0.097304
H28   H     H_    0.932711 0.231736 0.735125 -0.061017
C14   C     C_3   0.115349 0.225732 0.816803 -0.077720
H29   H     H_    0.239128 0.271426 0.831828 0.144438
H30   H     H_    0.030545 0.261549 0.855791 0.055532
P8    P     P_3+3 0.553578 0.388256 0.726015 0.438121
C15   C     C_3   0.577694 0.186518 0.724502 0.493824
O23   O     O_2   0.430462 0.460708 0.758068 -0.405305
O24   O     O_3   0.480064 0.264228 0.751714 -0.518459
H31   H     H_    0.681336 0.217147 0.692282 0.018287
H32   H     H_    0.535588 0.028256 0.657563 0.184636
C16   C     C_3   0.470245 0.097021 0.674877 -0.785388
H33   H     H_    0.428757 0.127572 0.626693 0.273841
H34   H     H_    0.364392 0.069201 0.705625 0.288841
C17   C     C_R   0.007339 0.426144 0.043925 0.018620
C18   C     C_R   0.914931 0.360680 0.088037 -0.032324
C19   C     C_R   0.770412 0.293285 0.057528 0.281003
C20   C     C_R   0.700272 0.313867 0.992986 -0.289352
C21   C     C_R   0.785865 0.385068 0.951598 0.077781
C22   C     C_R   0.944499 0.435577 0.974579 0.028112
C23   C     C_R   0.720299 0.398231 0.884413 -0.250375
C24   C     C_R   0.818283 0.448822 0.834537 -0.030711
C25   C     C_R   0.979969 0.498347 0.856833 -0.018654
C26   C     C_R   0.040724 0.493887 0.927845 -0.009098
C27   C     C_R   0.763132 0.446595 0.761863 0.158098
C28   C     C_R   0.870591 0.488335 0.712554 -0.525577
C29   C     C_R   0.026512 0.543402 0.734333 0.273714
C30   C     C_R   0.081628 0.551178 0.808150 -0.065453
C31   C     C_R   0.165108 0.478456 0.067830 0.055574
C32   C     C_R   0.223775 0.475410 0.139182 0.060884
C33   C     C_R   0.119848 0.425228 0.188251 -0.002959
C34   C     C_R   0.968736 0.364824 0.160933 -0.078026
H35   H     H_    0.584875 0.267212 0.971407 0.197160
H36   H     H_    0.828838 0.482159 0.656567 0.175127
H37   H     H_    0.595581 0.362216 0.869906 0.184837
H38   H     H_    0.890934 0.322653 0.196615 0.168669
C35   C     C_R   0.236443 0.606812 0.834542 -0.089428
C36   C     C_R   0.298729 0.598786 0.903643 0.109658
C37   C     C_R   0.200990 0.542274 0.950606 0.009765
C38   C     C_R   0.263837 0.534094 0.020317 0.004583
C39   C     C_R   0.460075 0.643653 0.925412 -0.188272
C40   C     C_R   0.525259 0.633339 0.993369 0.040085
C41   C     C_R   0.426225 0.580068 0.041942 0.129726
C42   C     C_R   0.384207 0.525882 0.162174 -0.012677
C43   C     C_R   0.485810 0.572846 0.111767 -0.161027
C44   C     C_R   0.436821 0.529472 0.235439 0.194264
C45   C     C_R   0.329977 0.487454 0.284360 -0.478490
C46   C     C_R   0.171613 0.438187 0.262945 0.326586
H39   H     H_    0.313060 0.653909 0.801067 0.172798
H40   H     H_    0.537355 0.685413 0.889107 0.134610
H41   H     H_    0.611265 0.606073 0.126865 0.206734
H42   H     H_    0.370781 0.494225 0.340531 0.156975
C47   C     C_R   0.751649 0.185963 0.540853 -0.485480
C48   C     C_R   0.432408 0.809118 0.472728 -0.364685
C49   C     C_R   0.393189 0.987890 0.458688 -0.189971
C50   C     C_R   0.332760 0.878829 0.452499 0.189862
C51   C     C_R   0.578925 0.850094 0.512012 0.306780
C52   C     C_R   0.638098 0.962815 0.523432 -0.091784
C53   C     C_R   0.546047 0.031576 0.493413 -0.084752
C54   C     C_R   0.608183 0.142497 0.499978 0.287750
C55   C     C_R   0.845901 0.119728 0.568963 0.197070
C56   C     C_R   0.787988 0.008946 0.561352 -0.190616
H43   H     H_    0.318474 0.037003 0.435595 0.214399
H44   H     H_    0.863646 0.959805 0.582681 0.182731
H45   H     H_    0.798603 0.270685 0.544616 0.161612
N1    N     N_R   0.491148 0.860619 0.171119 0.299410
O25   O     O_R   0.587260 0.894846 0.122196 -0.308284
O26   O     O_R   0.348834 0.804683 0.151009 -0.336011
N2    N     N_R   0.325762 0.124365 0.215206 0.276586
O27   O     O_R   0.306216 0.067152 0.150430 -0.288517
O28   O     O_R   0.223189 0.101289 0.264730 -0.389690
N3    N     N_3   0.449156 0.295897 0.189267 -0.251441
H46   H     H_    0.410079 0.262672 0.135867 0.192615
H47   H     H_    0.564803 0.340753 0.186499 0.074813
N4    N     N_R   0.112395 0.113267 0.824252 0.290172
O29   O     O_R   0.244518 0.080810 0.844323 -0.345491
O30   O     O_R   0.976057 0.046488 0.815492 -0.392841
N5    N     N_3   0.638984 0.142233 0.785224 -0.158025
H48   H     H_    0.721901 0.201927 0.816662 0.101558
H49   H     H_    0.705889 0.081831 0.764254 0.152988
N6    N     N_R   0.707722 0.195619 0.084546 0.222338
O31   O     O_R   0.804004 0.149517 0.120646 -0.363732
O32   O     O_R   0.570519 0.138667 0.057681 -0.332219
N7    N     N_3   0.692390 0.677270 0.012714 -0.181350
H50   H     H_    0.765329 0.640865 0.973820 0.126188
H51   H     H_    0.708787 0.759324 0.009768 0.198370
N8    N     N_R   0.051551 0.711778 0.230609 0.257541
O33   O     O_R   0.003080 0.681792 0.162611 -0.378834
O34   O     O_R   0.131615 0.650694 0.261501 -0.424270
N9    N     N_3   0.389371 0.695379 0.451714 -0.136663
H52   H     H_    0.365496 0.676298 0.395662 0.139203
H53   H     H_    0.292212 0.666366 0.481907 0.170859

loop_
_geom_bond_atom_site_label_1
_geom_bond_atom_site_label_2
_geom_bond_distance
_ccdc_geom_bond_type
P7    O22   1.746715 S    
C19   C20   1.408912 A    
C25   C26   1.422929 A    
C43   H41   1.078717 S    
C5    H10   1.106575 S    
C14   H29   1.110107 S    
C23   H37   1.079149 S    
O5    C6    1.398579 S    
C27   C28   1.396580 A    
C4    C5    1.509557 S    
Ba1   O16   2.823203 S    
C52   C53   1.420451 A    
C42   C43   1.411837 A    
C8    H18   1.109919 S    
P2    C51   1.839516 S    
C17   C18   1.413444 A    
C44   C45   1.389742 A    
N8    O33   1.303309 A    
P3    O11   1.764606 S    
C33   C46   1.427759 A    
C2    C3    1.532103 S    
P8    O23   1.541906 D    
C1    C10   1.527839 S    
P8    C27   1.856153 S    
N4    O29   1.300844 A    
O17   Ba2   2.756335 S    
C29   C30   1.427457 A    
P1    Ba1   3.395496 S    
C36   C37   1.407382 A    
P1    O1    1.527037 D    
O10   C8    1.398463 S    
C11   H24   1.110269 S    
C32   C33   1.422579 A    
H1    C10   1.111008 S    
C39   C40   1.404200 A    
O3    P6    1.752557 S    
C35   C36   1.406277 A    
P8    O24   1.749196 S    
C13   H27   1.111747 S    
Ba1   Ba2   4.611909 S    
P6    C44   1.837922 S    
C1    H2    1.110581 S    
O7    Ba1   2.900514 S    
O6    C10   1.407420 S    
N7    H51   1.045294 S    
O3    Ba1   2.793257 S    
C47   C55   1.390705 A    
P7    O21   1.565386 D    
N8    O34   1.293398 A    
C19   N6    1.444003 S    
C3    H5    1.100287 S    
C5    H11   1.102546 S    
P7    C54   1.833300 S    
C14   H30   1.110444 S    
C9    H20   1.107741 S    
C52   C56   1.420357 A    
C35   H39   1.079591 S    
C40   C41   1.413252 A    
N4    O30   1.300116 A    
C22   C26   1.410304 A    
C8    C9    1.521901 S    
C15   O24   1.409948 S    
C3    H6    1.108985 S    
C4    O15   1.396390 S    
C17   C22   1.417237 A    
P4    O13   1.569653 S    
O16   Ba2   2.912868 S    
P1    O5    1.749687 S    
C2    N8    1.460537 S    
C33   C34   1.411251 A    
C7    H16   1.106190 S    
C32   C42   1.417276 A    
N5    H48   1.041769 S    
N1    O26   1.300925 A    
C8    H17   1.106319 S    
P5    C55   1.857059 S    
C18   C19   1.419612 A    
O11   C2    1.404115 S    
C40   N7    1.433571 S    
C10   H22   1.109480 S    
C31   C38   1.413031 A    
C24   C27   1.418534 A    
H32   C16   1.106978 S    
C30   C35   1.411676 A    
Ba2   O20   2.822572 S    
C3    H26   1.109052 S    
C39   H40   1.082720 S    
P1    O2    1.569654 S    
C9    H21   1.110496 S    
N9    H53   1.043116 S    
Ba1   O20   2.913778 S    
P2    O10   1.750740 S    
C11   C12   1.534899 S    
C45   H42   1.082028 S    
C6    C7    1.516427 S    
C17   C31   1.408485 A    
O2    Ba2   2.810267 S    
C31   C32   1.418627 A    
C15   N5    1.461669 S    
N6    O31   1.301773 A    
C28   C29   1.397416 A    
C13   C14   1.535641 S    
O14   P8    1.750302 S    
C4    H7    1.107409 S    
O2    Ba1   2.933388 S    
C1    H3    1.106761 S    
C38   C41   1.412082 A    
N7    H50   1.045612 S    
C48   C51   1.397052 A    
P3    C50   1.832955 S    
P4    C29   1.870473 S    
P2    O7    1.505052 D    
C16   H34   1.098025 S    
Ba1   O13   2.809605 S    
P3    O8    1.763274 S    
C47   C54   1.395976 A    
C49   C50   1.391310 A    
N3    H47   1.045991 S    
C21   C23   1.403622 A    
C9    H19   1.110637 S    
P4    Ba2   3.396095 S    
C51   C52   1.428053 A    
O14   Ba2   2.792587 S    
C23   C24   1.409912 A    
C20   H35   1.083677 S    
O16   P7    1.760561 S    
C48   C50   1.393298 A    
C53   C54   1.415818 A    
C15   H31   1.111529 S    
C49   H43   1.077452 S    
O13   Ba2   2.934295 S    
P4    O12   1.527375 D    
C47   H45   1.082593 S    
C7    H15   1.096873 S    
C4    H8    1.106943 S    
N5    H49   1.045380 S    
N1    O25   1.301085 A    
C42   C44   1.419600 A    
N2    O27   1.300657 A    
O8    Ba1   2.755692 S    
Ba2   O21   2.900747 S    
P4    O15   1.745235 S    
C26   C37   1.408363 A    
C36   C39   1.401849 A    
O4    P6    1.546807 D    
P5    O18   1.542858 D    
C6    H12   1.102010 S    
C2    H4    1.104393 S    
C28   H36   1.082073 S    
P2    Ba1   3.436220 S    
C45   C46   1.392103 A    
C12   H25   1.111906 S    
N2    O28   1.299291 A    
C11   O22   1.401427 S    
C12   N3    1.459898 S    
C15   C16   1.512400 S    
C48   N9    1.429611 S    
C24   C25   1.420419 A    
C34   H38   1.079450 S    
P5    O19   1.752346 S    
P1    C46   1.854163 S    
N6    O32   1.301541 A    
C11   H23   1.112619 S    
N9    H52   1.042794 S    
O19   C13   1.407550 S    
P2    O20   1.596873 S    
C1    N1    1.459197 S    
C49   C53   1.410518 A    
C20   C21   1.400915 A    
C56   H44   1.067396 S    
C16   H33   1.105388 S    
P3    O9    1.549015 D    
C14   N4    1.460074 S    
C5    H9    1.104331 S    
N3    H46   1.043987 S    
O1    Ba1   2.835966 S    
C13   H28   1.102000 S    
C7    H14   1.106934 S    
P5    O17   1.749696 S    
C21   C22   1.404447 A    
C37   C38   1.419012 A    
C25   C30   1.423314 A    
O6    P6    1.749762 S    
C55   C56   1.405801 A    
C6    H13   1.106766 S    
O12   Ba2   2.836292 S    
C41   C43   1.407918 A    
C12   N2    1.466160 S    
C18   C34   1.414810 A    
