data_mof_unit_15647.cif
_audit_creation_date              2013-03-05T15:40:49-0500
_audit_creation_method            fapswitch 2.2
_symmetry_space_group_name_H-M    P1
_symmetry_Int_Tables_number       1
_space_group_crystal_system       triclinic
_cell_length_a                    7.867226
_cell_length_b                    8.733936
_cell_length_c                    14.91791
_cell_angle_alpha                 93.907909
_cell_angle_beta                  84.259882
_cell_angle_gamma                 93.808176
_cell_volume                      1015.69039416

loop_
_atom_site_label
_atom_site_type_symbol
_atom_site_description
_atom_site_fract_x
_atom_site_fract_y
_atom_site_fract_z
_atom_type_partial_charge
O1    O     O_R   0.389250 0.738570 0.505970 -0.588925
O2    O     O_R   0.610750 0.261430 0.494030 -0.610557
O3    O     O_R   0.678390 0.711620 0.490370 -0.580679
O4    O     O_R   0.321610 0.288380 0.509630 -0.566483
C1    C     C_R   0.544449 0.793453 0.495184 0.864983
C2    C     C_R   0.454940 0.206089 0.498641 0.876321
O5    O     O_R   0.355420 0.513510 0.639950 -0.570592
O6    O     O_R   0.644580 0.486490 0.360050 -0.606632
O7    O     O_R   0.644560 0.486560 0.624350 -0.627713
O8    O     O_R   0.355440 0.513440 0.375650 -0.621525
C3    C     C_R   0.499730 0.501404 0.672611 0.923193
C4    C     C_R   0.500767 0.503132 0.327429 0.923419
Zn1   Zn    Zn3+2 0.306940 0.517990 0.510420 1.138359
Zn2   Zn    Zn3+2 0.693060 0.482010 0.489580 1.103893
C5    C     C_R   0.421684 0.381325 0.186730 -0.202427
C6    C     C_R   0.552219 0.634508 0.815023 -0.219340
C7    C     C_R   0.500373 0.506661 0.232065 -0.157599
C8    C     C_R   0.497827 0.500798 0.768018 -0.144047
C9    C     C_R   0.572237 0.635116 0.187898 0.432098
C10   C     C_R   0.449321 0.365234 0.810662 0.461727
C11   C     C_R   0.553553 0.639846 0.095558 -0.056419
C12   C     C_R   0.430760 0.370897 0.905127 -0.039457
C13   C     C_R   0.487609 0.507121 0.047591 -0.007335
C14   C     C_R   0.489322 0.505644 0.953726 -0.000056
C15   C     C_R   0.421814 0.375779 0.093375 0.002207
C16   C     C_R   0.556942 0.636570 0.907928 0.016920
C17   C     C_R   0.606513 0.771988 0.049895 -0.177621
C18   C     C_R   0.358800 0.244236 0.951232 -0.226206
C19   C     C_R   0.623167 0.767530 0.956357 0.313373
C20   C     C_R   0.355227 0.244213 0.044839 0.353688
H1    H     H_    0.362981 0.288185 0.225552 0.226528
H2    H     H_    0.590043 0.736144 0.778307 0.183598
H3    H     H_    0.649454 0.876265 0.086245 0.234022
H4    H     H_    0.309200 0.142644 0.914225 0.217042
C21   C     C_2   0.566216 0.953623 0.482373 -0.020164
C22   C     C_2   0.429557 0.043524 0.494835 0.011366
N1    N     N_2   0.950330 0.457950 0.475660 0.020215
N2    N     N_2   0.049670 0.542050 0.524340 0.037934
O9    O     O_3   0.643784 0.759270 0.237978 -0.635704
C23   C     C_3   0.820011 0.789488 0.209062 0.087466
H5    H     H_    0.844726 0.915958 0.206782 0.241734
H6    H     H_    0.861874 0.737667 0.140697 0.137812
C24   C     C_3   0.931611 0.730587 0.274984 -0.339692
H7    H     H_    0.894826 0.777662 0.344604 0.293687
H8    H     H_    0.909278 0.604904 0.272219 0.266007
C25   C     C_3   0.120955 0.771402 0.249005 -0.667289
H9    H     H_    0.160423 0.724625 0.179434 0.251081
H10   H     H_    0.198987 0.721282 0.296211 0.278092
H11   H     H_    0.145988 0.898159 0.253172 0.315628
O10   O     O_3   0.427110 0.228720 0.758386 -0.641427
C26   C     C_3   0.569510 0.137615 0.761444 0.033364
H12   H     H_    0.539553 0.023538 0.727087 0.182939
H13   H     H_    0.589109 0.115758 0.831707 0.203117
C27   C     C_3   0.736083 0.208110 0.713410 -0.459435
H14   H     H_    0.722289 0.210078 0.640456 0.274599
H15   H     H_    0.764376 0.326705 0.741437 0.260727
C28   C     C_3   0.890678 0.118981 0.725208 -0.573110
H16   H     H_    0.915120 0.124721 0.797345 0.287186
H17   H     H_    0.004793 0.172645 0.686824 0.291283
H18   H     H_    0.870268 0.997777 0.699584 0.315538
N3    N     N_R   0.728141 0.886608 0.912428 0.169825
O11   O     O_R   0.742322 0.023579 0.952276 -0.416501
O12   O     O_R   0.845147 0.847772 0.848542 -0.376380
N4    N     N_R   0.290083 0.107641 0.088431 0.198394
O13   O     O_R   0.154596 0.030878 0.062036 -0.377354
O14   O     O_R   0.382965 0.044219 0.141323 -0.417328
N5    N     N_R   0.736040 0.011386 0.453824 0.225017
O15   O     O_R   0.771576 0.058674 0.372837 -0.327358
O16   O     O_R   0.857282 0.003300 0.506031 -0.281415
N6    N     N_R   0.255830 0.983747 0.510549 0.265761
O17   O     O_R   0.184525 0.976743 0.592688 -0.333099
O18   O     O_R   0.176056 0.922751 0.443373 -0.311610
N7    N     N_R   0.031160 0.365046 0.407481 0.308599
O19   O     O_R   0.026060 0.395221 0.323914 -0.411092
O20   O     O_R   0.060924 0.226059 0.423957 -0.265198
N8    N     N_R   0.972035 0.601074 0.605621 0.315568
O21   O     O_R   0.003022 0.544092 0.680156 -0.369412
O22   O     O_R   0.908703 0.735144 0.609813 -0.317131

loop_
_geom_bond_atom_site_label_1
_geom_bond_atom_site_label_2
_geom_bond_distance
_ccdc_geom_bond_type
C3    C8    1.422216 S    
C20   N4    1.437436 S    
C17   C19   1.386547 A    
N7    O19   1.296674 A    
C21   C22   1.363539 D    
O7    Zn2   2.006713 S    
N2    N8    1.384751 S    
C17   H3    1.079862 S    
O5    C3    1.292729 A    
C25   H11   1.110136 S    
O1    C1    1.280599 A    
C9    O9    1.394063 S    
C9    C11   1.403543 A    
N8    O22   1.297913 A    
C5    C15   1.390105 A    
O4    Zn1   2.015524 S    
N3    O12   1.301006 A    
C10   O10   1.390368 S    
C25   H9    1.111332 S    
C23   C24   1.517982 S    
C4    C7    1.425386 S    
C13   C14   1.398184 A    
N6    O17   1.299239 A    
C23   H6    1.114966 S    
C11   C17   1.398615 A    
C18   H4    1.083822 S    
C12   C18   1.399987 A    
N7    O20   1.295660 A    
O2    C2    1.284481 A    
C22   N6    1.432949 S    
C27   H15   1.107342 S    
C6    C16   1.389027 A    
C19   N3    1.436552 S    
N5    O15   1.301344 A    
N8    O21   1.299699 A    
O4    C2    1.301301 A    
O9    C23   1.423079 S    
C28   H18   1.107720 S    
C26   H12   1.110989 S    
N5    O16   1.298612 A    
N4    O14   1.300781 A    
C24   H7    1.108568 S    
N1    N2    1.281504 D    
O7    C3    1.294679 A    
C21   N5    1.430686 S    
O6    C4    1.296012 A    
O10   C26   1.422629 S    
C24   H8    1.098722 S    
Zn1   N2    2.037238 S    
O3    Zn2   2.015522 S    
O8    C4    1.293482 A    
C23   H5    1.111004 S    
C10   C12   1.399999 A    
C11   C13   1.416429 A    
C12   C14   1.414706 A    
O1    Zn1   1.994586 S    
C15   C20   1.414768 A    
C5    C7    1.389869 A    
N1    N7    1.387060 S    
C27   H14   1.105865 S    
O6    Zn2   2.010115 S    
C14   C16   1.417860 A    
O3    C1    1.305480 A    
O8    Zn1   2.006715 S    
C5    H1    1.082249 S    
C6    H2    1.084024 S    
C26   C27   1.541100 S    
N4    O13   1.301437 A    
C18   C20   1.393906 A    
Zn2   N1    2.037237 S    
C28   H16   1.109201 S    
C1    C21   1.421579 S    
C7    C9    1.398019 A    
C2    C22   1.418673 S    
C8    C10   1.395095 A    
C13   C15   1.416874 A    
N3    O11   1.302126 A    
O2    Zn2   1.994587 S    
C24   C25   1.526119 S    
C28   H17   1.109679 S    
C25   H10   1.108418 S    
O5    Zn1   2.010114 S    
C16   C19   1.408954 A    
C6    C8    1.385869 A    
N6    O18   1.300226 A    
C26   H13   1.105625 S    
C27   C28   1.517709 S    
