data_mof_unit_26045.cif
_audit_creation_date              2013-03-05T16:41:05-0500
_audit_creation_method            fapswitch 2.2
_symmetry_space_group_name_H-M    P1
_symmetry_Int_Tables_number       1
_space_group_crystal_system       triclinic
_cell_length_a                    8.61105
_cell_length_b                    10.693521
_cell_length_c                    9.870137
_cell_angle_alpha                 89.897959
_cell_angle_beta                  98.488293
_cell_angle_gamma                 89.571396
_cell_volume                      898.881680273

loop_
_atom_site_label
_atom_site_type_symbol
_atom_site_description
_atom_site_fract_x
_atom_site_fract_y
_atom_site_fract_z
_atom_type_partial_charge
O1    O     O_R   0.500020 0.316790 0.614690 -0.601107
O2    O     O_R   0.500000 0.316760 0.385350 -0.638725
C1    C     C_R   0.495658 0.260054 0.499848 0.910556
O3    O     O_R   0.271760 0.500010 0.587850 -0.616783
O4    O     O_R   0.271740 0.499970 0.358500 -0.602030
C2    C     C_R   0.201204 0.500549 0.464197 0.998765
Zn1   Zn    Zn3+2 0.500010 0.500020 0.653130 1.021287
Zn2   Zn    Zn3+2 0.499990 0.499980 0.346870 0.996742
O5    O     O_R   0.500000 0.683240 0.614650 -0.590180
O6    O     O_R   0.499980 0.683210 0.385310 -0.583750
O7    O     O_R   0.728260 0.500030 0.641500 -0.604699
O8    O     O_R   0.728240 0.499990 0.412150 -0.636462
C3    C     C_R   0.490044 0.739654 0.498672 0.906391
C4    C     C_R   0.798720 0.501572 0.535719 0.965608
C5    C     C_2   0.036167 0.500021 0.444843 -0.350586
H1    H     H_    0.974855 0.492477 0.340636 0.177425
C6    C     C_2   0.963557 0.506460 0.554586 -0.309301
H2    H     H_    0.024828 0.515854 0.658426 0.179543
C7    C     C_R   0.500863 0.062498 0.622128 0.069770
C8    C     C_R   0.472307 0.128809 0.499636 -0.161313
C9    C     C_R   0.407123 0.067513 0.379429 -0.274014
H3    H     H_    0.365573 0.120106 0.287365 0.193665
C10   C     C_R   0.397814 0.937303 0.377747 0.301467
C11   C     C_R   0.462115 0.871037 0.497662 -0.258037
C12   C     C_R   0.498913 0.935495 0.620612 0.091228
C13   C     C_3   0.628993 0.923153 0.740492 -0.168828
C14   C     C_3   0.628867 0.067066 0.743093 -0.353451
H4    H     H_    0.585638 0.105963 0.834954 0.186167
C15   C     C_R   0.376802 0.450613 0.055550 0.247032
N1    N     N_R   0.498950 0.499140 0.142680 -0.101917
C16   C     C_R   0.615528 0.557358 0.086702 -0.088079
H5    H     H_    0.710125 0.602142 0.152913 0.151190
C17   C     C_R   0.615978 0.556714 0.942909 -0.047899
H6    H     H_    0.711095 0.600625 0.900931 0.174289
N2    N     N_R   0.498950 0.499180 0.857030 -0.106142
C18   C     C_R   0.376914 0.450766 0.912787 0.136364
C19   C     C_3   0.325793 0.318229 0.900815 -0.274149
C20   C     C_3   0.323839 0.318082 0.054543 -0.577925
H7    H     H_    0.416518 0.255852 0.868366 0.202379
H8    H     H_    0.205334 0.309582 0.085635 0.208775
H9    H     H_    0.414777 0.255037 0.110213 0.226059
C21   C     C_2   0.167545 0.305898 0.816528 0.559364
H10   H     H_    0.069146 0.360905 0.841239 0.089195
O9    O     O_2   0.149199 0.235065 0.718744 -0.550794
N3    N     N_R   0.325537 0.875439 0.255546 0.228087
O10   O     O_R   0.226970 0.785082 0.263960 -0.372399
O11   O     O_R   0.336375 0.922796 0.135782 -0.362725
C22   C     C_2   0.575456 0.868392 0.867292 0.549481
H11   H     H_    0.653206 0.871604 0.964322 0.077271
O12   O     O_2   0.445938 0.821399 0.862949 -0.502600
C23   C     C_2   0.776311 0.861554 0.703197 0.380261
H12   H     H_    0.809393 0.876849 0.602490 0.058897
O13   O     O_2   0.859806 0.795135 0.785031 -0.557119
C24   C     C_2   0.774677 0.131550 0.713131 0.500656
H13   H     H_    0.828382 0.107072 0.623858 0.068805
O14   O     O_2   0.831105 0.214782 0.788572 -0.565707

loop_
_geom_bond_atom_site_label_1
_geom_bond_atom_site_label_2
_geom_bond_distance
_ccdc_geom_bond_type
C15   C20   1.491640 S    
O4    Zn2   1.985665 S    
C20   H8    1.112426 S    
C10   C11   1.416774 A    
C16   C17   1.419863 A    
C5    C6    1.329856 D    
C19   C20   1.519895 S    
C10   N3    1.437770 S    
C7    C14   1.501779 S    
N2    C18   1.361262 A    
C4    C6    1.405444 S    
C13   C22   1.514443 S    
N1    C16   1.368370 A    
Zn2   O8    1.975949 S    
Zn2   N1    2.014117 S    
C7    C8    1.389813 A    
C22   O12   1.221710 D    
C6    H2    1.086472 S    
C2    C5    1.405752 S    
C14   C24   1.503751 S    
C1    C8    1.419249 S    
C19   H7    1.106643 S    
O1    Zn1   1.996436 S    
C13   C23   1.518182 S    
C11   C12   1.393166 A    
Zn1   O7    1.985665 S    
C15   C18   1.409237 A    
C13   C14   1.539184 S    
C15   N1    1.363052 A    
C21   O9    1.220478 D    
O3    Zn1   1.975950 S    
C5    H1    1.088008 S    
Zn2   O6    1.996435 S    
C18   C19   1.486953 S    
C17   N2    1.368025 A    
O8    C4    1.279787 A    
C17   H6    1.080861 S    
O2    C1    1.287097 A    
C9    C10   1.395291 A    
O4    C2    1.282321 A    
C7    C12   1.358425 A    
O7    C4    1.282808 A    
C24   O14   1.218505 D    
C21   H10   1.085128 S    
C23   H12   1.086112 S    
N3    O10   1.301422 A    
C19   C21   1.494922 S    
C8    C9    1.401442 A    
C20   H9    1.110581 S    
O3    C2    1.280525 A    
N3    O11   1.301403 A    
C14   H4    1.110097 S    
Zn1   O5    1.995073 S    
O5    C3    1.284308 A    
C24   H13   1.085397 S    
C22   H11   1.085266 S    
C23   O13   1.221750 D    
C12   C13   1.509333 S    
C9    H3    1.081305 S    
Zn1   N2    2.013892 S    
O2    Zn2   1.995072 S    
C16   H5    1.081553 S    
C3    C11   1.423373 S    
O1    C1    1.282410 A    
O6    C3    1.285876 A    
