data_mof_unit_54255.cif
_audit_creation_date              2012-12-11T15:41:23-0500
_audit_creation_method            fapswitch 2.2
_symmetry_space_group_name_H-M    P1
_symmetry_Int_Tables_number       1
_space_group_crystal_system       triclinic
_cell_length_a                    19.000041
_cell_length_b                    10.981735
_cell_length_c                    18.834315
_cell_angle_alpha                 89.961203
_cell_angle_beta                  90.069088
_cell_angle_gamma                 90.028825
_cell_volume                      3929.83989505

loop_
_atom_site_label
_atom_site_type_symbol
_atom_type_description
_atom_site_fract_x
_atom_site_fract_y
_atom_site_fract_z
_atom_type_partial_charge
C1    C     C_R   0.725741 0.958560 0.854840 0.545473
C2    C     C_R   0.313607 0.424973 0.032030 0.001004
C3    C     C_R   0.762082 0.856770 0.355861 0.542388
C4    C     C_2   0.497262 0.167642 0.920949 -0.104850
C5    C     C_2   0.501760 0.168016 0.078552 -0.109820
C6    C     C_2   0.998314 0.667989 0.921455 -0.109987
C7    C     C_2   0.002657 0.668577 0.078997 -0.109307
C8    C     C_2   0.490958 0.069001 0.037943 -0.159009
C9    C     C_2   0.507160 0.068580 0.961641 -0.157762
C10   C     C_2   0.993574 0.568979 0.038611 -0.158127
C11   C     C_2   0.009416 0.569272 0.962243 -0.159888
C12   C     C_R   0.759249 0.422542 0.072513 0.010889
C13   C     C_R   0.178371 0.899810 0.974646 -0.019255
C14   C     C_R   0.243215 0.412455 0.924904 0.013512
C15   C     C_R   0.254184 0.907685 0.078087 0.017081
C16   C     C_R   0.740743 0.922358 0.927450 0.011466
C17   C     C_2   0.582551 0.538057 0.080636 0.230137
C18   C     C_2   0.422364 0.518216 0.915984 0.230984
C19   C     C_2   0.079588 0.032257 0.086975 0.228241
C20   C     C_2   0.917087 0.038336 0.918726 0.233290
C21   C     C_R   0.811071 0.937580 0.034578 0.000694
C22   C     C_R   0.812172 0.385976 0.957556 -0.164984
C23   C     C_R   0.190493 0.373277 0.039552 -0.165281
C24   C     C_R   0.301445 0.846396 0.965384 -0.169239
C25   C     C_R   0.687869 0.885784 0.042429 -0.165080
C26   C     C_R   0.816749 0.385841 0.030720 -0.162758
C27   C     C_R   0.186212 0.372356 0.966446 -0.162691
C28   C     C_R   0.309432 0.861112 0.037037 -0.165383
C29   C     C_R   0.273185 0.955883 0.146736 0.549566
C30   C     C_R   0.683300 0.885383 0.969268 -0.162948
C31   C     C_3   0.650331 0.558317 0.041471 -0.100866
C32   C     C_3   0.354954 0.541263 0.955157 -0.106968
C33   C     C_3   0.145025 0.038685 0.042528 -0.101903
C34   C     C_3   0.849595 0.058435 0.958322 -0.100210
C35   C     C_3   0.643242 0.548253 0.961363 -0.282268
C36   C     C_3   0.361688 0.532510 0.035426 -0.283601
C37   C     C_3   0.132973 0.009853 0.964610 -0.267478
C38   C     C_3   0.857063 0.047958 0.038389 -0.279820
C39   C     C_R   0.748093 0.411494 0.923687 0.016667
C40   C     C_R   0.226558 0.456077 0.853892 0.543948
C41   C     C_R   0.253966 0.402301 0.073705 0.015840
C42   C     C_R   0.235865 0.864528 0.933019 0.022535
C43   C     C_R   0.751961 0.911482 0.076264 0.016605
C44   C     C_R   0.504067 0.160984 0.422554 0.016917
C45   C     C_R   0.513653 0.171480 0.569882 0.024208
C46   C     C_R   0.983746 0.670097 0.431328 0.022024
C47   C     C_R   0.991939 0.669816 0.578860 0.019676
C48   C     C_R   0.538588 0.258343 0.454737 0.016595
C49   C     C_R   0.541306 0.263776 0.527127 0.046615
C50   C     C_R   0.974741 0.777136 0.469668 0.042782
C51   C     C_R   0.774253 0.458629 0.145148 0.546617
C52   C     C_R   0.978097 0.778033 0.541971 0.028005
C53   C     C_R   0.490243 0.064115 0.537888 -0.179206
C54   C     C_R   0.486032 0.058294 0.464114 -0.167645
C55   C     C_R   0.987752 0.558663 0.542272 -0.173024
C56   C     C_R   0.985509 0.558888 0.468118 -0.167975
C57   C     C_R   0.530004 0.177471 0.850898 0.554844
C58   C     C_R   0.469748 0.177604 0.148945 0.553295
C59   C     C_R   0.030227 0.677548 0.851031 0.544993
C60   C     C_R   0.970014 0.677656 0.149114 0.552260
C61   C     C_3   0.530463 0.393931 0.448619 -0.273053
C62   C     C_R   0.694996 0.446626 0.038813 -0.019506
C63   C     C_3   0.529282 0.397948 0.528905 -0.264048
C64   C     C_3   0.012143 0.895508 0.461202 -0.278366
C65   C     C_3   0.015966 0.898555 0.541045 -0.268619
C66   C     C_R   0.751499 0.417997 0.423533 0.016352
C67   C     C_R   0.251061 0.394123 0.582053 0.015310
C68   C     C_R   0.260873 0.934215 0.428687 0.014896
C69   C     C_R   0.748652 0.902407 0.579847 0.018345
C70   C     C_R   0.785103 0.320138 0.456562 0.019744
C71   C     C_R   0.202929 0.319578 0.545822 0.033696
C72   C     C_R   0.316155 0.883412 0.467240 0.030574
C73   C     C_R   0.308061 0.432692 0.958403 -0.010990
C74   C     C_R   0.699809 0.832431 0.541652 0.019430
C75   C     C_R   0.783950 0.309539 0.529313 0.046007
C76   C     C_R   0.211706 0.291669 0.475049 0.023873
C77   C     C_R   0.313421 0.873649 0.539646 0.021404
C78   C     C_R   0.703785 0.824242 0.469204 0.024141
C79   C     C_R   0.708862 0.484874 0.539396 -0.167625
C80   C     C_R   0.323465 0.394294 0.475673 -0.160203
C81   C     C_R   0.204185 0.984799 0.540831 -0.162860
C82   C     C_R   0.813127 0.933319 0.470057 -0.150567
C83   C     C_R   0.710094 0.496771 0.465453 -0.163470
C84   C     C_R   0.188132 0.925163 0.046516 -0.018483
C85   C     C_R   0.314536 0.423202 0.547910 -0.171736
C86   C     C_R   0.206591 0.992254 0.466452 -0.165492
C87   C     C_R   0.809486 0.941631 0.544423 -0.154219
C88   C     C_3   0.860037 0.278315 0.452832 -0.269857
C89   C     C_3   0.125331 0.336189 0.536594 -0.270835
C90   C     C_3   0.351498 0.763301 0.457957 -0.277744
C91   C     C_3   0.620911 0.835385 0.539081 -0.265676
C92   C     C_3   0.859271 0.271741 0.532884 -0.267004
C93   C     C_3   0.135059 0.306975 0.459058 -0.270496
C94   C     C_3   0.348374 0.751234 0.537849 -0.266688
C95   C     C_R   0.804952 0.946695 0.961116 -0.021362
C96   C     C_3   0.626051 0.827379 0.459082 -0.278119
C97   C     C_R   0.748510 0.393390 0.572011 0.024223
C98   C     C_R   0.269504 0.335221 0.437393 0.013452
C99   C     C_R   0.254698 0.915122 0.577336 0.016764
C100  C     C_R   0.756669 0.882856 0.431317 0.019258
C101  C     C_R   0.738356 0.364807 0.852360 0.539750
C102  C     C_R   0.262163 0.362917 0.146770 0.551191
C103  C     C_R   0.227079 0.824060 0.860516 0.550221
C104  C     C_R   0.761657 0.864857 0.147630 0.541948
C105  C     C_R   0.728120 0.953666 0.648040 0.544386
C106  C     C_R   0.689002 0.437705 0.965322 0.001540
C107  C     C_R   0.273259 0.958464 0.353964 0.536786
C108  C     C_R   0.228233 0.453396 0.647878 0.541645
C109  C     C_R   0.772332 0.456688 0.352968 0.548170
C110  C     C_R   0.530976 0.176746 0.643946 0.545975
C111  C     C_R   0.470697 0.175488 0.354641 0.544712
C112  C     C_R   0.028584 0.676563 0.645739 0.546780
C113  C     C_R   0.967900 0.676362 0.356781 0.545608
C114  C     C_R   0.739562 0.361222 0.645993 0.539707
C115  C     C_R   0.274141 0.312236 0.360948 0.557909
C116  C     C_R   0.239917 0.862683 0.646603 0.549451
Cr1   Cr    Cr6+3 0.769260 0.163750 0.750730 1.061675
Cr2   Cr    Cr6+3 0.385810 0.322400 0.252290 1.031786
Cr3   Cr    Cr6+3 0.114190 0.822400 0.747710 1.031662
Cr4   Cr    Cr6+3 0.885810 0.822400 0.252290 1.033517
Cr5   Cr    Cr6+3 0.230740 0.163750 0.249270 1.058833
Cr6   Cr    Cr6+3 0.269260 0.663750 0.750730 1.058934
Cr7   Cr    Cr6+3 0.730740 0.663750 0.249270 1.061326
Cr8   Cr    Cr6+3 0.612640 0.009910 0.748780 1.025665
Cr9   Cr    Cr6+3 0.387360 0.009910 0.251220 1.022369
Cr10  Cr    Cr6+3 0.112640 0.509910 0.748780 1.022434
Cr11  Cr    Cr6+3 0.887360 0.509910 0.251220 1.027021
Cr12  Cr    Cr6+3 0.614190 0.322400 0.747710 1.043170
H1    H     H_    0.468927 0.986345 0.060473 0.155895
H2    H     H_    0.476862 0.421778 0.550923 0.133375
H3    H     H_    0.064349 0.884966 0.435311 0.139130
H4    H     H_    0.984309 0.973074 0.564929 0.127354
H5    H     H_    0.678803 0.548631 0.570997 0.119054
H6    H     H_    0.369700 0.426323 0.448681 0.129574
H7    H     H_    0.160628 0.025909 0.568902 0.124107
H8    H     H_    0.858748 0.968642 0.442946 0.125836
H9    H     H_    0.682941 0.572976 0.441732 0.139130
H10   H     H_    0.354233 0.476623 0.574886 0.120073
H11   H     H_    0.165655 0.040640 0.438468 0.128324
H12   H     H_    0.528307 0.985401 0.939155 0.152526
H13   H     H_    0.851543 0.984883 0.573558 0.118369
H14   H     H_    0.896899 0.348095 0.432806 0.162793
H15   H     H_    0.109540 0.432076 0.545464 0.158845
H16   H     H_    0.406045 0.772473 0.437395 0.137416
H17   H     H_    0.599326 0.923434 0.557359 0.176670
H18   H     H_    0.864959 0.187908 0.426953 0.129972
H19   H     H_    0.094265 0.266499 0.565790 0.135660
H20   H     H_    0.318021 0.695875 0.429587 0.147444
H21   H     H_    0.596875 0.753250 0.563674 0.128569
H22   H     H_    0.866406 0.178824 0.553815 0.138946
H23   H     H_    0.973339 0.485275 0.061430 0.154741
H24   H     H_    0.108593 0.221227 0.443066 0.129895
H25   H     H_    0.312661 0.677052 0.555206 0.164294
H26   H     H_    0.604679 0.740902 0.437379 0.134717
H27   H     H_    0.525898 0.248848 0.056034 0.092632
H28   H     H_    0.473214 0.248185 0.943441 0.093499
H29   H     H_    0.025680 0.750159 0.056273 0.090970
H30   H     H_    0.974126 0.748773 0.943843 0.093574
H31   H     H_    0.858504 0.360329 0.927559 0.164459
H32   H     H_    0.143949 0.347872 0.069325 0.168742
H33   H     H_    0.347884 0.821346 0.935495 0.161083
H34   H     H_    0.031370 0.486655 0.939756 0.155906
H35   H     H_    0.641535 0.860093 0.072455 0.163350
H36   H     H_    0.867469 0.364876 0.053895 0.146308
H37   H     H_    0.135457 0.351035 0.943378 0.148540
H38   H     H_    0.361699 0.846398 0.058424 0.146959
H39   H     H_    0.632635 0.864019 0.946098 0.144089
H40   H     H_    0.176972 0.122140 0.051152 0.170490
H41   H     H_    0.819650 0.140023 0.941214 0.177856
H42   H     H_    0.680211 0.639826 0.058837 0.178082
H43   H     H_    0.325842 0.621753 0.936333 0.167502
H44   H     H_    0.589417 0.525639 0.942191 0.147986
H45   H     H_    0.978576 0.968427 0.438500 0.135600
H46   H     H_    0.414894 0.506727 0.054958 0.146036
H47   H     H_    0.078023 0.984324 0.950798 0.138262
H48   H     H_    0.910971 0.025028 0.057221 0.146096
H49   H     H_    0.668863 0.624464 0.932315 0.138928
H50   H     H_    0.337603 0.610564 0.063934 0.140825
H51   H     H_    0.156963 0.078173 0.928317 0.151042
H52   H     H_    0.831749 0.124151 0.067630 0.139292
H53   H     H_    0.473771 0.986843 0.569592 0.127368
H54   H     H_    0.462128 0.978462 0.440598 0.146492
H55   H     H_    0.994038 0.473114 0.570047 0.121459
H56   H     H_    0.070917 0.892241 0.560079 0.170174
H57   H     H_    0.988408 0.473626 0.439736 0.120929
H58   H     H_    0.892969 0.341581 0.558667 0.136857
H59   H     H_    0.124092 0.386131 0.423852 0.156415
H60   H     H_    0.401121 0.752184 0.563473 0.134040
H61   H     H_    0.608199 0.911244 0.431322 0.148293
H62   H     H_    0.548972 0.461440 0.067481 0.095489
H63   H     H_    0.459411 0.450789 0.934918 0.094183
H64   H     H_    0.043982 0.955555 0.082429 0.104398
H65   H     H_    0.949848 0.960127 0.930556 0.096191
H66   H     H_    0.480866 0.426135 0.424733 0.157017
H67   H     H_    0.573511 0.448651 0.552686 0.152576
H68   H     H_    0.577827 0.436952 0.425176 0.140552
O1    O     O_R   0.784290 0.290360 0.830540 -0.509443
O2    O     O_R   0.456020 0.282110 0.333230 -0.530204
O3    O     O_R   0.043980 0.782110 0.666770 -0.521597
O4    O     O_R   0.956020 0.782110 0.333230 -0.516171
O5    O     O_R   0.679070 0.374030 0.674430 -0.507116
O6    O     O_R   0.320930 0.374030 0.325570 -0.507446
O7    O     O_R   0.179070 0.874030 0.674430 -0.506695
O8    O     O_R   0.820930 0.874030 0.325570 -0.509065
O9    O     O_3   0.665360 0.165350 0.749070 -0.259216
O10   O     O_3   0.334640 0.165350 0.250930 -0.277688
O11   O     O_3   0.165360 0.665350 0.749070 -0.271146
O12   O     O_R   0.215710 0.290360 0.169460 -0.499319
O13   O     O_3   0.834640 0.665350 0.250930 -0.259278
O14   O     O_R   0.762610 0.041070 0.825230 -0.483927
O15   O     O_R   0.237390 0.041070 0.174770 -0.481341
O16   O     O_R   0.262610 0.541070 0.825230 -0.492135
O17   O     O_R   0.737390 0.541070 0.174770 -0.482456
O18   O     O_R   0.667390 0.924160 0.829970 -0.526974
O19   O     O_R   0.332610 0.924160 0.170030 -0.525651
O20   O     O_R   0.167390 0.424160 0.829970 -0.524409
O21   O     O_R   0.832610 0.424160 0.170030 -0.525932
O22   O     O_R   0.553980 0.081420 0.821780 -0.496610
O23   O     O_R   0.284290 0.790360 0.830540 -0.510455
O24   O     O_R   0.446020 0.081420 0.178220 -0.494378
O25   O     O_R   0.053980 0.581420 0.821780 -0.497041
O26   O     O_R   0.946020 0.581420 0.178220 -0.494455
O27   O     O_R   0.543210 0.283170 0.826740 -0.500864
O28   O     O_R   0.456790 0.283170 0.173260 -0.506329
O29   O     O_R   0.043210 0.783170 0.826740 -0.512679
O30   O     O_R   0.956790 0.783170 0.173260 -0.512226
O31   O     O_R   0.678350 0.375000 0.822720 -0.494901
O32   O     O_R   0.321650 0.375000 0.177280 -0.490223
O33   O     O_R   0.178350 0.875000 0.822720 -0.492054
O34   O     O_R   0.715710 0.790360 0.169460 -0.508418
O35   O     O_R   0.821650 0.875000 0.177280 -0.494371
O36   O     O_R   0.785060 0.289300 0.670580 -0.513997
O37   O     O_R   0.214940 0.289300 0.329420 -0.513446
O38   O     O_R   0.285060 0.789300 0.670580 -0.512342
O39   O     O_R   0.714940 0.789300 0.329420 -0.515012
O40   O     O_R   0.763330 0.040090 0.676940 -0.499998
O41   O     O_R   0.236670 0.040090 0.323060 -0.517434
O42   O     O_R   0.263330 0.540090 0.676940 -0.502965
O43   O     O_R   0.736670 0.540090 0.323060 -0.506214
O44   O     O_R   0.668160 0.923110 0.670000 -0.522671
O45   O     O_R   0.554690 0.080440 0.673480 -0.510614
O46   O     O_R   0.331840 0.923110 0.330000 -0.515255
O47   O     O_R   0.168160 0.423110 0.670000 -0.516713
O48   O     O_R   0.831840 0.423110 0.330000 -0.521618
O49   O     O_2   0.564668 0.608211 0.127463 -0.505537
O50   O     O_2   0.436400 0.577019 0.862859 -0.499748
O51   O     O_2   0.065872 0.114088 0.128498 -0.506885
O52   O     O_2   0.935543 0.110193 0.872943 -0.504799
O53   O     O_R   0.445310 0.080440 0.326520 -0.512326
O54   O     O_R   0.054690 0.580440 0.673480 -0.508521
O55   O     O_R   0.945310 0.580440 0.326520 -0.508392
O56   O     O_R   0.543980 0.282110 0.666770 -0.512989

loop_
_geom_bond_atom_site_label_1
_geom_bond_atom_site_label_2
_ccdc_geom_bond_type
C35   H49   S    
C7    C10   D    
C79   C83   A    
C55   C56   A    
C103  O33   A    
C49   C63   S    
C15   C29   S    
Cr8   O9    S    
C39   C106  A    
C24   C42   A    
Cr9   O10   S    
C24   H33   S    
C83   H9    S    
C70   C88   S    
C42   C103  S    
C25   C43   A    
C15   C28   A    
Cr10  O25   S    
C19   O51   D    
Cr6   O38   S    
Cr8   O18   S    
C53   C54   A    
C51   O21   A    
C36   H46   S    
C107  O41   A    
C13   C84   A    
Cr11  O21   S    
C80   C85   A    
C5    C58   S    
C81   H7    S    
Cr3   O3    S    
C50   C64   S    
C32   C36   S    
C75   C92   S    
Cr1   O14   S    
Cr2   O10   S    
C94   H60   S    
C30   H39   S    
Cr1   O9    S    
C99   C116  S    
C111  O2    A    
C114  O36   A    
C71   C76   A    
C76   C93   S    
C9    H12   S    
C101  O1    A    
C67   C108  S    
C29   O19   A    
C29   O15   A    
C57   O22   A    
C2    C41   A    
C16   C30   A    
C47   C112  S    
C115  O6    A    
C77   C94   S    
Cr4   O13   S    
C80   H6    S    
C41   C102  S    
Cr12  O27   S    
C63   H2    S    
C61   C63   S    
Cr5   O41   S    
C43   C104  S    
C116  O7    A    
C90   H20   S    
C59   O25   A    
Cr11  O26   S    
C3    O39   A    
C66   C83   A    
C21   C43   A    
C58   O24   A    
C3    C100  S    
Cr11  O13   S    
C96   H26   S    
C21   C38   S    
C88   C92   S    
C78   C96   S    
C8    C9    S    
C4    C57   S    
C50   C52   A    
C54   H54   S    
C107  O46   A    
C39   C101  S    
C23   C41   A    
C68   C107  S    
C23   C27   A    
C14   C27   A    
C74   C78   A    
C112  O3    A    
Cr11  O55   S    
C81   C86   A    
C69   C87   A    
C28   H38   S    
C19   H64   S    
C20   C34   S    
C51   O17   A    
C91   C96   S    
C3    O8    A    
C45   C53   A    
Cr9   O19   S    
C60   O30   A    
C35   H44   S    
C31   C62   S    
Cr2   O6    S    
Cr5   O10   S    
C79   H5    S    
Cr6   O11   S    
Cr4   O35   S    
C88   H14   S    
C13   C42   A    
C6    H30   S    
C17   C31   S    
C90   C94   S    
Cr7   O43   S    
C109  O43   A    
C105  O44   A    
C37   H51   S    
Cr8   O22   S    
C18   H63   S    
C67   C85   A    
C38   H52   S    
Cr6   O23   S    
Cr2   O28   S    
C14   C73   A    
C69   C74   A    
Cr3   O7    S    
C34   C95   S    
C22   C26   A    
C94   H25   S    
C19   C33   S    
C92   H58   S    
C6    C11   D    
C91   H21   S    
C69   C105  S    
C45   C110  S    
C104  O35   A    
C81   C99   A    
C109  O48   A    
C110  O56   A    
C5    H27   S    
C11   H34   S    
C33   C37   S    
C12   C26   A    
C89   C93   S    
C74   C91   S    
C44   C111  S    
C72   C77   A    
C53   H53   S    
C10   H23   S    
C37   H47   S    
C12   C62   A    
C18   O50   D    
C38   H48   S    
C71   C89   S    
C64   H3    S    
C45   C49   A    
Cr10  O11   S    
C68   C72   A    
Cr6   O16   S    
C23   H32   S    
C40   O20   A    
C115  O37   A    
C102  O32   A    
C114  O5    A    
C36   H50   S    
Cr9   O46   S    
C1    C16   S    
Cr12  O56   S    
C104  O34   A    
C87   H13   S    
C44   C48   A    
C34   H41   S    
C61   H68   S    
C108  O47   A    
C96   H61   S    
C15   C84   A    
C2    C73   A    
Cr10  O20   S    
C86   H11   S    
C27   H37   S    
Cr7   O39   S    
C68   C86   A    
C93   H59   S    
C48   C49   A    
C4    H28   S    
C32   H43   S    
C108  O42   A    
C7    C60   S    
Cr5   O37   S    
Cr7   O17   S    
C92   H22   S    
Cr4   O8    S    
C105  O40   A    
C63   H67   S    
C33   H40   S    
C18   C32   S    
Cr12  O9    S    
C46   C56   A    
Cr2   O2    S    
Cr4   O30   S    
C20   H65   S    
C91   H17   S    
C12   C51   S    
Cr1   O1    S    
C111  O53   A    
Cr3   O29   S    
C47   C55   A    
C72   C90   S    
C57   O27   A    
C2    C36   S    
C25   C30   A    
C89   H19   S    
C40   O16   A    
C16   C95   A    
C58   O28   A    
C46   C113  S    
C80   C98   A    
C1    O14   A    
C34   C38   S    
C82   C100  A    
C6    C59   S    
C79   C97   A    
Cr11  O48   S    
C24   C28   A    
C60   O26   A    
C5    C8    D    
C64   H45   S    
Cr8   O45   S    
C112  O54   A    
C47   C52   A    
C7    H29   S    
C31   H42   S    
C17   H62   S    
C65   H4    S    
C21   C95   A    
C46   C50   A    
Cr1   O36   S    
C56   H57   S    
C113  O55   A    
C75   C97   A    
C101  O31   A    
Cr10  O54   S    
Cr2   O32   S    
C64   C65   S    
Cr9   O53   S    
C97   C114  S    
C35   C106  S    
C89   H15   S    
C78   C100  A    
Cr10  O47   S    
C110  O45   A    
C98   C115  S    
Cr6   O42   S    
Cr7   O34   S    
C13   C37   S    
C25   H35   S    
Cr12  O31   S    
Cr8   O44   S    
C22   C39   A    
Cr7   O13   S    
C31   C35   S    
C26   H36   S    
Cr4   O4    S    
C113  O4    A    
C61   H66   S    
C77   C99   A    
C76   C98   A    
C67   C71   A    
Cr12  O5    S    
Cr5   O15   S    
C66   C109  S    
C82   H8    S    
C59   O29   A    
C33   C84   S    
C8    H1    S    
C10   C11   S    
C17   O49   D    
C14   C40   S    
Cr9   O24   S    
C44   C54   A    
C20   O52   D    
Cr3   O11   S    
C66   C70   A    
C70   C75   A    
C62   C106  A    
C22   H31   S    
C116  O38   A    
C1    O18   A    
C48   C61   S    
C55   H55   S    
C93   H24   S    
Cr5   O12   S    
C88   H18   S    
C4    C9    D    
Cr1   O40   S    
C102  O12   A    
C85   H10   S    
C32   C73   S    
C90   H16   S    
C52   C65   S    
C82   C87   A    
C103  O23   A    
Cr3   O33   S    
C65   H56   S    
