data_mof_unit_55306.cif
_audit_creation_date              2012-12-11T14:49:48-0500
_audit_creation_method            fapswitch 2.2
_symmetry_space_group_name_H-M    P1
_symmetry_Int_Tables_number       1
_space_group_crystal_system       monoclinic
_cell_length_a                    11.04934
_cell_length_b                    11.04934
_cell_length_c                    18.962509
_cell_angle_alpha                 90.0
_cell_angle_beta                  90.0
_cell_angle_gamma                 120.000156
_cell_volume                      2004.92635111

loop_
_atom_site_label
_atom_site_type_symbol
_atom_type_description
_atom_site_fract_x
_atom_site_fract_y
_atom_site_fract_z
_atom_type_partial_charge
C1    C     C_R   0.528027 0.465121 0.646105 0.577464
C2    C     C_R   0.466619 0.531593 0.354336 0.603197
C3    C     C_R   0.468407 0.935025 0.145664 0.603197
C4    C     C_R   0.064975 0.533381 0.354336 0.603196
C5    C     C_R   0.375572 0.945781 0.543837 -0.108341
C6    C     C_R   0.570210 0.624428 0.956163 -0.108341
C7    C     C_R   0.054219 0.429791 0.543837 -0.108341
C8    C     C_R   0.375571 0.945781 0.956163 -0.108341
C9    C     C_R   0.570210 0.624428 0.543837 -0.108340
C10   C     C_R   0.054218 0.429790 0.956163 -0.108338
C11   C     C_R   0.061355 0.421114 0.029735 -0.129150
C12   C     C_R   0.937093 0.471973 0.853894 0.577461
C13   C     C_R   0.578887 0.640242 0.470265 -0.129150
C14   C     C_R   0.359758 0.938644 0.029735 -0.129151
C15   C     C_R   0.061356 0.421115 0.470265 -0.129151
C16   C     C_R   0.578887 0.640242 0.029735 -0.129150
C17   C     C_R   0.359758 0.938644 0.470265 -0.129151
C18   C     C_R   0.479411 0.987642 0.426057 0.013136
C19   C     C_R   0.508231 0.520589 0.073943 0.013137
C20   C     C_R   0.012358 0.491769 0.426057 0.013136
C21   C     C_R   0.479411 0.987642 0.073943 0.013136
C22   C     C_R   0.508231 0.520589 0.426057 0.013136
C23   C     C_R   0.534879 0.062907 0.646105 0.577464
C24   C     C_R   0.012357 0.491769 0.073943 0.013136
C25   C     C_R   0.980809 0.491398 0.927726 0.003888
C26   C     C_R   0.508603 0.489411 0.572274 0.003890
C27   C     C_R   0.510588 0.019191 0.927726 0.003890
C28   C     C_R   0.980809 0.491398 0.572274 0.003891
C29   C     C_R   0.508603 0.489411 0.927726 0.003887
C30   C     C_R   0.510589 0.019191 0.572274 0.003891
C31   C     C_R   0.612561 0.065123 0.454117 0.224422
C32   C     C_R   0.452562 0.387438 0.045883 0.224424
C33   C     C_R   0.934877 0.547438 0.454117 0.224423
C34   C     C_R   0.528027 0.465120 0.853895 0.577462
C35   C     C_R   0.612561 0.065123 0.045883 0.224423
C36   C     C_R   0.452562 0.387439 0.454117 0.224423
C37   C     C_R   0.934877 0.547438 0.045883 0.224424
C38   C     C_R   0.917060 0.545227 0.973050 0.208083
C39   C     C_R   0.454776 0.371833 0.526950 0.208086
C40   C     C_R   0.628166 0.082942 0.973050 0.208085
C41   C     C_R   0.917058 0.545224 0.526950 0.208087
C42   C     C_R   0.454777 0.371833 0.973050 0.208085
C43   C     C_R   0.628166 0.082943 0.526950 0.208087
C44   C     C_1   0.254310 0.889647 0.589660 0.247311
C45   C     C_R   0.937093 0.471973 0.646105 0.577464
C46   C     C_1   0.635338 0.745690 0.910340 0.247312
C47   C     C_1   0.110353 0.364664 0.589660 0.247310
C48   C     C_1   0.254310 0.889647 0.910340 0.247312
C49   C     C_1   0.635338 0.745690 0.589660 0.247311
C50   C     C_1   0.110351 0.364662 0.910340 0.247312
C51   C     C_1   0.098245 0.322591 0.058613 0.255991
C52   C     C_1   0.677409 0.775654 0.441387 0.255991
C53   C     C_1   0.224346 0.901755 0.058613 0.255992
C54   C     C_1   0.098245 0.322592 0.441387 0.255990
C55   C     C_1   0.677409 0.775654 0.058613 0.255991
C56   C     C_R   0.534879 0.062906 0.853894 0.577462
C57   C     C_1   0.224346 0.901755 0.441387 0.255991
C58   C     C_R   0.466619 0.531593 0.145664 0.603197
C59   C     C_R   0.468407 0.935025 0.354336 0.603196
C60   C     C_R   0.064974 0.533381 0.145664 0.603196
Cr1   Cr    Cr6+3 0.776430 0.541680 0.750000 1.145519
Cr2   Cr    Cr6+3 0.765250 0.223570 0.750000 1.145519
Cr3   Cr    Cr6+3 0.458320 0.234750 0.750000 1.145519
Cr4   Cr    Cr6+3 0.541680 0.776430 0.250000 1.119760
Cr5   Cr    Cr6+3 0.223570 0.765250 0.250000 1.119760
Cr6   Cr    Cr6+3 0.234750 0.458320 0.250000 1.119760
H1    H     H_    0.811318 0.145008 0.434099 0.356384
H2    H     H_    0.742092 0.535522 0.523655 0.312266
H3    H     H_    0.464478 0.206569 0.976345 0.312266
H4    H     H_    0.793432 0.257908 0.523654 0.312268
H5    H     H_    0.333690 0.188682 0.065901 0.356384
H6    H     H_    0.854991 0.666308 0.434099 0.356384
H7    H     H_    0.811319 0.145010 0.065901 0.356385
H8    H     H_    0.333690 0.188682 0.434099 0.356384
H9    H     H_    0.854989 0.666307 0.065901 0.356386
H10   H     H_    0.742094 0.535524 0.976342 0.312265
H11   H     H_    0.464477 0.206569 0.523655 0.312267
H12   H     H_    0.793428 0.257910 0.976345 0.312265
N1    N     N_1   0.157752 0.845576 0.626289 -0.214362
N2    N     N_1   0.123324 0.240527 0.418618 -0.201487
N3    N     N_1   0.759474 0.882798 0.081382 -0.201486
N4    N     N_1   0.117202 0.876675 0.418618 -0.201487
N5    N     N_1   0.687824 0.842247 0.873710 -0.214362
N6    N     N_1   0.154424 0.312178 0.626290 -0.214364
N7    N     N_1   0.157752 0.845576 0.873710 -0.214359
N8    N     N_1   0.687825 0.842248 0.626289 -0.214363
N9    N     N_1   0.154422 0.312175 0.873710 -0.214363
N10   N     N_1   0.123324 0.240527 0.081382 -0.201487
N11   N     N_1   0.759474 0.882798 0.418618 -0.201488
N12   N     N_1   0.117202 0.876676 0.081382 -0.201485
O1    O     O_R   0.916700 0.566820 0.669930 -0.437546
O2    O     O_R   0.566820 0.916700 0.330070 -0.440820
O3    O     O_R   0.083300 0.650120 0.169930 -0.440820
O4    O     O_R   0.349880 0.433180 0.330070 -0.440820
O5    O     O_R   0.649840 0.534790 0.674920 -0.476573
O6    O     O_R   0.884950 0.350160 0.825080 -0.476573
O7    O     O_R   0.465210 0.115050 0.674920 -0.476574
O8    O     O_R   0.649840 0.534790 0.825080 -0.476576
O9    O     O_R   0.884950 0.350160 0.674920 -0.476572
O10   O     O_R   0.465210 0.115050 0.825080 -0.476574
O11   O     O_R   0.534790 0.649840 0.174920 -0.514175
O12   O     O_R   0.650120 0.083300 0.830070 -0.437546
O13   O     O_R   0.350160 0.884950 0.325080 -0.514174
O14   O     O_R   0.115050 0.465210 0.174920 -0.514175
O15   O     O_R   0.534790 0.649840 0.325080 -0.514175
O16   O     O_R   0.350160 0.884950 0.174920 -0.514174
O17   O     O_R   0.115050 0.465210 0.325080 -0.514174
O18   O     O_3   0.666667 0.333333 0.750000 -0.315324
O19   O     O_3   0.333333 0.666667 0.250000 -0.340146
O20   O     O_3   0.725832 0.127520 0.408768 -0.648560
O21   O     O_3   0.401689 0.274168 0.091233 -0.648559
O22   O     O_3   0.872479 0.598310 0.408767 -0.648559
O23   O     O_R   0.433180 0.349880 0.669930 -0.437546
O24   O     O_3   0.725831 0.127520 0.091232 -0.648558
O25   O     O_3   0.401689 0.274168 0.408767 -0.648559
O26   O     O_3   0.872479 0.598310 0.091233 -0.648558
O27   O     O_3   0.825523 0.582747 0.946081 -0.654527
O28   O     O_3   0.417260 0.242776 0.553918 -0.654530
O29   O     O_3   0.757223 0.174485 0.946082 -0.654530
O30   O     O_3   0.825517 0.582741 0.553918 -0.654529
O31   O     O_3   0.417261 0.242776 0.946082 -0.654531
O32   O     O_3   0.757223 0.174485 0.553918 -0.654531
O33   O     O_R   0.916700 0.566820 0.830070 -0.437546
O34   O     O_R   0.650120 0.083300 0.669930 -0.437546
O35   O     O_R   0.433180 0.349880 0.830070 -0.437545
O36   O     O_R   0.566820 0.916700 0.169930 -0.440820
O37   O     O_R   0.083300 0.650120 0.330070 -0.440820
O38   O     O_R   0.349880 0.433180 0.169930 -0.440820

loop_
_geom_bond_atom_site_label_1
_geom_bond_atom_site_label_2
_ccdc_geom_bond_type
H6    O22   S    
C58   O38   A    
C32   O21   S    
Cr2   O6    S    
C29   C42   A    
C11   C24   A    
Cr1   O8    S    
Cr6   O17   S    
Cr2   O34   S    
C3    O36   A    
Cr4   O15   S    
C37   O26   S    
Cr3   O10   S    
C31   C43   A    
Cr5   O37   S    
C14   C21   A    
C16   C19   A    
C26   C39   A    
C5    C17   A    
C28   C41   A    
C35   O24   S    
Cr1   O18   S    
C9    C13   A    
Cr6   O19   S    
C38   O27   S    
H5    O21   S    
C2    C22   S    
C55   N3    T    
C24   C60   S    
Cr6   O4    S    
C60   O3    A    
Cr5   O3    S    
C3    O16   A    
C52   N11   T    
Cr4   O11   S    
C1    O23   A    
C19   C32   A    
C18   C31   A    
C9    C26   A    
C17   C18   A    
C54   N2    T    
C44   N1    T    
C19   C58   S    
C32   C42   A    
C15   C20   A    
C4    O17   A    
C28   C45   S    
C23   C30   S    
Cr6   O14   S    
C2    O4    A    
C9    C49   S    
C15   C54   S    
C45   O9    A    
C33   O22   S    
C27   C56   S    
Cr3   O23   S    
C6    C16   A    
C29   C34   S    
C7    C28   A    
Cr2   O9    S    
C7    C47   S    
C6    C29   A    
C8    C48   S    
C37   C38   A    
C25   C38   A    
C13   C52   S    
H4    O32   S    
H1    O20   S    
H3    O31   S    
C27   C40   A    
C1    O5    A    
C40   O29   S    
C24   C37   A    
C58   O11   A    
C47   N6    T    
C43   O32   S    
Cr5   O19   S    
Cr3   O35   S    
C50   N9    T    
C20   C33   A    
C10   C25   A    
C23   O7    A    
C5    C44   S    
H11   O28   S    
Cr4   O36   S    
C1    C26   S    
C30   C43   A    
C3    C21   S    
C56   O10   A    
C10   C50   S    
Cr5   O16   S    
C5    C30   A    
C8    C14   A    
C6    C46   S    
C4    O37   A    
C57   N4    T    
C49   N8    T    
C36   C39   A    
C51   N10   T    
Cr1   O5    S    
C23   O34   A    
C21   C35   A    
C39   O28   S    
C22   C36   A    
C2    O15   A    
H10   O27   S    
C12   C25   S    
Cr1   O33   S    
C33   C41   A    
C35   C40   A    
C16   C55   S    
C59   O13   A    
Cr3   O7    S    
H2    O30   S    
Cr4   O19   S    
C12   O33   A    
C34   O35   A    
H8    O25   S    
C7    C15   A    
C34   O8    A    
C31   O20   S    
Cr6   O38   S    
C13   C22   A    
H12   O29   S    
C59   O2    A    
C41   O30   S    
C45   O1    A    
C11   C51   S    
C10   C11   A    
H7    O24   S    
C56   O12   A    
C46   N5    T    
C4    C20   S    
C18   C59   S    
C14   C53   S    
Cr2   O18   S    
C53   N12   T    
C8    C27   A    
Cr5   O13   S    
C48   N7    T    
C12   O6    A    
H9    O26   S    
Cr4   O2    S    
Cr3   O18   S    
C60   O14   A    
C36   O25   S    
Cr1   O1    S    
C42   O31   S    
C17   C57   S    
Cr2   O12   S    
