data_mof_unit_38481.cif
_audit_creation_date              2012-12-10T17:35:00-0500
_audit_creation_method            fapswitch 2.2
_symmetry_space_group_name_H-M    P1
_symmetry_Int_Tables_number       1
_space_group_crystal_system       triclinic
_cell_length_a                    12.479747
_cell_length_b                    13.430417
_cell_length_c                    13.859566
_cell_angle_alpha                 107.476806
_cell_angle_beta                  73.360024
_cell_angle_gamma                 117.398669
_cell_volume                      1936.85648333

loop_
_atom_site_label
_atom_site_type_symbol
_atom_type_description
_atom_site_fract_x
_atom_site_fract_y
_atom_site_fract_z
_atom_type_partial_charge
C1    C     C_R   0.144395 0.713004 0.511053 0.810939
C2    C     C_1   0.973265 0.506913 0.792282 -0.106387
C3    C     C_R   0.735439 0.970121 0.387662 -0.146147
C4    C     C_R   0.772415 0.164291 0.477952 -0.162540
C5    C     C_R   0.184839 0.906335 0.614039 -0.360947
C6    C     C_R   0.266719 0.001535 0.671330 0.325495
C7    C     C_R   0.393429 0.027931 0.642430 0.447465
C8    C     C_R   0.438437 0.972420 0.545574 -0.060836
C9    C     C_R   0.354714 0.871347 0.493253 -0.037429
C10   C     C_R   0.564958 0.012432 0.500249 -0.060887
C11   C     C_R   0.608888 0.936349 0.422940 0.037845
C12   C     C_R   0.983596 0.504483 0.686437 0.830692
C13   C     C_R   0.525659 0.831881 0.376287 0.393975
C14   C     C_R   0.400146 0.806057 0.405481 -0.231949
C15   C     C_R   0.646011 0.129592 0.519653 0.496377
C16   C     C_R   0.816685 0.082455 0.417254 -0.287240
C17   C     C_R   0.227432 0.834793 0.532464 -0.115863
C18   C     C_R   0.604938 0.613350 0.695263 0.433976
C19   C     C_R   0.252397 0.356138 0.356546 0.588001
C20   C     C_R   0.350858 0.324260 0.322086 -0.447376
C21   C     C_R   0.448818 0.374134 0.375439 0.397378
C22   C     C_R   0.450166 0.460695 0.464842 -0.064937
C23   C     C_R   0.855502 0.286735 0.488312 0.821385
C24   C     C_R   0.345209 0.488894 0.500104 0.046325
C25   C     C_R   0.547326 0.515749 0.525393 -0.177192
C26   C     C_R   0.518642 0.563806 0.629892 -0.172255
C27   C     C_R   0.408624 0.574445 0.666250 -0.238061
C28   C     C_R   0.341118 0.565302 0.597164 0.532469
C29   C     C_R   0.671005 0.525830 0.489064 0.545471
C30   C     C_R   0.719883 0.612589 0.657419 0.424818
C31   C     C_R   0.016601 0.495761 0.313568 0.815635
C32   C     C_1   0.028794 0.495129 0.207790 -0.127326
C33   C     C_2   0.048999 0.496092 0.012759 0.426385
C34   C     C_2   0.961509 0.508117 0.985685 -0.183491
C35   C     C_1   0.966720 0.507997 0.880757 0.101358
C36   C     C_1   0.038611 0.495356 0.119015 -0.113129
Cu1   Cu    Cu3+1 0.899780 0.525060 0.522890 1.019729
Cu2   Cu    Cu3+1 0.100220 0.474940 0.477110 1.027737
H1    H     H_    0.884287 0.517354 0.042542 0.128250
H2    H     H_    0.338403 0.733285 0.359445 0.147511
H3    H     H_    0.385340 0.608328 0.746755 0.211411
H4    H     H_    0.349547 0.257521 0.254410 0.144175
H5    H     H_    0.913203 0.107230 0.385015 0.203240
H6    H     H_    0.771674 0.911553 0.332743 0.204399
H7    H     H_    0.087243 0.880041 0.641843 0.167711
N1    N     N_R   0.748810 0.563010 0.557590 -0.286977
N2    N     N_R   0.250540 0.437620 0.443020 -0.209505
O1    O     O_R   0.025040 0.682470 0.528790 -0.618104
O2    O     O_R   0.194310 0.640150 0.490130 -0.530256
O3    O     O_R   0.903380 0.524130 0.659910 -0.551399
O4    O     O_R   0.072660 0.481800 0.621240 -0.525194
O5    O     O_R   0.805690 0.359850 0.509870 -0.537216
O6    O     O_R   0.974960 0.317530 0.471210 -0.549019
O7    O     O_R   0.927340 0.518200 0.378760 -0.511938
O8    O     O_R   0.096620 0.475870 0.340090 -0.543288
O9    O     O_3   0.803615 0.666865 0.722704 -0.692851
H8    H     H_    0.884933 0.701147 0.680849 0.340333
O10   O     O_3   0.576990 0.662320 0.797243 -0.536349
C37   C     C_3   0.617183 0.781018 0.805437 -0.267400
H9    H     H_    0.587244 0.818555 0.885763 0.196189
H10   H     H_    0.576270 0.799319 0.754752 0.126470
H11   H     H_    0.718858 0.824211 0.787986 0.185256
O11   O     O_3   0.720214 0.513896 0.386148 -0.648464
H12   H     H_    0.677956 0.536794 0.351640 0.330426
O12   O     O_3   0.154125 0.303336 0.305539 -0.694878
H13   H     H_    0.168595 0.246098 0.244845 0.299695
O13   O     O_3   0.537284 0.331325 0.345553 -0.735617
H14   H     H_    0.521824 0.270908 0.282652 0.327201
O14   O     O_3   0.272126 0.629081 0.624820 -0.534466
C38   C     C_3   0.327602 0.739248 0.684787 -0.322098
H15   H     H_    0.425587 0.784435 0.651361 0.159393
H16   H     H_    0.316133 0.735266 0.766122 0.165538
H17   H     H_    0.278667 0.790820 0.687247 0.187696
O15   O     O_3   0.146956 0.484545 0.939876 -0.705398
H18   H     H_    0.201239 0.476979 0.974811 0.338965
O16   O     O_3   0.568715 0.760642 0.297157 -0.741136
H19   H     H_    0.498196 0.690171 0.274281 0.327414
O17   O     O_3   0.601321 0.212067 0.572194 -0.537723
C39   C     C_3   0.545421 0.228481 0.506492 -0.160897
H20   H     H_    0.608072 0.245443 0.432347 0.194803
H21   H     H_    0.523344 0.303567 0.544817 0.202774
H22   H     H_    0.457921 0.154393 0.491601 0.130946
O18   O     O_3   0.473359 0.099566 0.710323 -0.685471
H23   H     H_    0.428259 0.126407 0.776449 0.371833
O19   O     O_3   0.224739 0.065221 0.759163 -0.730716
H24   H     H_    0.134269 0.035456 0.768299 0.335265

loop_
_geom_bond_atom_site_label_1
_geom_bond_atom_site_label_2
_ccdc_geom_bond_type
C2    C35   T    
C7    O18   S    
C29   O11   S    
C19   C20   A    
C18   C26   A    
C2    C12   S    
C7    C8    A    
Cu2   O2    S    
O19   H24   S    
C26   C27   A    
C6    O19   S    
C32   C36   T    
C10   C15   A    
C5    C6    A    
C19   N2    A    
C15   O17   S    
C5    C17   A    
C33   C36   S    
O9    H8    S    
C34   C35   S    
C18   O10   S    
Cu2   O8    S    
O18   H23   S    
C8    C9    A    
C22   C25   A    
C38   H15   S    
C18   C30   A    
C37   H9    S    
C13   C14   A    
C21   O13   S    
C28   O14   S    
C23   O6    A    
C25   C29   A    
C3    H6    S    
C37   H10   S    
O15   H18   S    
O13   H14   S    
O16   H19   S    
C39   H21   S    
Cu1   O5    S    
O17   C39   S    
Cu2   O4    S    
C25   C26   A    
C5    H7    S    
C34   H1    S    
C4    C16   A    
C9    C14   A    
Cu1   Cu2   S    
C27   H3    S    
C20   H4    S    
C31   C32   S    
C13   O16   S    
C38   H17   S    
C33   C34   D    
Cu1   O1    S    
C16   H5    S    
Cu2   N2    S    
Cu1   O7    S    
C9    C17   A    
C22   C24   A    
C12   O4    A    
C4    C23   S    
C37   H11   S    
C24   N2    A    
C30   N1    A    
C24   C28   A    
O11   H12   S    
C39   H22   S    
C12   O3    A    
C1    O1    A    
C6    C7    A    
C1    C17   S    
C29   N1    A    
C4    C15   A    
O10   C37   S    
Cu1   O3    S    
C11   C13   A    
C23   O5    A    
Cu2   O6    S    
C30   O9    S    
C19   O12   S    
C31   O7    A    
O14   C38   S    
C3    C11   A    
C10   C11   A    
C14   H2    S    
C39   H20   S    
C33   O15   S    
C20   C21   A    
C8    C10   A    
O12   H13   S    
C27   C28   A    
C38   H16   S    
C31   O8    A    
Cu1   N1    S    
C21   C22   A    
C1    O2    A    
C3    C16   A    
