data_mof_unit_23507.cif
_audit_creation_date              2012-10-26T21:16:06-0400
_audit_creation_method            fapswitch 2.2
_symmetry_space_group_name_H-M    P1
_symmetry_Int_Tables_number       1
_space_group_crystal_system       triclinic
_cell_length_a                    19.36789
_cell_length_b                    10.960757
_cell_length_c                    9.687657
_cell_angle_alpha                 89.946722
_cell_angle_beta                  88.806054
_cell_angle_gamma                 90.496418
_cell_volume                      2056.03614346

loop_
_atom_site_label
_atom_site_type_symbol
_atom_type_description
_atom_site_fract_x
_atom_site_fract_y
_atom_site_fract_z
_atom_type_partial_charge
C1    C     C_R   0.499168 0.265153 0.499855 0.597345
C2    C     C_R   0.854326 0.522840 0.499705 -0.003563
C3    C     C_2   0.473211 0.934570 0.405618 0.230034
C4    C     C_R   0.367363 0.496901 0.501510 0.605427
C5    C     C_2   0.505258 0.865449 0.498285 -0.109163
C6    C     C_2   0.495453 0.060870 0.391503 0.232217
C7    C     C_2   0.486947 0.134324 0.501520 -0.107856
C8    C     C_2   0.469605 0.416232 0.924143 0.092610
C9    C     C_2   0.459408 0.431226 0.078275 0.157749
C10   C     C_R   0.499154 0.734322 0.499955 0.580601
C11   C     C_R   0.632738 0.499979 0.498435 0.546416
C12   C     C_R   0.291101 0.497537 0.504029 0.014377
C13   C     C_R   0.250570 0.445898 0.613499 0.257586
C14   C     C_R   0.178761 0.458913 0.613068 -0.078567
C15   C     C_R   0.146108 0.517124 0.503720 -0.015152
C16   C     C_R   0.186094 0.563146 0.393153 -0.103350
C17   C     C_R   0.257712 0.553792 0.393616 -0.122691
C18   C     C_3   0.577698 0.646751 0.113251 0.078624
C19   C     C_3   0.635812 0.684315 0.013245 -0.394222
C20   C     C_3   0.737211 0.367323 0.184820 0.007267
C21   C     C_3   0.694761 0.341471 0.057491 -0.292002
C22   C     C_R   0.930306 0.528576 0.501914 0.348936
C23   C     C_R   0.070270 0.525445 0.503650 0.357536
C24   C     C_R   0.815415 0.526121 0.623093 -0.133584
C25   C     C_R   0.743722 0.518257 0.621002 -0.179730
C26   C     C_R   0.709122 0.503820 0.495773 0.029215
C27   C     C_R   0.748254 0.494560 0.371014 0.250803
C28   C     C_R   0.820357 0.509641 0.374214 -0.107910
Cu1   Cu    Cu3+1 0.500010 0.500020 0.638630 1.019557
Cu2   Cu    Cu3+1 0.499990 0.499980 0.361370 1.118758
H1    H     H_    0.542875 0.905948 0.566800 0.052951
H2    H     H_    0.715365 0.524062 0.718306 0.137150
H3    H     H_    0.849972 0.509370 0.278268 0.139298
H4    H     H_    0.357596 0.208515 0.759428 0.360926
H5    H     H_    0.591615 0.000134 0.071972 0.356432
H6    H     H_    0.596172 0.664162 0.218619 0.205320
H7    H     H_    0.532428 0.705252 0.092764 0.182728
H8    H     H_    0.620850 0.667013 0.904984 0.143861
H9    H     H_    0.647408 0.783042 0.025216 0.130100
H10   H     H_    0.683240 0.632306 0.035069 0.187715
H11   H     H_    0.729989 0.289652 0.258181 0.174488
H12   H     H_    0.464472 0.096959 0.596576 0.082495
H13   H     H_    0.792262 0.372320 0.150410 0.117672
H14   H     H_    0.711491 0.254226 0.009778 0.104395
H15   H     H_    0.639212 0.333623 0.086171 0.255309
H16   H     H_    0.702188 0.415797 0.980560 0.140957
H17   H     H_    0.377748 0.038262 0.178776 0.376976
H18   H     H_    0.448572 0.335169 0.876282 0.162418
H19   H     H_    0.507071 0.582661 0.890773 0.241497
H20   H     H_    0.417125 0.381691 0.128359 0.128996
H21   H     H_    0.147873 0.420671 0.697142 0.186527
H22   H     H_    0.162133 0.607856 0.306914 0.172836
H23   H     H_    0.287181 0.592511 0.307729 0.195103
H24   H     H_    0.840286 0.536458 0.721545 0.151130
N1    N     N_R   0.036545 0.547275 0.384889 -0.204011
N2    N     N_R   0.967874 0.548482 0.384003 -0.217788
N3    N     N_R   0.964087 0.508525 0.620968 -0.213391
N4    N     N_R   0.032706 0.506771 0.621743 -0.209505
N5    N     N_2   0.499250 0.498660 0.846910 -0.334720
N6    N     N_2   0.499230 0.498630 0.153040 -0.065108
O1    O     O_R   0.500010 0.321960 0.617040 -0.504938
O2    O     O_2   0.230516 0.281602 0.817574 -0.261647
O3    O     O_3   0.347496 0.265935 0.683622 -0.526317
O4    O     O_2   0.498728 0.172953 0.145461 -0.314425
O5    O     O_2   0.605975 0.172425 0.276682 -0.317596
O6    O     O_3   0.567611 0.971566 0.157467 -0.535389
O7    O     O_3   0.561917 0.522063 0.094254 -0.495055
O8    O     O_3   0.715718 0.478326 0.245946 -0.544388
O9    O     O_2   0.426276 0.818356 0.181242 -0.271637
O10   O     O_2   0.357246 0.799159 0.394589 -0.267822
O11   O     O_3   0.354237 0.004745 0.262459 -0.466475
O12   O     O_R   0.499990 0.321920 0.382900 -0.428936
O13   O     O_R   0.400160 0.500010 0.617110 -0.422999
O14   O     O_R   0.400130 0.499970 0.382960 -0.520712
O15   O     O_R   0.500010 0.678080 0.617100 -0.515092
O16   O     O_R   0.499990 0.678040 0.382960 -0.483381
O17   O     O_R   0.599870 0.500030 0.617040 -0.527925
O18   O     O_R   0.599840 0.499990 0.382890 -0.441019
O19   O     O_2   0.316425 0.442881 0.852918 -0.283861
S1    S     S_3+6 0.285911 0.358237 0.748192 0.026901
S2    S     S_3+6 0.542996 0.099649 0.239482 0.006280
S3    S     S_3+6 0.401728 0.884180 0.308750 0.076410

loop_
_geom_bond_atom_site_label_1
_geom_bond_atom_site_label_2
_ccdc_geom_bond_type
C23   N4    A    
N1    N2    A    
C3    C6    S    
C22   N3    A    
C20   H11   S    
C26   C27   A    
O2    S1    D    
C11   O18   A    
C18   H7    S    
C8    N5    D    
Cu2   O14   S    
Cu1   O13   S    
C24   H24   S    
C15   C16   A    
C18   C19   S    
C11   C26   S    
C7    H12   S    
O9    S3    D    
C11   O17   A    
C10   O16   A    
Cu1   N5    S    
N6    O7    S    
C8    C9    S    
Cu2   N6    S    
C12   C17   A    
C2    C22   S    
C27   O8    S    
C4    C12   S    
C4    O14   A    
O11   S3    S    
C25   H2    S    
C15   C23   S    
C13   S1    S    
C6    S2    S    
C13   C14   A    
C21   H15   S    
O3    S1    S    
Cu1   O1    S    
C1    O12   A    
C24   C25   A    
C16   C17   A    
C22   N2    A    
H5    O6    S    
C18   O7    S    
C8    H18   S    
Cu1   Cu2   S    
C19   H8    S    
C21   H14   S    
Cu2   O16   S    
C10   O15   A    
O5    S2    D    
C14   H21   S    
C3    S3    S    
C12   C13   A    
H17   O11   S    
C4    O13   A    
C19   H9    S    
C28   H3    S    
C2    C24   A    
C17   H23   S    
C20   H13   S    
C21   H16   S    
C1    C7    S    
C20   O8    S    
C9    H20   S    
C16   H22   S    
C3    C5    D    
C1    O1    A    
Cu2   O12   S    
C23   N1    A    
C6    C7    D    
Cu1   O15   S    
H19   N5    S    
C9    N6    D    
C25   C26   A    
C5    C10   S    
O6    S2    S    
N3    N4    A    
H4    O3    S    
O10   S3    D    
O4    S2    D    
C19   H10   S    
O19   S1    D    
Cu2   O18   S    
Cu1   O17   S    
C20   C21   S    
C27   C28   A    
C14   C15   A    
C2    C28   A    
C18   H6    S    
C5    H1    S    
