data_mof_unit_30999.cif
_audit_creation_date              2012-12-10T17:38:59-0500
_audit_creation_method            fapswitch 2.2
_symmetry_space_group_name_H-M    P1
_symmetry_Int_Tables_number       1
_space_group_crystal_system       triclinic
_cell_length_a                    12.065887
_cell_length_b                    12.783948
_cell_length_c                    23.419305
_cell_angle_alpha                 91.556705
_cell_angle_beta                  85.366702
_cell_angle_gamma                 93.812865
_cell_volume                      3591.78256335

loop_
_atom_site_label
_atom_site_type_symbol
_atom_type_description
_atom_site_fract_x
_atom_site_fract_y
_atom_site_fract_z
_atom_type_partial_charge
C1    C     C_R   0.522657 0.699892 0.498164 0.871891
C2    C     C_R   0.401811 0.509736 0.301272 -0.272756
C3    C     C_R   0.599720 0.490025 0.758064 0.139158
C4    C     C_R   0.401235 0.510733 0.241767 0.140261
C5    C     C_R   0.498205 0.497312 0.791729 0.310276
C6    C     C_R   0.502282 0.499760 0.208205 0.310499
C7    C     C_R   0.461141 0.188868 0.501332 -0.057225
C8    C     C_R   0.538811 0.811136 0.498583 -0.056459
C9    C     C_R   0.595390 0.962765 0.553628 -0.239949
C10   C     C_R   0.404502 0.037258 0.446297 -0.239951
C11   C     C_R   0.599114 0.857239 0.541823 -0.261545
C12   C     C_R   0.477336 0.300107 0.501782 0.871997
C13   C     C_R   0.400880 0.142802 0.458069 -0.261002
C14   C     C_R   0.482872 0.870372 0.461831 0.033164
C15   C     C_R   0.516925 0.129600 0.538126 0.034002
C16   C     C_R   0.499471 0.500252 0.610635 0.866337
C17   C     C_R   0.500541 0.499645 0.389365 0.866322
C18   C     C_R   0.471963 0.976775 0.476488 0.132510
C19   C     C_R   0.527873 0.023214 0.523457 0.133420
C20   C     C_R   0.957518 0.397447 0.449066 -0.334576
C21   C     C_R   0.042468 0.602504 0.550972 -0.334619
C22   C     C_R   0.841316 0.405577 0.453400 0.259984
C23   C     C_R   0.398570 0.505850 0.766215 -0.133086
C24   C     C_R   0.158676 0.594390 0.546624 0.259954
C25   C     C_R   0.857921 0.545447 0.521665 -0.080188
C26   C     C_R   0.142070 0.454539 0.478348 -0.080172
C27   C     C_R   0.974869 0.537323 0.518382 0.065343
C28   C     C_R   0.025121 0.462653 0.481642 0.065237
C29   C     C_R   0.489218 0.405625 0.118722 0.486830
C30   C     C_R   0.511633 0.591519 0.881193 0.498744
C31   C     C_R   0.521637 0.592381 0.119774 0.498693
C32   C     C_R   0.479376 0.404747 0.880147 0.486215
C33   C     C_R   0.519907 0.594183 0.060267 -0.012184
C34   C     C_R   0.601377 0.489189 0.233853 -0.131818
C35   C     C_R   0.481079 0.402958 0.939653 -0.012614
C36   C     C_R   0.501989 0.498663 0.029879 -0.024984
C37   C     C_R   0.499063 0.498477 0.970033 -0.024778
C38   C     C_R   0.486937 0.403325 0.059199 -0.014846
C39   C     C_R   0.514149 0.593807 0.940707 -0.013931
C40   C     C_R   0.534848 0.688697 0.030657 -0.165909
C41   C     C_R   0.466196 0.308438 0.969258 -0.164664
C42   C     C_R   0.531953 0.688515 0.971349 -0.166257
C43   C     C_R   0.469155 0.308615 0.028558 -0.164462
C44   C     C_3   0.222956 0.671486 0.583750 -0.392503
C45   C     C_R   0.398618 0.507152 0.707045 -0.229948
C46   C     C_3   0.224251 0.783784 0.561649 -0.352325
C47   C     C_3   0.289801 0.861208 0.598999 -0.866565
C48   C     C_3   0.777029 0.328460 0.416288 -0.392901
C49   C     C_3   0.775686 0.216180 0.438424 -0.351832
C50   C     C_3   0.710177 0.138730 0.401069 -0.866268
C51   C     C_3   0.709058 0.479600 0.784167 -0.421762
C52   C     C_3   0.783627 0.581243 0.778217 -0.334202
C53   C     C_3   0.893460 0.571610 0.805083 -0.870951
C54   C     C_3   0.292553 0.523507 0.215495 -0.415426
C55   C     C_3   0.257471 0.636368 0.223820 -0.355456
C56   C     C_R   0.601187 0.489167 0.293046 -0.228046
C57   C     C_3   0.149054 0.650530 0.196482 -0.855955
C58   C     C_3   0.559698 0.179204 0.593139 -0.439206
C59   C     C_3   0.488699 0.138042 0.646275 -0.380590
C60   C     C_3   0.530353 0.187285 0.701322 -0.793429
C61   C     C_3   0.439686 0.820718 0.406919 -0.441689
C62   C     C_3   0.510365 0.861726 0.353646 -0.365009
C63   C     C_3   0.466801 0.814096 0.298670 -0.824554
C64   C     C_R   0.498768 0.499900 0.672914 -0.068446
C65   C     C_R   0.501370 0.499404 0.327073 -0.066577
C66   C     C_R   0.598832 0.491476 0.698589 -0.273236
H1    H     H_    0.548625 0.762970 0.053174 0.190463
H2    H     H_    0.644290 0.810168 0.568744 0.158047
H3    H     H_    0.642822 0.994496 0.587979 0.161123
H4    H     H_    0.357102 0.005561 0.411925 0.161972
H5    H     H_    0.249166 0.863903 0.643243 0.259705
H6    H     H_    0.376423 0.837866 0.600593 0.269512
H7    H     H_    0.292593 0.940843 0.580924 0.255577
H8    H     H_    0.262285 0.786826 0.516883 0.243375
H9    H     H_    0.137843 0.808918 0.561739 0.213484
H10   H     H_    0.182880 0.669190 0.628228 0.169716
H11   H     H_    0.308316 0.651232 0.587509 0.258558
H12   H     H_    0.452388 0.234167 0.946744 0.190761
H13   H     H_    0.623576 0.162093 0.399423 0.269538
H14   H     H_    0.750883 0.135975 0.356842 0.260077
H15   H     H_    0.707326 0.059115 0.419174 0.255421
H16   H     H_    0.862084 0.191037 0.438373 0.213651
H17   H     H_    0.737599 0.213177 0.483181 0.243351
H18   H     H_    0.691685 0.348740 0.412504 0.258347
H19   H     H_    0.817125 0.330699 0.371816 0.169325
H20   H     H_    0.995001 0.339633 0.420159 0.143870
H21   H     H_    0.004979 0.660282 0.579902 0.142910
H22   H     H_    0.321065 0.511737 0.792499 0.141630
H23   H     H_    0.180699 0.396779 0.449985 0.130899
H24   H     H_    0.678616 0.480991 0.207660 0.141068
H25   H     H_    0.676524 0.485021 0.672473 0.167534
H26   H     H_    0.324257 0.517682 0.327299 0.167521
H27   H     H_    0.877754 0.555687 0.851531 0.267941
H28   H     H_    0.939646 0.507185 0.783654 0.260842
H29   H     H_    0.945724 0.646103 0.799985 0.252425
H30   H     H_    0.802045 0.599852 0.732195 0.215858
H31   H     H_    0.739919 0.647097 0.799815 0.260729
H32   H     H_    0.695581 0.459971 0.830186 0.209303
H33   H     H_    0.752177 0.413647 0.762236 0.201904
H34   H     H_    0.819289 0.603199 0.550034 0.129280
H35   H     H_    0.159517 0.633567 0.149650 0.266607
H36   H     H_    0.080861 0.597310 0.216186 0.260229
H37   H     H_    0.125642 0.732729 0.203361 0.253421
H38   H     H_    0.245467 0.656536 0.270285 0.219135
H39   H     H_    0.323781 0.691466 0.203952 0.263424
H40   H     H_    0.299028 0.503136 0.169023 0.208640
H41   H     H_    0.226994 0.468265 0.235951 0.202330
H42   H     H_    0.618455 0.169987 0.705038 0.252196
H43   H     H_    0.523766 0.273442 0.701773 0.271103
H44   H     H_    0.478718 0.154654 0.738883 0.273924
H45   H     H_    0.543825 0.762637 0.949642 0.190473
H46   H     H_    0.400786 0.157298 0.643509 0.232307
H47   H     H_    0.490016 0.051556 0.648625 0.234035
H48   H     H_    0.649085 0.165568 0.595500 0.193067
H49   H     H_    0.556039 0.265587 0.594592 0.216587
H50   H     H_    0.471211 0.727678 0.297920 0.272840
H51   H     H_    0.379198 0.833509 0.295401 0.249731
H52   H     H_    0.518620 0.846094 0.261008 0.276371
H53   H     H_    0.510557 0.948373 0.351694 0.233834
H54   H     H_    0.597943 0.840960 0.355843 0.231591
H55   H     H_    0.443227 0.734324 0.405461 0.216175
H56   H     H_    0.457312 0.234488 0.050262 0.190901
H57   H     H_    0.350269 0.834446 0.404742 0.193065
H58   H     H_    0.320457 0.513838 0.688130 0.162554
H59   H     H_    0.678958 0.480895 0.312057 0.161470
H60   H     H_    0.355792 0.189902 0.431122 0.159239
N1    N     N_R   0.505343 0.499211 0.147390 -0.358943
N2    N     N_R   0.495487 0.497934 0.852533 -0.358438
N3    N     N_R   0.207800 0.519350 0.510590 -0.113059
N4    N     N_R   0.792200 0.480650 0.489410 -0.112658
O1    O     O_R   0.421690 0.658830 0.502820 -0.634953
O2    O     O_2   0.525672 0.681639 0.851991 -0.574463
O3    O     O_2   0.538814 0.682618 0.149989 -0.583250
O4    O     O_2   0.462900 0.314444 0.849888 -0.573819
O5    O     O_R   0.578310 0.341170 0.497180 -0.634857
O6    O     O_R   0.609320 0.646410 0.496030 -0.613116
O7    O     O_R   0.390680 0.353590 0.503970 -0.612978
O8    O     O_R   0.406170 0.506240 0.587240 -0.641230
O9    O     O_R   0.593830 0.493760 0.412760 -0.641262
O10   O     O_R   0.593790 0.493820 0.580450 -0.626651
O11   O     O_R   0.406210 0.506180 0.419550 -0.626505
O12   O     O_2   0.474473 0.315569 0.147967 -0.562578
Zn1   Zn    Zn3+2 0.374720 0.508290 0.504530 0.925909
Zn2   Zn    Zn3+2 0.625280 0.491710 0.495470 0.925903

loop_
_geom_bond_atom_site_label_1
_geom_bond_atom_site_label_2
_ccdc_geom_bond_type
C22   C48   S    
C21   H21   S    
C34   C56   A    
C23   C45   A    
C53   H29   S    
C1    C8    S    
C14   C18   A    
C31   N1    A    
C31   O3    S    
C2    C65   A    
C50   H13   S    
C52   C53   S    
C26   H23   S    
C15   C19   A    
C57   H36   S    
C54   H41   S    
C55   H39   S    
C61   H55   S    
C44   H11   S    
C35   C37   A    
C9    H3    S    
C6    N1    S    
O8    Zn1   S    
O11   Zn1   S    
C63   H51   S    
C56   C65   A    
C52   H31   S    
C33   C36   A    
C17   O11   A    
C18   C19   A    
C44   H10   S    
C60   H43   S    
C46   C47   S    
C24   N3    A    
C9    C19   A    
C29   N1    A    
C40   H1    S    
C20   H20   S    
C29   C38   A    
C31   C33   A    
C1    O6    A    
N4    Zn2   S    
C62   H54   S    
C60   H42   S    
C51   H32   S    
C40   C42   A    
C21   C27   A    
C59   C60   S    
C22   N4    A    
C41   C43   A    
C16   O10   A    
C25   N4    A    
C46   H9    S    
C44   C46   S    
C39   C42   A    
C45   H58   S    
C51   H33   S    
C7    C12   S    
C57   H37   S    
C30   N2    A    
C33   C40   A    
C54   H40   S    
C53   H27   S    
C51   C52   S    
C32   C35   A    
C47   H7    S    
C4    C6    A    
C41   H12   S    
C63   H52   S    
C3    C51   S    
C20   C28   A    
C1    O1    A    
C58   C59   S    
C14   C61   S    
C55   H38   S    
C12   O5    A    
C48   H18   S    
C64   C66   A    
C49   H16   S    
C2    C4    A    
C42   H45   S    
C34   H24   S    
C62   C63   S    
O9    Zn2   S    
C25   H34   S    
C5    C23   A    
C59   H47   S    
C59   H46   S    
C17   O9    A    
C56   H59   S    
C2    H26   S    
C9    C11   A    
C43   H56   S    
C47   H5    S    
C62   H53   S    
C26   N3    A    
C63   H50   S    
C10   H4    S    
O5    Zn2   S    
C20   C22   A    
C23   H22   S    
C55   C57   S    
C58   H49   S    
C24   C44   S    
C15   C58   S    
C3    C66   A    
C13   H60   S    
C46   H8    S    
O1    Zn1   S    
C11   H2    S    
C54   C55   S    
C48   C49   S    
C8    C14   A    
C4    C54   S    
C53   H28   S    
C48   H19   S    
C17   C65   S    
O6    Zn2   S    
C16   O8    A    
O10   Zn2   S    
C3    C5    A    
C10   C13   A    
C50   H14   S    
C66   H25   S    
N3    Zn1   S    
C25   C27   A    
C57   H35   S    
C45   C64   A    
C26   C28   A    
C61   H57   S    
C49   H17   S    
C36   C38   A    
C38   C43   A    
C37   C39   A    
C32   O4    S    
C32   N2    A    
C10   C18   A    
C8    C11   A    
C30   O2    S    
C29   O12   S    
C5    N2    S    
C7    C15   A    
C30   C39   A    
C52   H30   S    
O7    Zn1   S    
C61   C62   S    
C35   C41   A    
C47   H6    S    
C60   H44   S    
C6    C34   A    
C7    C13   A    
C36   C37   A    
C49   C50   S    
C21   C24   A    
C27   C28   A    
C58   H48   S    
C12   O7    A    
C16   C64   S    
C50   H15   S    
