data_mof_unit_10603.cif
_audit_creation_date              2012-12-10T17:46:32-0500
_audit_creation_method            fapswitch 2.2
_symmetry_space_group_name_H-M    P1
_symmetry_Int_Tables_number       1
_space_group_crystal_system       monoclinic
_cell_length_a                    20.787488
_cell_length_b                    21.244122
_cell_length_c                    14.741569
_cell_angle_alpha                 90.0
_cell_angle_beta                  127.706824
_cell_angle_gamma                 90.0
_cell_volume                      5150.43275258

loop_
_atom_site_label
_atom_site_type_symbol
_atom_type_description
_atom_site_fract_x
_atom_site_fract_y
_atom_site_fract_z
_atom_type_partial_charge
C1    C     C_R   0.602664 0.913688 0.631274 0.803104
C2    C     C_R   0.396271 0.085434 0.367347 0.804021
C3    C     C_R   0.397336 0.913688 0.368726 0.803105
C4    C     C_R   0.603729 0.085434 0.632652 0.804021
C5    C     C_R   0.102664 0.413688 0.631274 0.803104
C6    C     C_R   0.896271 0.585434 0.367347 0.804021
C7    C     C_R   0.897336 0.413688 0.368726 0.803105
C8    C     C_R   0.103729 0.585434 0.632652 0.804020
C9    C     C_R   0.354691 0.750423 0.958858 -0.234186
C10   C     C_R   0.684083 0.214730 0.094534 -0.225814
C11   C     C_R   0.645309 0.750424 0.041142 -0.234186
C12   C     C_R   0.315916 0.214729 0.905465 -0.225814
C13   C     C_R   0.854690 0.250424 0.958857 -0.234187
C14   C     C_R   0.184083 0.714730 0.094533 -0.225814
C15   C     C_R   0.145309 0.250424 0.041143 -0.234186
C16   C     C_R   0.815917 0.714730 0.905466 -0.225814
C17   C     C_R   0.323326 0.986930 0.666150 -0.301113
C18   C     C_R   0.676673 0.986930 0.333850 -0.301113
C19   C     C_R   0.823326 0.486930 0.666150 -0.301113
C20   C     C_R   0.176673 0.486930 0.333850 -0.301112
C21   C     C_R   0.352553 0.993007 0.603317 0.070169
C22   C     C_R   0.647447 0.993007 0.396683 0.070169
C23   C     C_R   0.852553 0.493007 0.603317 0.070170
C24   C     C_R   0.147447 0.493007 0.396683 0.070170
C25   C     C_R   0.487409 0.001860 0.774873 0.033447
C26   C     C_R   0.512592 0.001860 0.225126 0.033447
C27   C     C_R   0.987409 0.501860 0.774873 0.033447
C28   C     C_R   0.012591 0.501860 0.225127 0.033447
C29   C     C_R   0.462325 0.991553 0.844902 -0.013681
C30   C     C_R   0.537675 0.991553 0.155098 -0.013681
C31   C     C_R   0.962325 0.491553 0.844902 -0.013681
C32   C     C_R   0.037675 0.491553 0.155098 -0.013681
C33   C     C_R   0.377704 0.986108 0.786451 0.105261
C34   C     C_R   0.622297 0.986108 0.213549 0.105262
C35   C     C_R   0.877703 0.486108 0.786451 0.105262
C36   C     C_R   0.122296 0.486108 0.213549 0.105261
C37   C     C_R   0.516719 0.987097 0.968891 -0.033461
C38   C     C_R   0.483281 0.987097 0.031109 -0.033462
C39   C     C_R   0.016719 0.487098 0.968891 -0.033461
C40   C     C_R   0.983281 0.487097 0.031109 -0.033461
C41   C     C_R   0.397602 0.978001 0.967044 0.233877
C42   C     C_R   0.602398 0.978001 0.032956 0.233878
C43   C     C_R   0.897602 0.478002 0.967044 0.233878
C44   C     C_R   0.102398 0.478002 0.032956 0.233877
C45   C     C_R   0.347233 0.977624 0.847229 -0.234799
C46   C     C_R   0.652767 0.977624 0.152771 -0.234801
C47   C     C_R   0.847233 0.477624 0.847229 -0.234801
C48   C     C_R   0.152767 0.477624 0.152771 -0.234800
C49   C     C_R   0.667075 0.130601 0.712872 -0.052392
C50   C     C_R   0.341346 0.862290 0.298261 -0.054362
C51   C     C_R   0.332925 0.130601 0.287128 -0.052392
C52   C     C_R   0.658654 0.862290 0.701739 -0.054362
C53   C     C_R   0.167075 0.630601 0.712872 -0.052392
C54   C     C_R   0.841346 0.362290 0.298261 -0.054362
C55   C     C_R   0.832925 0.630601 0.287128 -0.052392
C56   C     C_R   0.158654 0.362290 0.701739 -0.054363
C57   C     C_R   0.790266 0.188398 0.786481 -0.199144
C58   C     C_R   0.236888 0.787818 0.250604 -0.198287
C59   C     C_R   0.209734 0.188398 0.213518 -0.199144
C60   C     C_R   0.763112 0.787818 0.749395 -0.198287
C61   C     C_R   0.290266 0.688398 0.786482 -0.199145
C62   C     C_R   0.736888 0.287818 0.250605 -0.198288
C63   C     C_R   0.709734 0.688398 0.213518 -0.199144
C64   C     C_R   0.263111 0.287817 0.749394 -0.198288
C65   C     C_R   0.728353 0.148225 0.704884 -0.195454
C66   C     C_R   0.288757 0.837079 0.318203 -0.193256
C67   C     C_R   0.271647 0.148225 0.295115 -0.195453
C68   C     C_R   0.711243 0.837078 0.681797 -0.193256
C69   C     C_R   0.228353 0.648224 0.704885 -0.195454
C70   C     C_R   0.788757 0.337078 0.318203 -0.193255
C71   C     C_R   0.771647 0.648224 0.295115 -0.195453
C72   C     C_R   0.211242 0.337078 0.681796 -0.193255
C73   C     C_R   0.668031 0.153723 0.802369 -0.261395
C74   C     C_R   0.342392 0.837263 0.211570 -0.255940
C75   C     C_R   0.331968 0.153722 0.197631 -0.261395
C76   C     C_R   0.657608 0.837264 0.788430 -0.255940
C77   C     C_R   0.168031 0.653723 0.802369 -0.261396
C78   C     C_R   0.842392 0.337264 0.211570 -0.255941
C79   C     C_R   0.831969 0.653723 0.197631 -0.261395
C80   C     C_R   0.157608 0.337263 0.788430 -0.255939
C81   C     C_R   0.731388 0.192232 0.888243 0.089331
C82   C     C_R   0.293069 0.785990 0.145266 0.088362
C83   C     C_R   0.268612 0.192232 0.111756 0.089330
C84   C     C_R   0.706931 0.785990 0.854734 0.088362
C85   C     C_R   0.231388 0.692232 0.888243 0.089330
C86   C     C_R   0.793069 0.285990 0.145266 0.088362
C87   C     C_R   0.768612 0.692232 0.111757 0.089330
C88   C     C_R   0.206930 0.285990 0.854733 0.088362
C89   C     C_R   0.792246 0.210526 0.877834 0.170114
C90   C     C_R   0.238000 0.762603 0.163656 0.165442
C91   C     C_R   0.207753 0.210525 0.122165 0.170114
C92   C     C_R   0.762000 0.762603 0.836344 0.165442
C93   C     C_R   0.292247 0.710525 0.877835 0.170114
C94   C     C_R   0.738000 0.262603 0.163656 0.165442
C95   C     C_R   0.707753 0.710525 0.122165 0.170114
C96   C     C_R   0.261999 0.262602 0.836343 0.165442
C97   C     C_R   0.735001 0.213910 0.982631 0.067999
C98   C     C_R   0.295183 0.758844 0.058930 0.070863
C99   C     C_R   0.264998 0.213909 0.017368 0.067999
C100  C     C_R   0.704817 0.758844 0.941070 0.070862
C101  C     C_R   0.235001 0.713909 0.982632 0.067999
C102  C     C_R   0.795183 0.258844 0.058930 0.070863
C103  C     C_R   0.764999 0.713910 0.017368 0.067999
C104  C     C_R   0.204816 0.258844 0.941070 0.070862
C105  C     C_R   0.356256 0.774345 0.047681 -0.244176
C106  C     C_R   0.681491 0.191418 0.004518 -0.230098
C107  C     C_R   0.643744 0.774345 0.952319 -0.244176
C108  C     C_R   0.318507 0.191418 0.995481 -0.230098
C109  C     C_R   0.856255 0.274346 0.047680 -0.244176
C110  C     C_R   0.181491 0.691419 0.004517 -0.230098
C111  C     C_R   0.143744 0.274345 0.952319 -0.244176
C112  C     C_R   0.818509 0.691418 0.995483 -0.230098
Cu1   Cu    Cu3+1 0.526640 0.000000 0.436960 0.935474
Cu2   Cu    Cu3+1 0.473360 0.000000 0.563040 0.935474
Cu3   Cu    Cu3+1 0.026640 0.500000 0.436960 0.935474
Cu4   Cu    Cu3+1 0.973360 0.500000 0.563040 0.935474
H1    H     H_    0.402493 0.763687 0.953156 0.141700
H2    H     H_    0.642324 0.195954 0.108610 0.144585
H3    H     H_    0.597507 0.763687 0.046844 0.141700
H4    H     H_    0.357674 0.195953 0.891388 0.144585
H5    H     H_    0.902492 0.263688 0.953155 0.141701
H6    H     H_    0.142324 0.695955 0.108609 0.144585
H7    H     H_    0.097507 0.263688 0.046845 0.141700
H8    H     H_    0.857676 0.695954 0.891390 0.144585
H9    H     H_    0.380820 0.859732 0.195319 0.161961
H10   H     H_    0.617642 0.141678 0.802008 0.150593
H11   H     H_    0.619181 0.859733 0.804682 0.161961
H12   H     H_    0.382357 0.141678 0.197991 0.150593
H13   H     H_    0.880819 0.359733 0.195318 0.161961
H14   H     H_    0.117642 0.641678 0.802008 0.150593
H15   H     H_    0.119181 0.359733 0.804682 0.161960
H16   H     H_    0.882358 0.641678 0.197992 0.150593
H17   H     H_    0.287180 0.855711 0.385207 0.153811
H18   H     H_    0.728781 0.130681 0.636274 0.153629
H19   H     H_    0.712820 0.855711 0.614792 0.153811
H20   H     H_    0.271219 0.130681 0.363726 0.153629
H21   H     H_    0.787180 0.355711 0.385208 0.153811
H22   H     H_    0.228781 0.630681 0.636275 0.153629
H23   H     H_    0.212819 0.355710 0.614791 0.153811
H24   H     H_    0.771219 0.630681 0.363725 0.153629
H25   H     H_    0.336999 0.701828 0.778685 0.134784
H26   H     H_    0.695583 0.269606 0.265913 0.134279
H27   H     H_    0.663002 0.701828 0.221315 0.134783
H28   H     H_    0.304416 0.269605 0.734085 0.134279
H29   H     H_    0.836998 0.201829 0.778684 0.134784
H30   H     H_    0.195582 0.769606 0.265912 0.134278
H31   H     H_    0.163002 0.201829 0.221316 0.134783
H32   H     H_    0.804417 0.769606 0.734087 0.134278
H33   H     H_    0.407834 0.803524 0.108377 0.145556
H34   H     H_    0.637889 0.154482 0.955578 0.136721
H35   H     H_    0.592167 0.803524 0.891623 0.145557
H36   H     H_    0.362109 0.154480 0.044420 0.136721
H37   H     H_    0.907833 0.303525 0.108376 0.145557
H38   H     H_    0.137889 0.654482 0.955578 0.136721
H39   H     H_    0.092167 0.303525 0.891623 0.145556
H40   H     H_    0.862111 0.654482 0.044422 0.136721
H41   H     H_    0.282768 0.968916 0.800326 0.151724
H42   H     H_    0.717232 0.968916 0.199674 0.151723
H43   H     H_    0.782768 0.468916 0.800326 0.151723
H44   H     H_    0.217232 0.468917 0.199674 0.151723
H45   H     H_    0.451016 0.012806 0.189404 0.178834
H46   H     H_    0.548984 0.012805 0.810596 0.178834
H47   H     H_    0.951016 0.512806 0.189404 0.178834
H48   H     H_    0.048984 0.512806 0.810596 0.178834
H49   H     H_    0.689232 0.991602 0.489358 0.121784
H50   H     H_    0.310767 0.991602 0.510642 0.121784
H51   H     H_    0.189232 0.491602 0.489358 0.121784
H52   H     H_    0.810768 0.491602 0.510642 0.121784
H53   H     H_    0.258446 0.981741 0.620742 0.136622
H54   H     H_    0.741554 0.981741 0.379258 0.136622
H55   H     H_    0.758446 0.481741 0.620742 0.136621
H56   H     H_    0.241554 0.481741 0.379258 0.136621
N1    N     N_R   0.433280 0.000000 0.657760 -0.188524
N2    N     N_R   0.566720 0.000000 0.342240 -0.188524
N3    N     N_R   0.933280 0.500000 0.657760 -0.188524
N4    N     N_R   0.066720 0.500000 0.342240 -0.188524
O1    O     O_R   0.600040 0.935040 0.546740 -0.590571
O2    O     O_R   0.399960 0.064960 0.453260 -0.586399
O3    O     O_R   0.399960 0.935040 0.453260 -0.590571
O4    O     O_R   0.600040 0.064960 0.546740 -0.586399
O5    O     O_R   0.100040 0.435040 0.546740 -0.590571
O6    O     O_R   0.899960 0.564960 0.453260 -0.586399
O7    O     O_R   0.899960 0.435040 0.453260 -0.590571
O8    O     O_R   0.100040 0.564960 0.546740 -0.586399
O9    O     O_R   0.555010 0.935070 0.653220 -0.579748
O10   O     O_R   0.444990 0.064930 0.346780 -0.592995
O11   O     O_R   0.444990 0.935070 0.346780 -0.579748
O12   O     O_R   0.555010 0.064930 0.653220 -0.592995
O13   O     O_R   0.055010 0.435070 0.653220 -0.579748
O14   O     O_R   0.944990 0.564930 0.346780 -0.592995
O15   O     O_R   0.944990 0.435070 0.346780 -0.579748
O16   O     O_R   0.055010 0.564930 0.653220 -0.592995
N5    N     N_2   0.363114 0.957358 0.020730 -0.458931
H57   H     H_    0.348682 0.910150 0.007878 0.260569
C113  C     C_3   0.298013 0.995814 0.000895 -0.716030
H58   H     H_    0.285612 0.981392 0.061268 0.236461
H59   H     H_    0.241428 0.989592 0.912034 0.227248
H60   H     H_    0.315705 0.046228 0.016264 0.232435
N6    N     N_2   0.636887 0.957358 0.979270 -0.458931
H61   H     H_    0.651321 0.910151 0.992125 0.260568
C114  C     C_3   0.701986 0.995815 0.999104 -0.716029
H62   H     H_    0.714388 0.981393 0.938732 0.236460
H63   H     H_    0.758571 0.989595 0.087966 0.227248
H64   H     H_    0.684292 0.046229 0.983733 0.232434
N7    N     N_2   0.863113 0.457358 0.020730 -0.458931
H65   H     H_    0.848679 0.410151 0.007874 0.260568
C115  C     C_3   0.798014 0.495816 0.000896 -0.716026
H66   H     H_    0.785611 0.481392 0.061267 0.236459
H67   H     H_    0.741429 0.489596 0.912034 0.227247
H68   H     H_    0.815709 0.546229 0.016270 0.232433
N8    N     N_2   0.136887 0.457358 0.979270 -0.458931
H69   H     H_    0.151320 0.410151 0.992124 0.260568
C116  C     C_3   0.201986 0.495815 0.999104 -0.716028
H70   H     H_    0.214388 0.481393 0.938732 0.236460
H71   H     H_    0.258571 0.489595 0.087966 0.227248
H72   H     H_    0.184292 0.546229 0.983733 0.232434

loop_
_geom_bond_atom_site_label_1
_geom_bond_atom_site_label_2
_ccdc_geom_bond_type
C88   C104  A    
Cu1   O1    S    
Cu4   O13   S    
C88   C96   A    
C10   C94   A    
C14   H6    S    
C57   H29   S    
C43   N7    S    
C9    H1    S    
C114  H62   S    
C5    C56   S    
C53   C77   A    
C6    C55   S    
C53   C69   A    
C76   C84   A    
C79   C87   A    
Cu3   O8    S    
C114  H63   S    
C13   H5    S    
C6    O14   A    
C47   H43   S    
C116  H70   S    
C99   C108  A    
C48   H44   S    
C30   C38   A    
Cu3   N4    S    
C98   C105  A    
C57   C89   A    
C6    O6    A    
C106  H34   S    
C32   C36   A    
C42   N6    S    
C78   H13   S    
C51   C75   A    
C50   C74   A    
C27   H48   S    
C61   C93   A    
C74   H9    S    
C23   N3    A    
C26   N2    A    
C9    C105  A    
C73   H10   S    
Cu1   O11   S    
Cu4   O7    S    
C63   C95   A    
C69   H22   S    
Cu2   O12   S    
C62   C70   A    
C75   H12   S    
C42   C46   A    
C5    O5    A    
C37   C42   A    
C3    O3    A    
C14   C90   A    
C13   C109  A    
C86   C94   A    
C77   C85   A    
C59   C67   A    
C12   H4    S    
C22   H49   S    
C85   C93   A    
C58   C66   A    
Cu2   N1    S    
C20   C24   A    
C29   C33   A    
C56   C72   A    
Cu4   O6    S    
C115  H68   S    
C41   N5    S    
C34   C46   A    
C109  H37   S    
C97   C102  A    
C52   C68   A    
C86   C102  A    
C19   H55   S    
C113  H60   S    
C81   C89   A    
C78   C86   A    
C116  H71   S    
C99   C104  A    
Cu4   O16   S    
C35   C47   A    
N6    H61   S    
Cu2   O3    S    
C80   H15   S    
C83   C99   A    
Cu3   O14   S    
C7    O15   A    
C15   H7    S    
C17   C33   A    
C4    O4    A    
C73   C81   A    
C22   N2    A    
C3    C50   S    
C107  H35   S    
N7    C115  S    
C25   C29   A    
C30   C34   A    
C27   C31   A    
C115  H66   S    
C84   C100  A    
C15   C111  A    
C28   C32   A    
C24   H51   S    
C45   H41   S    
C64   C96   A    
C38   C41   A    
C11   H3    S    
C27   N3    A    
C39   C40   A    
C12   C108  A    
C108  H36   S    
C28   N4    A    
C51   C67   A    
C64   H28   S    
Cu2   O2    S    
C101  C110  A    
N7    H65   S    
C100  C103  A    
C17   C21   A    
C21   H50   S    
C23   H52   S    
C87   C95   A    
C103  C112  A    
C19   C23   A    
C2    O10   A    
C37   C38   A    
C110  H38   S    
C33   C45   A    
C10   H2    S    
C66   H17   S    
C55   C79   A    
C62   H26   S    
C79   H16   S    
N8    H69   S    
C54   C70   A    
C25   H46   S    
C40   C43   A    
N5    C113  S    
C59   C91   A    
C82   C90   A    
C50   C66   A    
C60   C68   A    
C71   H24   S    
C49   C65   A    
C58   C90   A    
C87   C103  A    
C97   C106  A    
C61   H25   S    
C112  H40   S    
N8    C116  S    
C63   C71   A    
C16   C92   A    
C21   N1    A    
C62   C94   A    
C11   C107  A    
C114  H64   S    
C49   C73   A    
C10   C106  A    
C83   C91   A    
C24   N4    A    
C9    C93   A    
C75   C83   A    
C32   C40   A    
C85   C101  A    
C16   C112  A    
C115  H67   S    
Cu1   Cu2   S    
C74   C82   A    
C116  H72   S    
C11   C95   A    
C105  H33   S    
C14   C110  A    
C100  C107  A    
C63   H27   S    
C5    O13   A    
Cu4   N3    S    
C13   C89   A    
C18   C22   A    
C68   H19   S    
C65   H18   S    
C57   C65   A    
C43   C47   A    
C52   C76   A    
C3    O11   A    
C8    C53   S    
C104  C111  A    
C58   H30   S    
C26   C30   A    
C39   C44   A    
C60   H32   S    
C1    O9    A    
C98   C101  A    
C84   C92   A    
C26   H45   S    
C1    O1    A    
Cu2   O9    S    
C56   C80   A    
C7    O7    A    
C4    C49   S    
C44   N8    S    
C61   C69   A    
C4    O12   A    
C67   H20   S    
C16   H8    S    
Cu3   O15   S    
C80   C88   A    
C44   C48   A    
C19   C35   A    
C8    O8    A    
C81   C97   A    
C18   C34   A    
Cu1   O10   S    
C31   C35   A    
C31   C39   A    
C36   C48   A    
C17   H53   S    
C77   H14   S    
C64   C72   A    
C20   H56   S    
C8    O16   A    
C1    C52   S    
C82   C98   A    
C2    C51   S    
C15   C91   A    
C113  H58   S    
C20   C36   A    
C25   N1    A    
Cu1   O4    S    
C72   H23   S    
C70   H21   S    
N5    H57   S    
Cu3   O5    S    
C18   H54   S    
C29   C37   A    
N6    C114  S    
C76   H11   S    
C41   C45   A    
C12   C96   A    
C102  C109  A    
C2    O2    A    
C7    C54   S    
C54   C78   A    
C60   C92   A    
C111  H39   S    
C55   C71   A    
Cu3   Cu4   S    
C28   H47   S    
C59   H31   S    
Cu1   N2    S    
C113  H59   S    
C46   H42   S    
