data_mof_unit_40954.cif
_audit_creation_date              2012-12-11T14:34:11-0500
_audit_creation_method            fapswitch 2.2
_symmetry_space_group_name_H-M    P1
_symmetry_Int_Tables_number       1
_space_group_crystal_system       triclinic
_cell_length_a                    13.902564
_cell_length_b                    14.029057
_cell_length_c                    27.35419
_cell_angle_alpha                 89.684423
_cell_angle_beta                  90.139582
_cell_angle_gamma                 119.445085
_cell_volume                      4645.92985016

loop_
_atom_site_label
_atom_site_type_symbol
_atom_type_description
_atom_site_fract_x
_atom_site_fract_y
_atom_site_fract_z
_atom_type_partial_charge
C1    C     C_R   0.235713 0.786494 0.569295 0.534269
C2    C     C_1   0.711975 0.849847 0.859780 -0.013338
C3    C     C_3   0.990660 0.694420 0.399561 -0.252323
C4    C     C_3   0.917783 0.748461 0.396153 -0.313691
C5    C     C_3   0.825924 0.701300 0.434411 -0.449342
C6    C     C_3   0.310699 0.293066 0.409218 -0.251214
C7    C     C_3   0.265826 0.168746 0.413604 -0.315635
C8    C     C_3   0.336225 0.142739 0.448196 -0.449935
C9    C     C_3   0.594352 0.970085 0.723297 -0.291821
C10   C     C_3   0.570487 0.986006 0.669957 -0.295263
C11   C     C_3   0.576010 0.096694 0.662676 -0.448232
C12   C     C_3   0.002979 0.638791 0.722690 -0.283160
C13   C     C_1   0.124650 0.896566 0.852598 -0.001197
C14   C     C_3   0.000013 0.584915 0.673537 -0.300779
C15   C     C_3   0.890375 0.479352 0.666590 -0.452823
C16   C     C_3   0.359868 0.374326 0.725726 -0.285763
C17   C     C_3   0.413860 0.421186 0.675937 -0.298762
C18   C     C_3   0.523470 0.421537 0.670845 -0.451787
C19   C     C_3   0.574964 0.614835 0.823325 -0.166036
C20   C     C_3   0.597089 0.518420 0.833086 -0.301464
C21   C     C_3   0.515346 0.436144 0.869646 -0.430220
C22   C     C_3   0.357988 0.953053 0.826038 -0.173391
C23   C     C_3   0.464620 0.062185 0.836339 -0.299631
C24   C     C_1   0.095537 0.231538 0.852730 -0.008260
C25   C     C_3   0.530902 0.050405 0.878328 -0.441802
C26   C     C_3   0.022137 0.397616 0.822452 -0.169037
C27   C     C_3   0.907516 0.389655 0.827155 -0.300877
C28   C     C_3   0.907420 0.469629 0.864668 -0.426751
C29   C     C_1   0.626173 0.801769 0.659296 -0.084333
C30   C     C_1   0.192267 0.820480 0.658876 -0.082458
C31   C     C_1   0.176255 0.373150 0.658880 -0.082768
C32   C     C_1   0.599121 0.789559 0.616933 -0.032640
C33   C     C_1   0.207698 0.805370 0.617068 -0.032403
C34   C     C_1   0.193398 0.402593 0.617000 -0.030292
C35   C     C_R   0.067809 0.153702 0.096616 0.575999
C36   C     C_R   0.213032 0.448518 0.569197 0.537407
C37   C     C_R   0.777170 0.884803 0.088093 0.580551
C38   C     C_R   0.115167 0.892490 0.088035 0.595459
C39   C     C_R   0.067816 0.159507 0.943507 0.523003
C40   C     C_R   0.780533 0.886944 0.950669 0.548987
C41   C     C_R   0.090696 0.931528 0.943742 0.520996
C42   C     C_R   0.652723 0.910616 0.365305 -0.004306
C43   C     C_R   0.090244 0.750613 0.365509 -0.004552
C44   C     C_R   0.241247 0.318962 0.373874 -0.006692
C45   C     C_R   0.661973 0.920741 0.313525 -0.011083
C46   C     C_R   0.077702 0.747815 0.313834 -0.012409
C47   C     C_R   0.552079 0.764024 0.569050 0.535104
C48   C     C_R   0.229574 0.286268 0.324166 -0.015963
C49   C     C_R   0.679943 0.937970 0.209378 0.028327
C50   C     C_R   0.054910 0.745404 0.209997 0.031030
C51   C     C_R   0.205989 0.224820 0.223550 0.031189
C52   C     C_R   0.232779 0.788898 0.431830 0.534804
C53   C     C_R   0.210393 0.441969 0.432730 0.542496
C54   C     C_R   0.556916 0.767678 0.432084 0.536963
C55   C     C_R   0.670819 0.018260 0.237759 0.226398
C56   C     C_R   0.968454 0.666434 0.240240 0.255901
C57   C     C_R   0.298868 0.238568 0.251793 0.257478
C58   C     C_3   0.660869 0.711088 0.789658 0.244397
C59   C     C_R   0.665626 0.010218 0.288722 -0.132665
C60   C     C_R   0.980043 0.670889 0.290992 -0.119576
C61   C     C_R   0.306994 0.265426 0.301179 -0.120450
C62   C     C_R   0.701593 0.946847 0.158001 0.220433
C63   C     C_R   0.045081 0.757953 0.158742 0.236137
C64   C     C_R   0.189371 0.195872 0.172989 0.235811
C65   C     C_R   0.717139 0.865586 0.134511 -0.008136
C66   C     C_R   0.132633 0.847445 0.133619 -0.008864
C67   C     C_R   0.092870 0.183186 0.148623 -0.016693
C68   C     C_R   0.630076 0.727523 0.358825 -0.146206
C69   C     C_3   0.274872 0.954669 0.786913 0.241083
C70   C     C_R   0.282823 0.891473 0.355362 -0.141639
C71   C     C_R   0.089786 0.357516 0.362490 -0.144058
C72   C     C_R   0.649073 0.740829 0.309163 0.007879
C73   C     C_R   0.269325 0.893969 0.305601 0.004438
C74   C     C_R   0.067039 0.308916 0.317161 0.010390
C75   C     C_R   0.660461 0.835591 0.285682 0.042139
C76   C     C_R   0.167563 0.819950 0.284120 0.038814
C77   C     C_R   0.140764 0.278984 0.296299 0.041284
C78   C     C_R   0.647900 0.655844 0.282349 -0.113140
C79   C     C_R   0.359576 0.965178 0.276906 -0.094347
C80   C     C_3   0.030723 0.317335 0.784700 0.241587
C81   C     C_R   0.975459 0.297463 0.291178 -0.125285
C82   C     C_R   0.658030 0.664121 0.232081 -0.069577
C83   C     C_R   0.348833 0.965331 0.226708 -0.040389
C84   C     C_R   0.957192 0.257387 0.244091 -0.086821
C85   C     C_R   0.671030 0.758020 0.208177 -0.001918
C86   C     C_R   0.247576 0.895578 0.204788 0.002679
C87   C     C_R   0.032123 0.231922 0.221924 -0.000558
C88   C     C_3   0.572904 0.853208 0.737984 -0.084838
C89   C     C_3   0.119947 0.727497 0.740332 -0.085162
C90   C     C_3   0.265754 0.398304 0.741270 -0.089391
C91   C     C_3   0.620747 0.700039 0.734929 -0.166282
C92   C     C_R   0.670738 0.844426 0.234374 -0.013461
C93   C     C_R   0.156254 0.819834 0.232928 -0.019322
C94   C     C_R   0.126055 0.243965 0.247311 -0.013179
C95   C     C_R   0.691022 0.768275 0.158656 -0.141490
C96   C     C_R   0.235344 0.907016 0.155475 -0.127218
C97   C     C_R   0.014799 0.198021 0.174043 -0.157859
C98   C     C_R   0.621207 0.806629 0.386386 -0.003771
C99   C     C_R   0.197815 0.813928 0.384950 0.002919
C100  C     C_R   0.179713 0.368749 0.390215 0.003079
C101  C     C_3   0.770878 0.896032 0.722652 -0.226225
C102  C     C_3   0.289481 0.915290 0.734922 -0.168824
C103  C     C_3   0.103451 0.893592 0.713062 -0.226532
C104  C     C_3   0.105651 0.214537 0.713803 -0.223743
C105  C     C_3   0.787653 0.916140 0.778366 -0.238730
C106  C     C_3   0.075292 0.901390 0.766778 -0.247340
C107  C     C_3   0.095288 0.179522 0.767806 -0.249673
C108  C     C_1   0.738461 0.869549 0.901977 0.013527
C109  C     C_1   0.105925 0.910070 0.894153 0.018429
C110  C     C_1   0.086737 0.198111 0.894048 0.010577
C111  C     C_3   0.648030 0.813769 0.712197 0.029805
C112  C     C_3   0.175310 0.837681 0.710372 0.028944
C113  C     C_3   0.072980 0.372358 0.733001 -0.165674
C114  C     C_3   0.156669 0.340210 0.710359 0.029329
C115  C     C_3   0.588278 0.850168 0.794626 0.068403
C116  C     C_3   0.112733 0.754612 0.795339 0.070777
C117  C     C_3   0.235389 0.364211 0.796152 0.073057
C118  C     C_3   0.685844 0.828807 0.807348 0.092661
C119  C     C_3   0.149302 0.878542 0.802144 0.095547
C120  C     C_3   0.111733 0.273917 0.802131 0.095307
C121  C     C_3   0.681647 0.009572 0.397612 -0.250171
C122  C     C_3   0.804536 0.095473 0.393740 -0.312965
C123  C     C_3   0.833628 0.189926 0.428995 -0.455188
Cl1   Cl    Cl    0.461223 0.756271 0.823909 -0.603966
Cl2   Cl    Cl    0.658790 0.129330 0.214271 -0.512037
Cl3   Cl    Cl    0.843277 0.555230 0.219744 -0.503597
Cl4   Cl    Cl    0.414090 0.230108 0.230400 -0.497338
Cl5   Cl    Cl    0.184610 0.706765 0.834062 -0.608564
Cl6   Cl    Cl    0.273755 0.480809 0.834391 -0.595599
Cl7   Cl    Cl    0.787397 0.704484 0.789180 -0.802134
Cl8   Cl    Cl    0.303363 0.094217 0.779638 -0.803316
Cl9   Cl    Cl    0.893918 0.203139 0.775037 -0.806563
Cl10  Cl    Cl    0.711957 0.056375 0.121661 -0.494401
Cl11  Cl    Cl    0.926230 0.667292 0.124923 -0.465678
Cl12  Cl    Cl    0.287439 0.177798 0.139226 -0.478570
Cr1   Cr    Cr6+3 0.164410 0.584450 0.499910 1.002639
Cr2   Cr    Cr6+3 0.415550 0.579960 0.499910 1.001494
Cr3   Cr    Cr6+3 0.420040 0.835590 0.499910 0.995339
Cr4   Cr    Cr6+3 0.155170 0.075460 0.019960 1.112404
Cr5   Cr    Cr6+3 0.924540 0.079710 0.019960 1.095684
Cr6   Cr    Cr6+3 0.920290 0.844830 0.019960 1.103900
H1    H     H_    0.609586 0.931014 0.810314 0.129978
H2    H     H_    0.696636 0.703407 0.139681 0.188720
H3    H     H_    0.845455 0.306822 0.840213 0.223487
H4    H     H_    0.044306 0.382897 0.859615 0.203693
H5    H     H_    0.082689 0.483377 0.813019 0.223396
H6    H     H_    0.303935 0.970228 0.134890 0.196728
H7    H     H_    0.940770 0.186883 0.155678 0.196297
H8    H     H_    0.656896 0.597407 0.211840 0.203416
H9    H     H_    0.418880 0.022374 0.205002 0.225575
H10   H     H_    0.887003 0.250900 0.224156 0.208361
H11   H     H_    0.637803 0.582293 0.300219 0.135864
H12   H     H_    0.438590 0.020847 0.293298 0.144379
H13   H     H_    0.918612 0.320645 0.307092 0.132530
H14   H     H_    0.612915 0.650093 0.375142 0.135868
H15   H     H_    0.025520 0.708026 0.807965 0.155779
H16   H     H_    0.364272 0.945056 0.370229 0.136093
H17   H     H_    0.038599 0.390892 0.375139 0.136780
H18   H     H_    0.823707 0.862544 0.709177 0.154140
H19   H     H_    0.149109 0.977275 0.696911 0.159054
H20   H     H_    0.022447 0.173933 0.696493 0.162038
H21   H     H_    0.798204 0.974840 0.703040 0.137278
H22   H     H_    0.026187 0.848150 0.691470 0.115919
H23   H     H_    0.156142 0.186011 0.693653 0.121400
H24   H     H_    0.798016 0.997053 0.786941 0.180478
H25   H     H_    0.988310 0.841454 0.773136 0.178369
H26   H     H_    0.285151 0.327603 0.810020 0.144184
H27   H     H_    0.159939 0.158561 0.776018 0.173078
H28   H     H_    0.865670 0.919235 0.790065 0.158335
H29   H     H_    0.081316 0.981076 0.773794 0.146022
H30   H     H_    0.015015 0.104319 0.774181 0.154370
H31   H     H_    0.530208 0.644352 0.732198 0.098867
H32   H     H_    0.337334 0.871134 0.737162 0.104479
H33   H     H_    0.114086 0.463062 0.735430 0.100672
H34   H     H_    0.659418 0.662250 0.712378 0.154430
H35   H     H_    0.338117 0.986832 0.710658 0.156651
H36   H     H_    0.002323 0.348581 0.707589 0.158657
H37   H     H_    0.485336 0.794740 0.728501 0.173025
H38   H     H_    0.793075 0.237540 0.417283 0.151573
H39   H     H_    0.807021 0.158807 0.466783 0.149617
H40   H     H_    0.924208 0.244766 0.429637 0.158894
H41   H     H_    0.855397 0.056663 0.403035 0.165244
H42   H     H_    0.825955 0.128658 0.356047 0.175390
H43   H     H_    0.628240 0.045615 0.388709 0.135499
H44   H     H_    0.668596 0.986832 0.436719 0.170432
H45   H     H_    0.767943 0.613590 0.426818 0.152651
H46   H     H_    0.860993 0.709404 0.471675 0.150041
H47   H     H_    0.779741 0.747036 0.433476 0.156151
H48   H     H_    0.174597 0.690486 0.737610 0.181159
H49   H     H_    0.969469 0.837950 0.402480 0.163990
H50   H     H_    0.879749 0.736579 0.359368 0.173931
H51   H     H_    0.942352 0.605442 0.391788 0.136555
H52   H     H_    0.016439 0.701675 0.438262 0.166079
H53   H     H_    0.422098 0.179326 0.434148 0.152226
H54   H     H_    0.337370 0.175124 0.485285 0.149728
H55   H     H_    0.301023 0.052653 0.450888 0.165838
H56   H     H_    0.179778 0.128998 0.427797 0.160680
H57   H     H_    0.264009 0.132031 0.377565 0.174953
H58   H     H_    0.398561 0.335990 0.397560 0.138091
H59   H     H_    0.299789 0.488393 0.737836 0.180314
H60   H     H_    0.308617 0.320885 0.446729 0.168346
H61   H     H_    0.517602 0.105274 0.687350 0.161614
H62   H     H_    0.660926 0.164193 0.670228 0.166451
H63   H     H_    0.554423 0.104326 0.624288 0.149470
H64   H     H_    0.634229 0.986318 0.645679 0.180701
H65   H     H_    0.487376 0.919453 0.659080 0.175674
H66   H     H_    0.538963 0.987112 0.746197 0.144525
H67   H     H_    0.679961 0.033193 0.732548 0.201362
H68   H     H_    0.877359 0.419610 0.696121 0.160367
H69   H     H_    0.820767 0.497065 0.666849 0.158335
H70   H     H_    0.659802 0.073528 0.308634 0.143627
H71   H     H_    0.890805 0.442033 0.630954 0.152126
H72   H     H_    0.007501 0.640566 0.643106 0.180773
H73   H     H_    0.068710 0.566043 0.671342 0.167213
H74   H     H_    0.970040 0.572749 0.750705 0.158977
H75   H     H_    0.945273 0.672070 0.721389 0.191337
H76   H     H_    0.581665 0.470672 0.700246 0.155230
H77   H     H_    0.509525 0.336535 0.672881 0.164490
H78   H     H_    0.561562 0.457618 0.634973 0.149949
H79   H     H_    0.359517 0.369114 0.646197 0.179621
H80   H     H_    0.428453 0.505975 0.671198 0.168031
H81   H     H_    0.911940 0.610091 0.312336 0.144713
H82   H     H_    0.425771 0.411582 0.753791 0.155305
H83   H     H_    0.330427 0.285198 0.726463 0.204201
H84   H     H_    0.525396 0.475193 0.905917 0.189913
H85   H     H_    0.429729 0.404986 0.857237 0.198273
H86   H     H_    0.530734 0.365949 0.873704 0.152031
H87   H     H_    0.593452 0.476501 0.798246 0.177449
H88   H     H_    0.679688 0.548027 0.849834 0.229713
H89   H     H_    0.570538 0.646869 0.859716 0.208474
H90   H     H_    0.491335 0.579924 0.807391 0.208913
H91   H     H_    0.487197 0.040722 0.913513 0.186113
H92   H     H_    0.378796 0.275328 0.320926 0.149832
H93   H     H_    0.541923 0.978143 0.873468 0.195440
H94   H     H_    0.613432 0.124914 0.880389 0.155009
H95   H     H_    0.516498 0.091400 0.802979 0.178921
H96   H     H_    0.444672 0.126175 0.847955 0.227762
H97   H     H_    0.316540 0.924223 0.861908 0.207616
H98   H     H_    0.383166 0.893176 0.815007 0.218996
H99   H     H_    0.931012 0.453105 0.901261 0.194164
H100  H     H_    0.965618 0.554740 0.853919 0.208307
H101  H     H_    0.823413 0.460150 0.867099 0.150420
H102  H     H_    0.880548 0.404829 0.791130 0.179733
O1    O     O_R   0.137150 0.468200 0.553200 -0.515042
O2    O     O_R   0.140110 0.470540 0.446010 -0.526717
O3    O     O_R   0.529460 0.669570 0.446010 -0.524065
O4    O     O_R   0.330430 0.859890 0.446010 -0.529604
O5    O     O_R   0.176710 0.690910 0.450560 -0.501638
O6    O     O_R   0.309090 0.485800 0.450560 -0.503883
O7    O     O_R   0.514200 0.823290 0.450560 -0.504844
O8    O     O_3   0.333333 0.666667 0.499990 -0.254499
O9    O     O_R   0.176750 0.985260 0.074180 -0.479919
O10   O     O_R   0.014740 0.191490 0.074180 -0.464135
O11   O     O_R   0.808510 0.823250 0.074180 -0.489404
O12   O     O_R   0.531800 0.668950 0.553200 -0.514801
O13   O     O_R   0.146100 0.172630 0.068980 -0.411155
O14   O     O_R   0.827370 0.973470 0.068980 -0.471086
O15   O     O_R   0.026530 0.853900 0.068980 -0.443159
O16   O     O_3   0.000000 0.000000 0.020040 -0.335336
O17   O     O_R   0.148270 0.170520 0.969620 -0.480313
O18   O     O_R   0.829480 0.977750 0.969620 -0.521567
O19   O     O_R   0.022250 0.851730 0.969620 -0.466377
O20   O     O_R   0.331050 0.862850 0.553200 -0.515029
O21   O     O_R   0.179100 0.982980 0.967000 -0.494790
O22   O     O_R   0.017020 0.196120 0.967000 -0.466567
O23   O     O_R   0.803880 0.820900 0.967000 -0.503214
O24   O     O_R   0.173970 0.688730 0.549930 -0.508318
O25   O     O_R   0.311270 0.485240 0.549930 -0.509797
O26   O     O_R   0.514760 0.826030 0.549930 -0.507391

loop_
_geom_bond_atom_site_label_1
_geom_bond_atom_site_label_2
_ccdc_geom_bond_type
C113  H36   S    
C80   C120  S    
C25   H91   S    
C16   C90   S    
C80   Cl9   S    
Cr5   O16   S    
C55   C59   A    
C106  C119  S    
Cr6   O16   S    
C61   H92   S    
Cr6   O19   S    
C102  C112  S    
Cr4   O9    S    
C84   C87   A    
C68   H14   S    
C46   C76   A    
C2    C118  S    
C78   H11   S    
C7    C8    S    
C107  H30   S    
C69   C102  S    
C102  H32   S    
C95   H2    S    
C21   H85   S    
C89   C112  S    
C14   H73   S    
C26   C27   S    
C3    H52   S    
C105  H28   S    
C91   H31   S    
Cr1   O24   S    
Cr6   O11   S    
C106  H25   S    
C62   Cl10  S    
C101  H21   S    
C10   H64   S    
C43   C99   A    
C113  C114  S    
C15   H69   S    
C42   C98   A    
C9    C88   S    
C6    H58   S    
C23   H96   S    
Cr2   O25   S    
C103  H19   S    
C90   H59   S    
C102  H35   S    
C87   C94   A    
C52   O5    A    
C77   C94   A    
C58   C118  S    
Cr1   O5    S    
C8    H54   S    
C91   C111  S    
C26   H5    S    
C78   C82   A    
C13   C109  T    
Cr3   O4    S    
C122  C123  S    
C13   C119  S    
C1    O20   A    
C88   C111  S    
C39   C110  S    
C38   O9    A    
C38   C66   S    
C16   C17   S    
C74   C77   A    
Cr4   O16   S    
C72   C78   A    
Cr6   O15   S    
Cr1   O8    S    
C8    H53   S    
C51   C57   A    
C56   Cl3   S    
C117  Cl6   S    
C9    C10   S    
C22   C69   S    
C30   C33   T    
C68   C72   A    
C40   C108  S    
C83   H9    S    
C90   C114  S    
C64   Cl12  S    
C53   C100  S    
C41   C109  S    
Cr4   O21   S    
C12   H74   S    
C50   C63   A    
C36   O25   A    
C4    H50   S    
C28   H101  S    
C5    H45   S    
C72   C75   A    
C18   H78   S    
C38   O15   A    
Cr2   O8    S    
C85   C92   A    
C59   H70   S    
C57   Cl4   S    
C17   C18   S    
C68   C98   A    
C85   C95   A    
C22   C23   S    
C19   C58   S    
C101  C105  S    
C21   H86   S    
C54   O3    A    
C39   O17   A    
C24   C120  S    
C5    H46   S    
C116  H15   S    
Cr5   O14   S    
Cr1   O1    S    
C65   C95   A    
C1    C33   S    
C36   O1    A    
C90   C117  S    
C4    H49   S    
C12   C89   S    
C32   C47   S    
C24   C110  T    
C6    H60   S    
C123  H38   S    
Cr3   O8    S    
C9    H66   S    
C117  C120  S    
C104  H20   S    
C123  H39   S    
C53   O6    A    
C80   C113  S    
C49   C55   A    
C69   C119  S    
C26   C80   S    
C81   H13   S    
C56   C60   A    
C14   H72   S    
C37   C65   S    
C103  C112  S    
C42   C45   A    
C71   H17   S    
C48   C77   A    
C7    H56   S    
C26   H4    S    
C27   H102  S    
C63   Cl11  S    
C47   O12   A    
C15   H71   S    
C86   C93   A    
C76   C93   A    
C79   H12   S    
C40   O18   A    
C47   O26   A    
C1    O24   A    
C35   C67   S    
C69   Cl8   S    
C115  C118  S    
C3    C43   S    
Cr4   O17   S    
C70   C73   A    
C27   H3    S    
C54   O7    A    
C31   C34   T    
C91   H34   S    
C11   H62   S    
Cr3   O20   S    
C57   C61   A    
C101  H18   S    
C121  C122  S    
Cr2   O12   S    
C17   H79   S    
C86   C96   A    
C75   C92   A    
C121  H43   S    
C104  C114  S    
C23   H95   S    
C122  H42   S    
C12   C14   S    
C25   H93   S    
Cr5   O18   S    
C116  Cl5   S    
C35   O13   A    
C97   H7    S    
C58   Cl7   S    
C105  C118  S    
C16   H83   S    
C28   H100  S    
C12   H75   S    
C49   C92   A    
C3    C4    S    
C18   H77   S    
C52   O4    A    
C107  C120  S    
C115  Cl1   S    
C81   C84   A    
C70   C99   A    
C66   C96   A    
C22   H98   S    
C58   C91   S    
C96   H6    S    
C115  H1    S    
C107  H27   S    
C45   C59   A    
C20   H88   S    
C31   C114  S    
C62   C65   A    
C46   C60   A    
Cr5   O22   S    
C29   C111  S    
C41   O21   A    
C64   C67   A    
C51   C64   A    
C37   O14   A    
C4    C5    S    
Cr3   O7    S    
C9    H67   S    
C60   H81   S    
C55   Cl2   S    
C104  H23   S    
C71   C74   A    
Cr2   O6    S    
C39   O22   A    
C50   C93   A    
C88   H37   S    
C6    C7    S    
C101  C111  S    
C73   C79   A    
C21   H84   S    
C71   C100  A    
C19   C20   S    
C52   C99   S    
C103  H22   S    
C20   H87   S    
C116  C119  S    
C45   C75   A    
C70   H16   S    
Cr6   O23   S    
C88   C115  S    
Cr4   O13   S    
C10   H65   S    
C29   C32   T    
C123  H40   S    
C50   C56   A    
C28   H99   S    
C79   C83   A    
Cr2   O3    S    
C44   C100  A    
C48   C61   A    
C117  H26   S    
C2    C108  T    
C73   C76   A    
C105  H24   S    
Cr1   O2    S    
C8    H55   S    
C103  C106  S    
C34   C36   S    
C11   H63   S    
C23   C25   S    
C43   C46   A    
C53   O2    A    
C40   O23   A    
C89   C116  S    
C82   H8    S    
C17   H80   S    
C10   C11   S    
C67   C97   A    
C51   C94   A    
C121  H44   S    
C84   H10   S    
C44   C48   A    
C122  H41   S    
C83   C86   A    
C20   C21   S    
C25   H94   S    
C15   H68   S    
C37   O11   A    
C106  H29   S    
C30   C112  S    
C27   C28   S    
C35   O10   A    
C89   H48   S    
C14   C15   S    
C54   C98   S    
C16   H82   S    
C6    C44   S    
Cr5   O10   S    
C74   C81   A    
C5    H47   S    
C87   C97   A    
C7    H57   S    
C3    H51   S    
C18   H76   S    
C19   H90   S    
C19   H89   S    
C11   H61   S    
C104  C107  S    
C63   C66   A    
C82   C85   A    
C42   C121  S    
C49   C62   A    
C113  H33   S    
C22   H97   S    
Cr3   O26   S    
C41   O19   A    
