data_mof_unit_28861.cif
_audit_creation_date              2012-12-10T18:07:38-0500
_audit_creation_method            fapswitch 2.2
_symmetry_space_group_name_H-M    P1
_symmetry_Int_Tables_number       1
_space_group_crystal_system       triclinic
_cell_length_a                    11.540849
_cell_length_b                    12.631042
_cell_length_c                    13.071476
_cell_angle_alpha                 81.836832
_cell_angle_beta                  90.582371
_cell_angle_gamma                 102.809526
_cell_volume                      1838.77044569

loop_
_atom_site_label
_atom_site_type_symbol
_atom_type_description
_atom_site_fract_x
_atom_site_fract_y
_atom_site_fract_z
_atom_type_partial_charge
C1    C     C_R   0.476281 0.438209 0.691245 0.874587
C2    C     C_R   0.390703 0.651527 0.891356 0.461401
C3    C     C_R   0.387622 0.569480 0.829383 -0.263739
C4    C     C_R   0.717850 0.501165 0.500257 0.895166
C5    C     C_R   0.497234 0.518332 0.133253 -0.273364
C6    C     C_R   0.490512 0.703664 0.155327 0.453878
C7    C     C_R   0.443024 0.397523 0.800846 -0.219170
C8    C     C_R   0.332794 0.088713 0.347865 -0.372707
C9    C     C_R   0.639453 0.798702 0.630663 0.664655
C10   C     C_R   0.667485 0.904679 0.658493 -0.361921
C11   C     C_R   0.611699 0.984366 0.610771 -0.215344
C12   C     C_R   0.504953 0.598383 0.197100 -0.177983
C13   C     C_R   0.528676 0.961072 0.532674 0.021678
C14   C     C_R   0.502881 0.853773 0.506458 0.053031
C15   C     C_R   0.472067 0.040417 0.478811 -0.071860
C16   C     C_R   0.512665 0.561686 0.307930 0.875636
C17   C     C_R   0.387554 0.010071 0.402225 -0.006312
C18   C     C_R   0.359300 0.902101 0.380130 0.466092
C19   C     C_R   0.420903 0.826841 0.429840 -0.243810
C20   C     C_R   0.497120 0.149947 0.497222 -0.111928
C21   C     C_R   0.358221 0.195570 0.372052 0.609013
C22   C     C_R   0.282189 0.498956 0.499620 0.861706
C23   C     C_R   0.437905 0.286927 0.842773 0.492593
C24   C     C_1   0.839073 0.503232 0.500340 -0.181313
C25   C     C_1   0.941133 0.502120 0.499871 -0.011184
C26   C     C_1   0.059255 0.499127 0.499214 -0.024092
C27   C     C_1   0.161153 0.497454 0.499050 -0.221530
C28   C     C_R   0.451660 0.721005 0.053417 -0.276953
C29   C     C_3   0.618899 0.861345 0.180768 0.110896
C30   C     C_3   0.651354 0.947142 0.253081 -0.796107
C31   C     C_3   0.192590 0.778295 0.337390 0.119388
C32   C     C_3   0.082770 0.776495 0.271833 -0.836313
C33   C     C_3   0.722596 0.718154 0.777253 0.077162
C34   C     C_R   0.436328 0.257873 0.950179 -0.277535
C35   C     C_3   0.752518 0.609887 0.822481 -0.794525
C36   C     C_3   0.249579 0.741144 0.816489 0.098630
C37   C     C_3   0.246216 0.768911 0.699042 -0.860865
C38   C     C_3   0.327526 0.129204 0.793996 0.102971
C39   C     C_3   0.304407 0.069441 0.700536 -0.809118
C40   C     C_3   0.187674 0.249143 0.306681 0.093103
C41   C     C_3   0.157438 0.250393 0.192858 -0.877144
C42   C     C_R   0.440109 0.336745 0.014653 -0.248013
C43   C     C_R   0.438875 0.446260 0.973273 0.103699
C44   C     C_R   0.422887 0.471345 0.866878 -0.059287
C45   C     C_R   0.454478 0.532171 0.033788 0.029407
C46   C     C_R   0.432135 0.635725 0.992453 -0.026556
H1    H     H_    0.271815 0.067872 0.286685 0.205297
H2    H     H_    0.356697 0.582923 0.751666 0.185065
H3    H     H_    0.611040 0.904752 0.101564 0.134276
H4    H     H_    0.692763 0.817320 0.181164 0.124866
H5    H     H_    0.664280 0.906988 0.332243 0.255458
H6    H     H_    0.735410 0.005894 0.225600 0.195588
H7    H     H_    0.579993 0.993118 0.254793 0.261646
H8    H     H_    0.164938 0.773924 0.419771 0.134468
H9    H     H_    0.227017 0.704647 0.327955 0.155101
H10   H     H_    0.106161 0.778083 0.189324 0.256206
H11   H     H_    0.014328 0.700706 0.297866 0.212270
H12   H     H_    0.560160 0.180878 0.552915 0.171697
H13   H     H_    0.045585 0.848953 0.279655 0.249665
H14   H     H_    0.645147 0.728936 0.821722 0.153754
H15   H     H_    0.801840 0.784133 0.786680 0.125092
H16   H     H_    0.831159 0.597782 0.781149 0.248015
H17   H     H_    0.772801 0.610323 0.905672 0.197689
H18   H     H_    0.676396 0.540671 0.815102 0.260409
H19   H     H_    0.211106 0.801400 0.851163 0.159904
H20   H     H_    0.190333 0.658961 0.841993 0.118146
H21   H     H_    0.263396 0.701237 0.660333 0.250381
H22   H     H_    0.157125 0.782429 0.676138 0.211368
H23   H     H_    0.636472 0.063382 0.636583 0.167849
H24   H     H_    0.314113 0.844236 0.671500 0.270994
H25   H     H_    0.250255 0.166989 0.803818 0.124835
H26   H     H_    0.332587 0.067808 0.862907 0.147855
H27   H     H_    0.379814 0.031179 0.688193 0.268017
H28   H     H_    0.221465 0.004559 0.713494 0.200655
H29   H     H_    0.294235 0.127929 0.630947 0.253706
H30   H     H_    0.149011 0.312149 0.336511 0.179557
H31   H     H_    0.143380 0.168905 0.351905 0.109950
H32   H     H_    0.195161 0.188937 0.159539 0.249084
H33   H     H_    0.059459 0.230692 0.184533 0.216483
H34   H     H_    0.733348 0.927395 0.715487 0.139454
H35   H     H_    0.194668 0.332953 0.149239 0.269531
H36   H     H_    0.405990 0.748538 0.404786 0.233770
H37   H     H_    0.436105 0.800867 0.022889 0.193458
H38   H     H_    0.525026 0.444131 0.163316 0.184491
H39   H     H_    0.438623 0.308636 0.096659 0.183183
H40   H     H_    0.435461 0.174315 0.983962 0.156008
N1    N     N_R   0.440320 0.222190 0.444690 -0.139611
N2    N     N_R   0.559060 0.776980 0.554780 -0.147956
O1    O     O_R   0.471500 0.366730 0.627160 -0.561790
O2    O     O_3   0.279315 0.874713 0.302678 -0.602135
O3    O     O_3   0.697349 0.716880 0.671250 -0.578537
O4    O     O_3   0.368580 0.752253 0.849475 -0.627285
O5    O     O_3   0.436296 0.208238 0.778677 -0.600051
O6    O     O_3   0.312589 0.278647 0.316561 -0.589336
O7    O     O_R   0.509620 0.544830 0.662520 -0.578953
O8    O     O_R   0.646490 0.410960 0.482310 -0.622945
O9    O     O_R   0.684610 0.589050 0.517670 -0.556805
O10   O     O_R   0.490380 0.455170 0.337480 -0.570660
O11   O     O_R   0.528500 0.633270 0.372840 -0.599731
O12   O     O_R   0.315390 0.410950 0.482330 -0.586381
O13   O     O_R   0.353510 0.589040 0.517690 -0.663443
O14   O     O_3   0.510328 0.788187 0.214396 -0.591992
Zn1   Zn    Zn3+2 0.474550 0.381080 0.476390 0.984371
Zn2   Zn    Zn3+2 0.525450 0.618920 0.523610 0.971981

loop_
_geom_bond_atom_site_label_1
_geom_bond_atom_site_label_2
_ccdc_geom_bond_type
C30   H5    S    
C21   N1    A    
C34   C42   A    
C16   O10   A    
C9    O3    S    
C29   H3    S    
C45   C46   A    
C2    C46   A    
C28   C46   A    
C26   C27   T    
C22   O13   A    
C36   C37   S    
C33   O3    S    
C9    N2    A    
C6    C12   A    
C38   C39   S    
C4    C24   S    
C36   H20   S    
C21   O6    S    
O10   Zn1   S    
C37   H22   S    
C3    H2    S    
C18   C19   A    
C34   H40   S    
C39   H28   S    
C4    O8    A    
C6    C28   A    
C12   C16   S    
C35   H18   S    
C39   H29   S    
C19   H36   S    
C9    C10   A    
C23   C34   A    
C6    O14   S    
O11   Zn2   S    
C13   C14   A    
O1    Zn1   S    
C28   H37   S    
C32   H11   S    
N2    Zn2   S    
C8    C21   A    
C29   H4    S    
C15   C20   A    
C30   H7    S    
C38   H26   S    
C3    C44   A    
C22   O12   A    
C18   O2    S    
C24   C25   T    
C5    C12   A    
C41   H32   S    
C5    H38   S    
C10   H34   S    
C36   H19   S    
C25   C26   S    
C5    C45   A    
O12   Zn1   S    
C40   H30   S    
C43   C44   A    
C29   C30   S    
C4    O9    A    
C31   C32   S    
C1    O7    A    
C31   O2    S    
C41   H35   S    
C17   C18   A    
C42   H39   S    
C7    C44   A    
C2    O4    S    
C43   C45   A    
N1    Zn1   S    
C40   C41   S    
C33   H14   S    
C22   C27   S    
C13   C15   A    
C42   C43   A    
C20   H12   S    
O7    Zn2   S    
C15   C17   A    
C30   H6    S    
C38   H25   S    
C1    O1    A    
C1    C7    S    
C14   C19   A    
C40   O6    S    
C41   H33   S    
C11   H23   S    
C16   O11   A    
O13   Zn2   S    
C8    C17   A    
C2    C3    A    
C8    H1    S    
C14   N2    A    
C20   N1    A    
C11   C13   A    
C36   O4    S    
C7    C23   A    
C37   H21   S    
C38   O5    S    
C33   C35   S    
C29   O14   S    
C35   H16   S    
C39   H27   S    
C31   H8    S    
O9    Zn2   S    
C10   C11   A    
C23   O5    S    
C33   H15   S    
O8    Zn1   S    
C40   H31   S    
C35   H17   S    
C32   H13   S    
C31   H9    S    
C37   H24   S    
C32   H10   S    
