data_mof_unit_67351.cif
_audit_creation_date              2013-03-05T16:08:11-0500
_audit_creation_method            fapswitch 2.2
_symmetry_space_group_name_H-M    P1
_symmetry_Int_Tables_number       1
_space_group_crystal_system       triclinic
_cell_length_a                    19.632767
_cell_length_b                    22.961287
_cell_length_c                    8.733985
_cell_angle_alpha                 89.999983
_cell_angle_beta                  104.341983
_cell_angle_gamma                 90.027938
_cell_volume                      3814.51840687

loop_
_atom_site_label
_atom_site_type_symbol
_atom_site_description
_atom_site_fract_x
_atom_site_fract_y
_atom_site_fract_z
_atom_type_partial_charge
P1    P     P_3+3 0.853370 0.434890 0.996520 0.666453
P2    P     P_3+3 0.853370 0.565110 0.496520 0.665486
P3    P     P_3+3 0.353370 0.934890 0.996520 0.665688
P4    P     P_3+3 0.353370 0.065110 0.496520 0.664973
O1    O     O_2   0.860260 0.414960 0.826400 -0.304271
O2    O     O_2   0.860260 0.585040 0.326400 -0.304440
O3    O     O_2   0.360260 0.914960 0.826400 -0.304321
O4    O     O_2   0.360260 0.085040 0.326400 -0.304904
O5    O     O_3   0.918600 0.470180 0.098890 -0.321204
O6    O     O_3   0.918600 0.529820 0.598890 -0.321738
O7    O     O_3   0.418600 0.970180 0.098890 -0.321885
O8    O     O_3   0.418600 0.029820 0.598890 -0.321954
O9    O     O_3   0.975750 0.362410 0.628650 -0.311274
O10   O     O_3   0.975750 0.637590 0.128650 -0.311449
O11   O     O_3   0.475750 0.862410 0.628650 -0.311984
O12   O     O_3   0.475750 0.137590 0.128650 -0.320731
O13   O     O_2   0.859662 0.317119 0.677303 -0.320525
O14   O     O_2   0.859670 0.682754 0.177754 -0.320908
O15   O     O_2   0.359540 0.817346 0.677611 -0.321292
O16   O     O_2   0.360140 0.183493 0.177986 -0.324790
O17   O     O_3   0.766610 0.463045 0.958489 -0.557903
O18   O     O_3   0.766607 0.536601 0.458836 -0.556318
O19   O     O_3   0.266553 0.962960 0.958614 -0.557840
O20   O     O_3   0.266496 0.037081 0.458313 -0.557789
O21   O     O_3   0.953065 0.244043 0.641540 -0.521730
O22   O     O_3   0.952839 0.755930 0.141287 -0.521781
O23   O     O_3   0.452732 0.744144 0.641313 -0.522039
O24   O     O_3   0.453334 0.256188 0.137384 -0.523868
C1    C     C_3   0.034131 0.172152 0.597630 0.558546
C2    C     C_3   0.034107 0.827722 0.097610 0.558660
C3    C     C_3   0.533820 0.672301 0.596933 0.558479
C4    C     C_3   0.527838 0.331935 0.083285 0.555227
P5    P     P_3+3 0.146350 0.434230 0.693140 0.500032
P6    P     P_3+3 0.146350 0.565770 0.193140 0.500081
P7    P     P_3+3 0.646350 0.934230 0.693140 0.499411
P8    P     P_3+3 0.646350 0.065770 0.193140 0.496717
P9    P     P_3+3 0.084283 0.307648 0.116529 0.560810
P10   P     P_3+3 0.084313 0.692354 0.616580 0.560369
P11   P     P_3+3 0.584290 0.807635 0.116573 0.560849
P12   P     P_3+3 0.583973 0.192509 0.617429 0.557756
O25   O     O_2   0.139400 0.414340 0.863230 -0.346677
O26   O     O_2   0.139400 0.585660 0.363230 -0.349649
O27   O     O_2   0.639400 0.914340 0.863230 -0.348258
O28   O     O_2   0.639400 0.085660 0.363230 -0.353322
O29   O     O_3   0.023740 0.362300 0.060930 -0.432485
O30   O     O_3   0.023740 0.637700 0.560930 -0.432291
O31   O     O_3   0.523740 0.862300 0.060930 -0.432288
O32   O     O_3   0.523740 0.137700 0.560930 -0.433872
O33   O     O_2   0.133303 0.316558 0.004893 -0.257502
O34   O     O_2   0.133258 0.683519 0.504759 -0.257920
O35   O     O_2   0.633345 0.816534 0.005007 -0.257772
O36   O     O_2   0.632230 0.184850 0.503356 -0.267930
O37   O     O_3   0.219562 0.480938 0.736389 -0.522686
O38   O     O_3   0.219364 0.518999 0.236434 -0.521768
O39   O     O_3   0.719536 0.980991 0.736389 -0.523586
O40   O     O_3   0.719570 0.019103 0.236362 -0.520515
O41   O     O_3   0.037165 0.243335 0.050344 -0.424851
O42   O     O_3   0.037163 0.756646 0.550690 -0.424872
O43   O     O_3   0.537164 0.743327 0.050363 -0.425052
O44   O     O_3   0.536452 0.257024 0.556533 -0.420291
C5    C     C_3   0.966644 0.251072 0.056945 0.309085
C6    C     C_3   0.966662 0.748839 0.557473 0.310170
C7    C     C_3   0.466621 0.751091 0.056815 0.310459
C8    C     C_3   0.465139 0.247954 0.554001 0.308513
H1    H     H_    0.941897 0.286706 0.976232 0.096846
H2    H     H_    0.941880 0.713182 0.476814 0.097035
H3    H     H_    0.441911 0.786732 0.976087 0.097180
H4    H     H_    0.442592 0.212237 0.471247 0.101950
C9    C     C_3   0.922630 0.196930 0.998584 -0.069210
C10   C     C_3   0.922594 0.802925 0.499150 -0.069907
C11   C     C_3   0.422604 0.696964 0.998319 -0.069812
C12   C     C_3   0.421207 0.301565 0.490759 -0.063906
C13   C     C_3   0.204570 0.469936 0.318436 0.182836
C14   C     C_3   0.204683 0.530450 0.816547 0.182343
C15   C     C_3   0.704986 0.969952 0.318370 0.184330
C16   C     C_3   0.704897 0.030128 0.818312 0.184879
H5    H     H_    0.193539 0.483554 0.431430 0.110299
H6    H     H_    0.192810 0.517361 0.929149 0.109691
H7    H     H_    0.693762 0.983533 0.431211 0.111221
H8    H     H_    0.693655 0.016545 0.931139 0.111826
H9    H     H_    0.158273 0.446167 0.246353 0.053465
H10   H     H_    0.158826 0.554240 0.742830 0.054240
H11   H     H_    0.658798 0.946081 0.246197 0.052687
H12   H     H_    0.658707 0.053932 0.746055 0.054046
C17   C     C_3   0.268139 0.428361 0.354945 0.318663
C18   C     C_3   0.268582 0.571806 0.854038 0.320806
C19   C     C_3   0.768712 0.928439 0.355466 0.319911
C20   C     C_3   0.768588 0.071724 0.855413 0.316404
Ba1   Ba    Ba6+2 0.999900 0.457470 0.844900 1.737565
Ba2   Ba    Ba6+2 0.999900 0.542530 0.344900 1.736719
Ba3   Ba    Ba6+2 0.499900 0.957470 0.844900 1.735993
Ba4   Ba    Ba6+2 0.499900 0.042530 0.344900 1.731948
C21   C     C_3   0.747389 0.521045 0.917161 0.771769
C22   C     C_3   0.747834 0.478549 0.416493 0.770986
C23   C     C_3   0.247228 0.020959 0.917230 0.774001
C24   C     C_3   0.247101 0.979083 0.417026 0.774291
C25   C     C_3   0.667794 0.525104 0.910650 -0.102660
C26   C     C_3   0.667825 0.473554 0.406732 -0.103559
C27   C     C_3   0.167539 0.024840 0.910472 -0.104614
C28   C     C_3   0.167375 0.975216 0.410032 -0.104645
H13   H     H_    0.648687 0.570404 0.890977 0.220914
H14   H     H_    0.649119 0.428049 0.381623 0.209693
H15   H     H_    0.148389 0.070128 0.890871 0.220423
H16   H     H_    0.148174 0.929932 0.390221 0.220245
H17   H     H_    0.659586 0.511190 0.025285 0.173828
H18   H     H_    0.658548 0.485725 0.521963 0.178542
H19   H     H_    0.159070 0.010863 0.024931 0.176096
H20   H     H_    0.158854 0.989141 0.524500 0.176765
O45   O     O_3   0.081330 0.529680 0.090830 -0.407951
O46   O     O_3   0.081330 0.470320 0.590830 -0.409010
O47   O     O_3   0.581330 0.029680 0.090830 -0.406660
O48   O     O_3   0.581330 0.970320 0.590830 -0.407922
P13   P     P_3+3 0.911291 0.690852 0.071692 0.565110
P14   P     P_3+3 0.911446 0.309031 0.571619 0.564751
P15   P     P_3+3 0.411479 0.190903 0.070903 0.556245
P16   P     P_3+3 0.411207 0.809200 0.571702 0.564708
C29   C     C_3   0.982900 0.220877 0.524597 0.023044
C30   C     C_3   0.982836 0.778992 0.024458 0.023016
C31   C     C_3   0.482731 0.721182 0.524406 0.023141
C32   C     C_3   0.484028 0.277833 0.019959 0.009133
H21   H     H_    0.941283 0.202334 0.427956 0.101913
H22   H     H_    0.941321 0.797497 0.927589 0.101024
H23   H     H_    0.441204 0.702840 0.427283 0.100862
H24   H     H_    0.442840 0.290549 0.914379 0.092175
H25   H     H_    0.866170 0.208306 0.978419 0.065677
H26   H     H_    0.866155 0.791491 0.479505 0.066715
H27   H     H_    0.366134 0.708320 0.978290 0.066387
H28   H     H_    0.364626 0.290164 0.467725 0.069186
C33   C     C_R   0.136347 0.690839 0.829062 0.188663
C34   C     C_R   0.136235 0.309063 0.329093 0.189429
C35   C     C_R   0.636320 0.190849 0.829402 0.193064
C36   C     C_R   0.636234 0.809040 0.329153 0.189803
C37   C     C_R   0.189420 0.733078 0.894606 -0.128129
C38   C     C_R   0.189293 0.266834 0.394530 -0.128624
C39   C     C_R   0.689050 0.233343 0.895079 -0.131322
C40   C     C_R   0.689236 0.766771 0.394705 -0.127369
C41   C     C_R   0.792867 0.319424 0.037104 -0.120955
C42   C     C_R   0.792382 0.680351 0.537283 -0.128079
C43   C     C_R   0.292552 0.819561 0.037212 -0.128760
C44   C     C_R   0.292379 0.180344 0.536963 -0.129286
C45   C     C_R   0.751785 0.325157 0.884872 -0.069050
C46   C     C_R   0.752030 0.675053 0.384226 -0.076914
C47   C     C_R   0.252231 0.824807 0.884144 -0.076760
C48   C     C_R   0.252178 0.175178 0.383754 -0.077770
C49   C     C_R   0.205792 0.782107 0.809215 0.375864
C50   C     C_R   0.205711 0.217865 0.308980 0.375935
C51   C     C_R   0.704849 0.282758 0.810191 0.373917
C52   C     C_R   0.705545 0.717707 0.309324 0.376401
C53   C     C_R   0.845344 0.362246 0.102118 0.261861
C54   C     C_R   0.844901 0.637590 0.602340 0.263019
C55   C     C_R   0.345029 0.862384 0.102305 0.264021
C56   C     C_R   0.344859 0.137544 0.602085 0.262807
H29   H     H_    0.756107 0.363086 0.818012 0.228082
H30   H     H_    0.756470 0.637216 0.317155 0.229425
H31   H     H_    0.256656 0.862634 0.817094 0.230269
H32   H     H_    0.256725 0.137432 0.316482 0.230399
C57   C     C_R   0.881732 0.355233 0.261597 -0.374787
C58   C     C_R   0.881184 0.644564 0.761861 -0.375355
C59   C     C_R   0.381248 0.855476 0.261887 -0.374395
C60   C     C_R   0.380894 0.144320 0.761721 -0.374109
C61   C     C_R   0.161322 0.636222 0.083350 0.223027
C62   C     C_R   0.161231 0.363672 0.583477 0.221926
C63   C     C_R   0.661051 0.136416 0.083831 0.209033
C64   C     C_R   0.661243 0.863691 0.583458 0.221897
C65   C     C_R   0.214130 0.678868 0.148079 -0.010877
C66   C     C_R   0.214055 0.321029 0.648093 -0.011590
C67   C     C_R   0.713669 0.179191 0.148717 -0.036892
C68   C     C_R   0.714011 0.821029 0.648184 -0.010532
C69   C     C_R   0.227117 0.727564 0.056114 0.043332
C70   C     C_R   0.226960 0.272315 0.556063 0.044232
C71   C     C_R   0.727140 0.227575 0.056268 0.055742
C72   C     C_R   0.726959 0.772319 0.556213 0.043539
C73   C     C_R   0.254139 0.674779 0.304151 0.049938
C74   C     C_R   0.254247 0.325179 0.804013 0.052676
C75   C     C_R   0.753531 0.175213 0.304923 0.040138
C76   C     C_R   0.754024 0.825120 0.804260 0.049031
C77   C     C_R   0.802509 0.217643 0.372851 -0.020186
C78   C     C_R   0.802557 0.782453 0.872601 -0.021192
C79   C     C_R   0.302666 0.717484 0.372477 -0.020309
C80   C     C_R   0.302766 0.282469 0.872242 -0.010311
C81   C     C_R   0.816436 0.265886 0.286378 -0.031041
C82   C     C_R   0.815932 0.733882 0.786621 -0.025831
C83   C     C_R   0.316030 0.766077 0.286537 -0.025970
C84   C     C_R   0.315774 0.233719 0.786407 -0.026802
C85   C     C_R   0.779719 0.270487 0.125957 0.078709
C86   C     C_R   0.779005 0.729131 0.626346 0.062534
C87   C     C_R   0.279158 0.770782 0.126257 0.062525
C88   C     C_R   0.278932 0.229067 0.626127 0.062841
C89   C     C_R   0.866038 0.309473 0.355893 0.172050
C90   C     C_R   0.865554 0.690325 0.856141 0.174002
C91   C     C_R   0.365595 0.809696 0.356118 0.173932
C92   C     C_R   0.365216 0.190022 0.855918 0.182039
C93   C     C_R   0.122301 0.644801 0.925668 -0.514632
C94   C     C_R   0.122155 0.355037 0.425843 -0.514093
C95   C     C_R   0.622326 0.144792 0.925917 -0.524796
C96   C     C_R   0.622229 0.855081 0.425778 -0.514373
H33   H     H_    0.919988 0.387757 0.316008 0.173443
H34   H     H_    0.919469 0.612082 0.816204 0.173099
H35   H     H_    0.419470 0.888024 0.316315 0.173081
H36   H     H_    0.419163 0.111827 0.816079 0.173240
H37   H     H_    0.082047 0.613361 0.874309 0.154312
H38   H     H_    0.081864 0.386425 0.374575 0.154165
H39   H     H_    0.582209 0.113257 0.874433 0.157889
H40   H     H_    0.582005 0.886511 0.374418 0.154460
H41   H     H_    0.011862 0.254515 0.473350 0.075194
H42   H     H_    0.011798 0.745307 0.973461 0.075344
H43   H     H_    0.511826 0.754908 0.473800 0.075298
H44   H     H_    0.518686 0.244608 0.984614 0.075470
N1    N     N_R   0.333040 0.459071 0.431357 0.288036
O49   O     O_R   0.383107 0.466173 0.359470 -0.153872
O50   O     O_R   0.346329 0.469559 0.581964 -0.219255
N2    N     N_R   0.333242 0.540945 0.931198 0.288123
O51   O     O_R   0.384046 0.534442 0.861087 -0.156374
O52   O     O_R   0.345543 0.529704 0.081269 -0.220402
N3    N     N_R   0.833707 0.959224 0.431014 0.288163
O53   O     O_R   0.884623 0.964334 0.360786 -0.158281
O54   O     O_R   0.846239 0.971463 0.580538 -0.219781
N4    N     N_R   0.833603 0.041018 0.930948 0.287925
O55   O     O_R   0.884523 0.035977 0.860729 -0.158528
O56   O     O_R   0.846124 0.028739 0.080438 -0.219477
H45   H     H_    0.259205 0.394671 0.438385 -0.030877
H46   H     H_    0.259536 0.605479 0.937436 -0.032551
H47   H     H_    0.759847 0.895056 0.439816 -0.031322
H48   H     H_    0.759697 0.105088 0.939787 -0.024578
N5    N     N_R   0.275289 0.398946 0.211593 0.237497
O57   O     O_R   0.278233 0.342438 0.207319 -0.452230
O58   O     O_R   0.280864 0.428904 0.089254 -0.310228
N6    N     N_R   0.276354 0.601332 0.711303 0.235019
O59   O     O_R   0.283686 0.571503 0.590149 -0.313684
O60   O     O_R   0.278908 0.657859 0.707238 -0.453928
N7    N     N_R   0.775762 0.898476 0.212774 0.235274
O61   O     O_R   0.778724 0.841946 0.210010 -0.453586
O62   O     O_R   0.782424 0.927965 0.090535 -0.314460
N8    N     N_R   0.775601 0.101702 0.712700 0.234820
O63   O     O_R   0.782499 0.072232 0.590620 -0.313779
O64   O     O_R   0.778106 0.158249 0.709616 -0.454097
N9    N     N_R   0.758889 0.533875 0.766398 0.168410
O65   O     O_R   0.724603 0.576903 0.685690 -0.391764
O66   O     O_R   0.822025 0.522988 0.756693 -0.394131
N10   N     N_R   0.760553 0.465967 0.266849 0.164703
O67   O     O_R   0.727213 0.422513 0.186653 -0.391387
O68   O     O_R   0.823853 0.477126 0.258704 -0.392727
N11   N     N_R   0.258813 0.033922 0.766563 0.166635
O69   O     O_R   0.224873 0.077263 0.686667 -0.394730
O70   O     O_R   0.321910 0.022928 0.756746 -0.394326
N12   N     N_R   0.258805 0.966010 0.266521 0.166429
O71   O     O_R   0.224900 0.922595 0.186774 -0.394752
O72   O     O_R   0.321955 0.976978 0.256913 -0.394188
N13   N     N_R   0.787448 0.563030 0.028323 0.218394
O73   O     O_R   0.854422 0.567384 0.039554 -0.312014
O74   O     O_R   0.755275 0.608865 0.060993 -0.383771
N14   N     N_R   0.787593 0.436681 0.528285 0.219435
O75   O     O_R   0.755202 0.391036 0.561503 -0.389052
O76   O     O_R   0.854627 0.432288 0.540365 -0.310491
N15   N     N_R   0.287193 0.062996 0.028448 0.219200
O77   O     O_R   0.354185 0.067327 0.039852 -0.311153
O78   O     O_R   0.255023 0.108957 0.060322 -0.382282
N16   N     N_R   0.286941 0.937124 0.528497 0.219683
O79   O     O_R   0.254580 0.891383 0.561199 -0.382077
O80   O     O_R   0.353903 0.932612 0.539750 -0.311687
N17   N     N_R   0.625441 0.487967 0.787769 0.273124
O81   O     O_R   0.567403 0.507681 0.696524 -0.191928
O82   O     O_R   0.640969 0.433276 0.780075 -0.270829
N18   N     N_R   0.625924 0.511856 0.286149 0.273656
O83   O     O_R   0.568955 0.492487 0.189889 -0.203541
O84   O     O_R   0.641552 0.566712 0.282593 -0.265753
N19   N     N_R   0.125236 0.987745 0.787273 0.273065
O85   O     O_R   0.066117 0.006932 0.699430 -0.189992
O86   O     O_R   0.141563 0.933323 0.777266 -0.269351
N20   N     N_R   0.125163 0.012345 0.286896 0.272747
O87   O     O_R   0.066010 0.993192 0.199004 -0.189891
O88   O     O_R   0.141552 0.066778 0.277142 -0.269728
N21   N     N_R   0.054072 0.140494 0.470229 0.227568
O89   O     O_R   0.039040 0.085568 0.445576 -0.193219
O90   O     O_R   0.082545 0.168457 0.372904 -0.390043
N22   N     N_R   0.054134 0.859391 0.970319 0.227468
O91   O     O_R   0.039164 0.914315 0.945696 -0.193379
O92   O     O_R   0.082674 0.831446 0.873125 -0.390115
N23   N     N_R   0.553440 0.640696 0.469046 0.228021
O93   O     O_R   0.537667 0.585939 0.443263 -0.188523
O94   O     O_R   0.581747 0.668725 0.371541 -0.390683
N24   N     N_R   0.544370 0.362992 0.950670 0.236418
O95   O     O_R   0.526304 0.417178 0.921804 -0.180573
O96   O     O_R   0.574725 0.335349 0.856004 -0.366898
N25   N     N_R   0.097486 0.197453 0.703126 0.238994
O97   O     O_R   0.152761 0.165501 0.756263 -0.297468
O98   O     O_R   0.100262 0.252271 0.741375 -0.341847
N26   N     N_R   0.097412 0.802422 0.203171 0.239084
O99   O     O_R   0.152687 0.834394 0.256571 -0.296946
O100  O     O_R   0.100181 0.747570 0.241043 -0.341855
N27   N     N_R   0.597349 0.697415 0.702247 0.238500
O101  O     O_R   0.652625 0.665379 0.754523 -0.298179
O102  O     O_R   0.600184 0.752124 0.741625 -0.341185
N28   N     N_R   0.592929 0.312918 0.194162 0.223857
O103  O     O_R   0.653862 0.329204 0.177256 -0.334854
O104  O     O_R   0.590430 0.275412 0.303584 -0.270471
N29   N     N_R   0.178367 0.790854 0.644004 0.280584
O105  O     O_R   0.216314 0.773265 0.550648 -0.300069
O106  O     O_R   0.135772 0.834255 0.597558 -0.207205
N30   N     N_R   0.178337 0.209187 0.143724 0.280678
O107  O     O_R   0.135780 0.165744 0.097057 -0.207668
O108  O     O_R   0.216335 0.226873 0.050545 -0.301096
N31   N     N_R   0.677715 0.291570 0.644887 0.282803
O109  O     O_R   0.716143 0.274155 0.552289 -0.305161
O110  O     O_R   0.635412 0.335169 0.598200 -0.210709
N32   N     N_R   0.678018 0.708872 0.144144 0.280508
O111  O     O_R   0.635606 0.665294 0.097970 -0.209169
O112  O     O_R   0.715836 0.726561 0.050573 -0.299658
H49   H     H_    0.829300 0.211796 0.495420 0.200354
H50   H     H_    0.829491 0.788396 0.995050 0.199713
H51   H     H_    0.329611 0.711558 0.494892 0.200180
H52   H     H_    0.330000 0.288517 0.994439 0.201712
H53   H     H_    0.247662 0.638787 0.376818 0.208163
H54   H     H_    0.247975 0.361265 0.876532 0.208978
H55   H     H_    0.746689 0.139481 0.377990 0.211599
H56   H     H_    0.747534 0.861094 0.876903 0.208413
N33   N     N_R   0.999437 0.132129 0.685965 0.246465
O113  O     O_R   0.029197 0.118093 0.831226 -0.270949
O114  O     O_R   0.939190 0.108682 0.617436 -0.257503
N34   N     N_R   0.999415 0.867735 0.185910 0.246586
O115  O     O_R   0.029126 0.881739 0.331236 -0.271164
O116  O     O_R   0.939204 0.891177 0.117320 -0.257741
N35   N     N_R   0.499150 0.632287 0.685340 0.246860
O117  O     O_R   0.529145 0.617989 0.830270 -0.270629
O118  O     O_R   0.438740 0.609042 0.617132 -0.258168
N36   N     N_R   0.488023 0.370401 0.163946 0.250453
O119  O     O_R   0.425421 0.388072 0.090861 -0.268073
O120  O     O_R   0.516671 0.390734 0.304048 -0.264715
H57   H     H_    0.963567 0.261111 0.179516 -0.043229
H58   H     H_    0.963642 0.738789 0.680078 -0.043592
H59   H     H_    0.463482 0.761137 0.179350 -0.043059
H60   H     H_    0.459446 0.237658 0.674435 -0.044333
H61   H     H_    0.930426 0.182552 0.883222 0.214161
H62   H     H_    0.930212 0.817227 0.383552 0.214178
H63   H     H_    0.430389 0.682659 0.882885 0.213925
H64   H     H_    0.430780 0.315052 0.376248 0.213732
N37   N     N_R   0.939203 0.149798 0.113287 0.281592
O121  O     O_R   0.895481 0.136963 0.198240 -0.378409
O122  O     O_R   0.990087 0.113998 0.110312 -0.126224
N38   N     N_R   0.939317 0.850158 0.613564 0.281729
O123  O     O_R   0.895620 0.863206 0.698375 -0.379205
O124  O     O_R   0.990359 0.885819 0.610478 -0.126161
N39   N     N_R   0.439235 0.649779 0.112843 0.282311
O125  O     O_R   0.395846 0.637251 0.198852 -0.379580
O126  O     O_R   0.489534 0.613556 0.108355 -0.125797
N40   N     N_R   0.436528 0.349489 0.603036 0.284152
O127  O     O_R   0.394381 0.359944 0.693424 -0.384402
O128  O     O_R   0.482895 0.388459 0.590627 -0.128254

loop_
_geom_bond_atom_site_label_1
_geom_bond_atom_site_label_2
_geom_bond_distance
_ccdc_geom_bond_type
C27   H15   1.104759 S    
N15   O78   1.295324 A    
N29   O106  1.299888 A    
O8    Ba3   2.868386 S    
N27   O101  1.297138 A    
P6    O26   1.592035 D    
P6    C61   1.939570 S    
C41   C53   1.435209 A    
N37   O121  1.299813 A    
N31   O110  1.300497 A    
N24   O95   1.301340 A    
C30   H42   1.116167 S    
O20   C24   1.407097 S    
C49   N29   1.423924 S    
C95   H39   1.082031 S    
C73   C79   1.393813 A    
C28   H16   1.104761 S    
C93   H37   1.082013 S    
C6    C10   1.527426 S    
P2    Ba2   3.491009 S    
O10   Ba2   2.848442 S    
P2    O18   1.777505 S    
N36   O119  1.301724 A    
O4    Ba4   2.877140 S    
P4    O8    1.590534 S    
C44   C56   1.435811 A    
O28   Ba4   2.878778 S    
C25   N17   1.458625 S    
C25   H17   1.100163 S    
C10   H26   1.109806 S    
C12   H64   1.106598 S    
C34   C38   1.434563 A    
N8    O64   1.299828 A    
C13   H9    1.111949 S    
N6    O59   1.298117 A    
C7    H3    1.110474 S    
C65   C69   1.435799 A    
C38   C50   1.430418 A    
C51   N31   1.424166 S    
C66   C74   1.397780 A    
C9    N37   1.455868 S    
C71   C85   1.447286 A    
N35   O117  1.299147 A    
C32   H44   1.115725 S    
P10   C33   1.884058 S    
C64   C68   1.436392 A    
N38   O123  1.299810 A    
C69   C87   1.446676 A    
C75   C77   1.393635 A    
C67   C71   1.435855 A    
C26   H14   1.111026 S    
C17   N1    1.464236 S    
C19   H47   1.106349 S    
N3    O53   1.301115 A    
C2    N34   1.470923 S    
C10   H62   1.106496 S    
N31   O109  1.298362 A    
P8    O47   1.596417 S    
N32   O111  1.300018 A    
C74   H54   1.068460 S    
C78   C82   1.405206 A    
C33   C37   1.434406 A    
C7    C11   1.527303 S    
P6    O38   1.756158 S    
C31   H23   1.103942 S    
N20   O88   1.298504 A    
P8    O28   1.592035 D    
C37   C49   1.430141 A    
P9    O29   1.714313 S    
O12   P15   1.741061 S    
C20   N8    1.459914 S    
N30   O107  1.299884 A    
P11   O31   1.714655 S    
P12   O32   1.713226 S    
C35   C95   1.420884 A    
N38   O124  1.299217 A    
C22   N14   1.452570 S    
O5    Ba2   2.867485 S    
Ba4   O47   3.053691 S    
O41   C5    1.411218 S    
C50   N30   1.423864 S    
O22   C30   1.402075 S    
O43   C7    1.411361 S    
C26   H18   1.102292 S    
O44   C8    1.410120 S    
N25   O98   1.299930 A    
O21   P14   1.738175 S    
N28   O103  1.296075 A    
O17   C21   1.406865 S    
C58   H34   1.081808 S    
O19   C23   1.407351 S    
C23   C27   1.553556 S    
N23   O94   1.297069 A    
P3    O7    1.589898 S    
C45   C51   1.386974 A    
O11   Ba3   2.848088 S    
C5    H1    1.110463 S    
N2    O51   1.301864 A    
C13   H5    1.106608 S    
C82   C90   1.423344 A    
O26   Ba2   2.878778 S    
C15   H7    1.106688 S    
C61   C65   1.435961 A    
C80   C84   1.405479 A    
N34   O116  1.302221 A    
N14   O75   1.295282 A    
P2    C54   1.930781 S    
O25   Ba1   2.879697 S    
P12   O44   1.761573 S    
N16   O80   1.298005 A    
P13   C90   1.874354 S    
N13   O73   1.297893 A    
C77   H49   1.077872 S    
C8    H4    1.109983 S    
N27   O102  1.299940 A    
C79   H51   1.077658 S    
C58   C90   1.414838 A    
N17   O81   1.299609 A    
C3    N27   1.471446 S    
C75   H55   1.068092 S    
C30   H22   1.104255 S    
C43   C47   1.379938 A    
O6    Ba1   2.868386 S    
C21   N9    1.420865 S    
N18   O83   1.299714 A    
P8    C63   1.939609 S    
C20   H48   1.106456 S    
P7    O27   1.591998 D    
C76   C78   1.393972 A    
O40   C15   1.403544 S    
P10   O42   1.762029 S    
N9    O65   1.300631 A    
O18   C22   1.407619 S    
O14   P13   1.544247 D    
N10   O68   1.287887 A    
N5    O57   1.299764 A    
C1    N21   1.461474 S    
P4    C56   1.928923 S    
C28   H20   1.101203 S    
C6    H2    1.110462 S    
O24   C32   1.402802 S    
Ba3   Ba4   4.783844 S    
C6    H58   1.111251 S    
C2    C30   1.534162 S    
O2    Ba2   2.877140 S    
Ba1   O46   3.053542 S    
N35   O118  1.302198 A    
N26   O100  1.299926 A    
Ba3   O48   3.053542 S    
C48   H32   1.063218 S    
P5    Ba1   3.492572 S    
N40   O128  1.299670 A    
C36   C40   1.434708 A    
N1    O49   1.300999 A    
C61   C93   1.414149 A    
C46   H30   1.063444 S    
C13   C17   1.540973 S    
C40   C52   1.430541 A    
C15   C19   1.542471 S    
P12   C35   1.882195 S    
C66   C70   1.436174 A    
C39   C51   1.430679 A    
N39   O126  1.299400 A    
C96   H40   1.082006 S    
C21   C25   1.552401 S    
C67   C75   1.397577 A    
C68   C76   1.397699 A    
N12   O71   1.300628 A    
C1    N25   1.471426 S    
N20   O87   1.299702 A    
C16   H8    1.106673 S    
O16   P15   1.544808 D    
C47   H31   1.063014 S    
N19   O85   1.299686 A    
C64   C96   1.414084 A    
C4    N28   1.465934 S    
C10   N38   1.455912 S    
N24   O96   1.298513 A    
N16   O79   1.295195 A    
C45   H29   1.063551 S    
O15   P16   1.544218 D    
C77   C81   1.405075 A    
C24   C28   1.553743 S    
C43   C55   1.435399 A    
N10   O67   1.298752 A    
N21   O90   1.297058 A    
C20   N4    1.464677 S    
O1    Ba1   2.876233 S    
P10   O30   1.713921 S    
C17   N5    1.459658 S    
N22   O91   1.300819 A    
C24   N16   1.453058 S    
O32   Ba4   2.848826 S    
C70   C88   1.446832 A    
N36   O120  1.300162 A    
P5    O46   1.597060 S    
Ba2   O45   3.053691 S    
C17   H45   1.106104 S    
P7    O48   1.597060 S    
O42   C6    1.411344 S    
C2    N22   1.461385 S    
C74   C80   1.394234 A    
P11   O35   1.543864 D    
O37   C14   1.403414 S    
C16   H12   1.111907 S    
N6    O60   1.299701 A    
C8    H60   1.110415 S    
C28   N20   1.459230 S    
C7    H59   1.111342 S    
P1    O1    1.592174 D    
C42   C86   1.424810 A    
C18   N2    1.464536 S    
P3    O3    1.592174 D    
C12   N40   1.454843 S    
P4    O20   1.775256 S    
C22   C26   1.556046 S    
N11   O69   1.300613 A    
C94   H38   1.081999 S    
P3    Ba3   3.490590 S    
C82   C86   1.412159 A    
N33   O114  1.302219 A    
C37   C69   1.427046 A    
C62   C66   1.436588 A    
C81   C89   1.422919 A    
C40   C72   1.427195 A    
N32   O112  1.297860 A    
N23   O93   1.300949 A    
C84   C92   1.423543 A    
P1    C53   1.931168 S    
C39   C71   1.427321 A    
C57   C89   1.415146 A    
O29   Ba1   2.849175 S    
O9    P14   1.740998 S    
P8    Ba4   3.492141 S    
C59   H35   1.081815 S    
C9    H25   1.109725 S    
P14   C89   1.874227 S    
C2    N26   1.471464 S    
C11   H27   1.109910 S    
C78   H50   1.077849 S    
C14   H10   1.112098 S    
C4    N24   1.463367 S    
C24   N12   1.421456 S    
N37   O122  1.299232 A    
N30   O108  1.297783 A    
C41   C85   1.424936 A    
C44   C88   1.424738 A    
C59   C91   1.414819 A    
P1    O5    1.589898 S    
C60   C92   1.413718 A    
C48   C50   1.387497 A    
C42   C46   1.380102 A    
Ba4   O48   2.867046 S    
C52   N32   1.424145 S    
C83   C91   1.423178 A    
N25   O97   1.297133 A    
P8    O40   1.757779 S    
O24   P15   1.738352 S    
C83   C87   1.411882 A    
O38   C13   1.403266 S    
P9    O33   1.543843 D    
C9    H61   1.106375 S    
C63   C95   1.413483 A    
P11   O43   1.761920 S    
N7    O62   1.297897 A    
C3    N35   1.470870 S    
C3    C31   1.534070 S    
P15   C92   1.872459 S    
C22   N10   1.419784 S    
P16   C91   1.874046 S    
N2    O52   1.298518 A    
O12   Ba4   2.848442 S    
C11   N39   1.455839 S    
N8    O63   1.297957 A    
N14   O76   1.297947 A    
C41   C45   1.380040 A    
C54   C58   1.407993 A    
O31   Ba3   2.849175 S    
C44   C48   1.379943 A    
C34   C94   1.421551 A    
O30   Ba2   2.848826 S    
O10   P13   1.741918 S    
C27   H19   1.101036 S    
P7    C64   1.940554 S    
N4    O56   1.298336 A    
P5    O25   1.591998 D    
P5    C62   1.940759 S    
O22   P13   1.738060 S    
N34   O115  1.299123 A    
N19   O86   1.298516 A    
C15   H11   1.111936 S    
C55   C59   1.408028 A    
C57   H33   1.081791 S    
C68   C72   1.436051 A    
N18   O84   1.298449 A    
C14   H6    1.106948 S    
C19   N3    1.464670 S    
O11   P16   1.741279 S    
Ba1   Ba2   4.783844 S    
C53   C57   1.408387 A    
P4    Ba4   3.491009 S    
N39   O125  1.299788 A    
C56   C60   1.407090 A    
P1    O17   1.774937 S    
C18   N6    1.459857 S    
N29   O105  1.297785 A    
P3    O19   1.775303 S    
P4    O4    1.592138 D    
N4    O55   1.301070 A    
C60   H36   1.081829 S    
C42   C54   1.435534 A    
C27   N19   1.459325 S    
C12   H28   1.109938 S    
C35   C39   1.434435 A    
N3    O54   1.298358 A    
P11   C36   1.884196 S    
C65   C73   1.397694 A    
Ba1   O45   2.866144 S    
P9    C34   1.884130 S    
Ba3   O47   2.866144 S    
C29   H21   1.104226 S    
N5    O58   1.297973 A    
O7    Ba4   2.867485 S    
C80   H52   1.077701 S    
C72   C86   1.446921 A    
N11   O70   1.287857 A    
C3    N23   1.461510 S    
C16   C20   1.542369 S    
O23   P16   1.738160 S    
O3    Ba3   2.876233 S    
C73   H53   1.068576 S    
P2    O2    1.592138 D    
C4    C32   1.533682 S    
C43   C87   1.424597 A    
C21   N13   1.453095 S    
O13   P14   1.544408 D    
C79   C83   1.405136 A    
C26   N18   1.459733 S    
P5    O37   1.757380 S    
N12   O72   1.287946 A    
N13   O74   1.295355 A    
P7    O39   1.757735 S    
C46   C52   1.387500 A    
N17   O82   1.298037 A    
C81   C85   1.411955 A    
P12   O36   1.545642 D    
C1    C29   1.534112 S    
O27   Ba3   2.879697 S    
C84   C88   1.411573 A    
C63   C67   1.435957 A    
P6    Ba2   3.492141 S    
C62   C94   1.414196 A    
C11   H63   1.106389 S    
N21   O89   1.300821 A    
C14   C18   1.542101 S    
O39   C16   1.403458 S    
N22   O92   1.297033 A    
C76   H56   1.068272 S    
N9    O66   1.287822 A    
C38   C70   1.426946 A    
C31   H43   1.116216 S    
Ba2   O46   2.867046 S    
N15   O77   1.297940 A    
P2    O6    1.590534 S    
C23   N15   1.453467 S    
C5    C9    1.527340 S    
C47   C49   1.387214 A    
P1    Ba1   3.490590 S    
O9    Ba1   2.848088 S    
O21   C29   1.402115 S    
C29   H41   1.116176 S    
C33   C93   1.421406 A    
P9    O41   1.761905 S    
P10   O34   1.543859 D    
O23   C31   1.402026 S    
P3    C55   1.930485 S    
N26   O99   1.297130 A    
N28   O104  1.296381 A    
N40   O127  1.299752 A    
C19   N7    1.459868 S    
N1    O50   1.298557 A    
C8    C12   1.526210 S    
N33   O113  1.299146 A    
C1    N33   1.470870 S    
N7    O61   1.299828 A    
C36   C96   1.421481 A    
P6    O45   1.596417 S    
C4    N36   1.470013 S    
C18   H46   1.106411 S    
C5    H57   1.111248 S    
C25   H13   1.104812 S    
C32   H24   1.104672 S    
C23   N11   1.421341 S    
P7    Ba3   3.492572 S    
