data_mof_unit_27904.cif
_audit_creation_date              2012-12-10T16:44:41-0500
_audit_creation_method            fapswitch 2.2
_symmetry_space_group_name_H-M    P1
_symmetry_Int_Tables_number       1
_space_group_crystal_system       triclinic
_cell_length_a                    14.962375
_cell_length_b                    8.746331
_cell_length_c                    7.443442
_cell_angle_alpha                 102.727615
_cell_angle_beta                  93.955488
_cell_angle_gamma                 92.501805
_cell_volume                      946.159418881

loop_
_atom_site_label
_atom_site_type_symbol
_atom_type_description
_atom_site_fract_x
_atom_site_fract_y
_atom_site_fract_z
_atom_type_partial_charge
C1    C     C_R   0.498468 0.200549 0.454061 0.842433
C2    C     C_R   0.501532 0.799451 0.545939 0.842433
C3    C     C_R   0.033950 0.212146 0.426059 -0.185169
C4    C     C_R   0.966050 0.787854 0.573944 -0.185168
C5    C     C_2   0.507244 0.035087 0.429851 -0.038299
C6    C     C_2   0.492756 0.964913 0.570149 -0.038301
C7    C     C_R   0.329209 0.498747 0.502660 0.799345
C8    C     C_R   0.670790 0.501253 0.497340 0.799349
C9    C     C_R   0.818214 0.648051 0.531123 0.082074
C10   C     C_R   0.181785 0.351949 0.468868 0.082068
C11   C     C_R   0.766921 0.504154 0.491800 -0.082784
C12   C     C_R   0.233079 0.495846 0.508200 -0.082787
C13   C     C_R   0.807265 0.361161 0.453912 -0.265908
C14   C     C_R   0.192734 0.638838 0.546099 -0.265905
C15   C     C_R   0.900176 0.358520 0.457090 0.119084
C16   C     C_R   0.099823 0.641479 0.542921 0.119084
C17   C     C_R   0.953034 0.501418 0.497721 0.019942
C18   C     C_R   0.046965 0.498582 0.502287 0.019942
C19   C     C_R   0.912093 0.646991 0.534106 0.124067
C20   C     C_R   0.087907 0.353008 0.465896 0.124069
C21   C     C_R   0.940919 0.215081 0.421718 -0.220784
C22   C     C_R   0.059080 0.784917 0.578292 -0.220782
Cu1   Cu    Cu3+1 0.510010 0.517380 0.684380 0.957427
Cu2   Cu    Cu3+1 0.489990 0.482620 0.315620 0.957426
H1    H     H_    0.765993 0.252001 0.424664 0.136784
H2    H     H_    0.234007 0.747996 0.575352 0.136783
H3    H     H_    0.900741 0.104934 0.390645 0.152819
H4    H     H_    0.099260 0.895065 0.609367 0.152816
H5    H     H_    0.063219 0.099104 0.397603 0.178800
H6    H     H_    0.936782 0.900895 0.602398 0.178800
H7    H     H_    0.429906 0.378733 0.948765 0.238302
H8    H     H_    0.570094 0.621267 0.051235 0.238301
N1    N     N_2   0.474890 0.456420 0.038520 -0.209503
N2    N     N_2   0.525110 0.543580 0.961480 -0.209503
O1    O     O_R   0.506510 0.286130 0.619770 -0.555007
O2    O     O_R   0.493490 0.713870 0.380230 -0.555006
O3    O     O_R   0.489600 0.256770 0.308360 -0.602510
O4    O     O_R   0.510400 0.743230 0.691640 -0.602510
O5    O     O_R   0.378710 0.514640 0.655720 -0.586340
O6    O     O_R   0.621290 0.485360 0.344280 -0.586342
O7    O     O_R   0.361800 0.485290 0.344300 -0.578884
O8    O     O_R   0.638200 0.514710 0.655700 -0.578882
N3    N     N_3   0.775547 0.794555 0.568059 -0.619704
H9    H     H_    0.738603 0.799462 0.683184 0.226868
H10   H     H_    0.731081 0.797654 0.454365 0.215734
N4    N     N_3   0.224452 0.205447 0.431891 -0.619695
H11   H     H_    0.268928 0.202336 0.545567 0.215726
H12   H     H_    0.261386 0.200563 0.316756 0.226876
N5    N     N_3   0.537087 0.950916 0.257637 -0.588765
H13   H     H_    0.597783 0.005178 0.235653 0.204987
H14   H     H_    0.489527 0.958952 0.150954 0.234988
N6    N     N_3   0.462913 0.049084 0.742363 -0.588765
H15   H     H_    0.402218 0.994823 0.764347 0.204988
H16   H     H_    0.510474 0.041048 0.849046 0.234988

loop_
_geom_bond_atom_site_label_1
_geom_bond_atom_site_label_2
_ccdc_geom_bond_type
C10   N4    S    
C15   C21   A    
N3    H9    S    
H7    N1    S    
C15   C17   A    
C10   C20   A    
Cu1   O4    S    
C4    C22   A    
C2    O4    A    
Cu1   O1    S    
Cu2   N1    S    
C1    C5    S    
C1    O3    A    
Cu1   Cu2   S    
Cu1   N2    S    
C5    N5    S    
C13   C15   A    
Cu2   O3    S    
C21   H3    S    
C3    C20   A    
C22   H4    S    
C14   H2    S    
Cu2   O7    S    
N3    H10   S    
C13   H1    S    
Cu2   O2    S    
Cu1   O8    S    
C10   C12   A    
C8    C11   S    
Cu1   O5    S    
C9    C11   A    
C17   C19   A    
N6    H16   S    
C17   C18   A    
C18   C20   A    
C7    O7    A    
C5    C6    D    
C14   C16   A    
C7    C12   S    
C9    N3    S    
C3    C21   A    
N4    H12   S    
C6    N6    S    
C12   C14   A    
C11   C13   A    
N1    N2    D    
N6    H15   S    
C1    O1    A    
C16   C18   A    
N5    H13   S    
C2    O2    A    
C3    H5    S    
C7    O5    A    
N4    H11   S    
C16   C22   A    
C8    O6    A    
Cu2   O6    S    
C4    C19   A    
C9    C19   A    
C4    H6    S    
C2    C6    S    
C8    O8    A    
N5    H14   S    
H8    N2    S    
