data_mof_unit_22902.cif
_audit_creation_date              2012-12-10T18:11:42-0500
_audit_creation_method            fapswitch 2.2
_symmetry_space_group_name_H-M    P1
_symmetry_Int_Tables_number       1
_space_group_crystal_system       triclinic
_cell_length_a                    10.493979
_cell_length_b                    12.668032
_cell_length_c                    13.131177
_cell_angle_alpha                 82.232395
_cell_angle_beta                  90.643266
_cell_angle_gamma                 102.340688
_cell_volume                      1689.37036386

loop_
_atom_site_label
_atom_site_type_symbol
_atom_type_description
_atom_site_fract_x
_atom_site_fract_y
_atom_site_fract_z
_atom_type_partial_charge
C1    C     C_R   0.480005 0.438936 0.691039 0.927952
C2    C     C_3   0.059985 0.569342 0.417851 -0.198313
C3    C     C_3   0.986953 0.603039 0.505416 -0.151794
C4    C     C_3   0.878126 0.502721 0.498622 0.026582
C5    C     C_R   0.407752 0.700789 0.064184 -0.165159
C6    C     C_R   0.503287 0.596749 0.200163 -0.044832
C7    C     C_R   0.499592 0.301304 0.838331 -0.201320
C8    C     C_R   0.514648 0.274004 0.942944 -0.144983
C9    C     C_R   0.503284 0.347774 0.009891 -0.152140
C10   C     C_R   0.469110 0.448472 0.973189 0.013695
C11   C     C_R   0.433075 0.467357 0.869680 -0.052267
C12   C     C_R   0.742257 0.501082 0.499315 0.858736
C13   C     C_R   0.468192 0.530550 0.035998 0.070718
C14   C     C_R   0.413148 0.621542 0.000228 0.075278
C15   C     C_R   0.360183 0.630063 0.902682 -0.331506
C16   C     C_R   0.368439 0.553472 0.838237 0.600437
C17   C     C_R   0.521340 0.524814 0.133592 -0.226975
C18   C     C_R   0.450577 0.687323 0.164933 -0.208830
C19   C     C_R   0.464061 0.399793 0.800761 -0.091813
C20   C     C_R   0.316909 0.087778 0.349177 -0.305648
C21   C     C_R   0.638845 0.793047 0.639714 0.036194
C22   C     C_R   0.643250 0.885998 0.685410 -0.252604
C23   C     C_R   0.513400 0.560954 0.308944 0.837184
C24   C     C_R   0.578649 0.964752 0.639906 -0.184294
C25   C     C_R   0.517453 0.955134 0.543971 0.010027
C26   C     C_R   0.503663 0.853414 0.507216 0.248308
C27   C     C_R   0.462766 0.038448 0.486353 -0.058966
C28   C     C_R   0.377355 0.010367 0.404581 0.190366
C29   C     C_R   0.355117 0.905789 0.376915 -0.287238
C30   C     C_R   0.420286 0.829615 0.425684 -0.206320
C31   C     C_R   0.493450 0.149873 0.501097 0.063969
C32   C     C_R   0.344917 0.193830 0.371713 -0.017983
C33   C     C_R   0.257827 0.499381 0.499722 0.894982
C34   C     C_3   0.940649 0.432536 0.579598 -0.181928
C35   C     C_3   0.051900 0.532669 0.586423 -0.141344
C36   C     C_3   0.122208 0.498844 0.498966 0.025430
C37   C     C_3   0.013291 0.398648 0.491987 -0.130082
C38   C     C_3   0.948317 0.469149 0.410864 -0.166820
H1    H     H_    0.095889 0.558968 0.658389 0.209733
H2    H     H_    0.572365 0.461646 0.161970 0.141255
H3    H     H_    0.520262 0.247132 0.786613 0.161684
H4    H     H_    0.518219 0.322483 0.090094 0.129125
H5    H     H_    0.541095 0.197539 0.971809 0.138904
H6    H     H_    0.298601 0.254590 0.329840 0.141919
H7    H     H_    0.290139 0.883714 0.314804 0.146302
H8    H     H_    0.249724 0.066666 0.288175 0.145656
H9    H     H_    0.684399 0.729287 0.676604 0.133174
H10   H     H_    0.889669 0.378263 0.646922 0.157913
H11   H     H_    0.570987 0.028003 0.684959 0.150808
H12   H     H_    0.691762 0.894908 0.757920 0.151139
H13   H     H_    0.401493 0.751632 0.399580 0.199991
H14   H     H_    0.027583 0.315218 0.486597 0.150177
H15   H     H_    0.901450 0.443586 0.339332 0.136072
H16   H     H_    0.113501 0.624868 0.352109 0.129273
H17   H     H_    0.972564 0.686423 0.510896 0.152263
H18   H     H_    0.435923 0.743857 0.216263 0.142103
H19   H     H_    0.311860 0.696029 0.876165 0.174713
H20   H     H_    0.364858 0.770031 0.037905 0.133463
N1    N     N_R   0.432930 0.222190 0.444670 -0.120910
N2    N     N_R   0.566370 0.776980 0.554790 -0.129476
O1    O     O_R   0.467970 0.366730 0.627150 -0.623874
O2    O     O_R   0.510820 0.544830 0.662520 -0.576493
O3    O     O_R   0.664630 0.410960 0.482340 -0.608604
O4    O     O_R   0.707470 0.589060 0.517710 -0.635742
O5    O     O_R   0.489180 0.455170 0.337480 -0.619161
O6    O     O_R   0.532030 0.633270 0.372850 -0.643138
O7    O     O_R   0.292530 0.410940 0.482290 -0.633113
O8    O     O_R   0.335370 0.589040 0.517660 -0.592523
Zn1   Zn    Zn3+2 0.471390 0.381080 0.476380 0.945461
Zn2   Zn    Zn3+2 0.528610 0.618920 0.523620 0.958521
F1    F     F_    0.305125 0.560116 0.747846 -0.692631
C39   C     C_1   0.596669 0.193223 0.566704 0.220550
N3    N     N_1   0.679873 0.226987 0.619858 -0.251235

loop_
_geom_bond_atom_site_label_1
_geom_bond_atom_site_label_2
_ccdc_geom_bond_type
C30   H13   S    
C34   C37   S    
C35   C36   S    
C8    H5    S    
C1    O2    A    
C7    C8    A    
C11   C19   A    
C9    H4    S    
C29   C30   A    
C5    H20   S    
C23   O6    A    
C28   C29   A    
C12   O4    A    
O1    Zn1   S    
C15   C16   A    
C33   C36   S    
O2    Zn2   S    
C34   C35   S    
C31   N1    A    
C3    H17   S    
O3    Zn1   S    
C8    C9    A    
C3    C35   S    
C4    C12   S    
C9    C10   A    
C18   H18   S    
C22   H12   S    
C21   C22   A    
C15   H19   S    
C16   F1    S    
C6    C18   A    
C4    C34   S    
C1    C19   S    
C27   C31   A    
C24   C25   A    
C21   N2    A    
C2    H16   S    
C12   O3    A    
C5    C18   A    
C20   C28   A    
C25   C26   A    
C29   H7    S    
O7    Zn1   S    
C17   H2    S    
C35   H1    S    
O4    Zn2   S    
C37   C38   S    
C11   C16   A    
C2    C38   S    
N2    Zn2   S    
C32   H6    S    
C5    C14   A    
N1    Zn1   S    
C31   C39   S    
C4    C38   S    
C26   C30   A    
C7    C19   A    
C22   C24   A    
C34   H10   S    
C3    C4    S    
C33   O7    A    
C20   C32   A    
C2    C36   S    
C24   H11   S    
C37   H14   S    
C6    C17   A    
C36   C37   S    
C39   N3    T    
C10   C13   A    
C1    O1    A    
C25   C27   A    
C13   C17   A    
C23   O5    A    
C2    C3    S    
O6    Zn2   S    
C38   H15   S    
O5    Zn1   S    
C6    C23   S    
C7    H3    S    
C10   C11   A    
O8    Zn2   S    
C27   C28   A    
C14   C15   A    
C32   N1    A    
C13   C14   A    
C26   N2    A    
C20   H8    S    
C33   O8    A    
C21   H9    S    
