data_mof_unit_61361.cif
_audit_creation_date              2012-12-10T17:35:55-0500
_audit_creation_method            fapswitch 2.2
_symmetry_space_group_name_H-M    P1
_symmetry_Int_Tables_number       1
_space_group_crystal_system       triclinic
_cell_length_a                    24.405182
_cell_length_b                    24.405137
_cell_length_c                    27.683458
_cell_angle_alpha                 89.998497
_cell_angle_beta                  89.999507
_cell_angle_gamma                 90.003976
_cell_volume                      16488.5944865

loop_
_atom_site_label
_atom_site_type_symbol
_atom_type_description
_atom_site_fract_x
_atom_site_fract_y
_atom_site_fract_z
_atom_type_partial_charge
C1    C     C_1   1.000000 0.500001 0.569101 -0.124537
C2    C     C_1   0.999999 0.499999 0.474476 0.015492
C3    C     C_R   0.233135 0.315657 0.717418 -0.004577
C4    C     C_R   0.311768 0.770226 0.286276 0.012885
C5    C     C_R   0.683489 0.234055 0.718483 -0.004673
C6    C     C_R   0.228413 0.310329 0.287479 0.013152
C7    C     C_R   0.766767 0.684256 0.717534 -0.004572
C8    C     C_R   0.189659 0.271579 0.212523 0.013199
C9    C     C_R   0.815765 0.733253 0.782451 -0.004547
C10   C     C_R   0.270240 0.811758 0.213715 0.012916
C11   C     C_R   0.734047 0.183494 0.781522 -0.004663
C12   C     C_R   0.810334 0.728418 0.212524 0.013125
C13   C     C_1   0.500000 0.000000 0.525524 0.015523
C14   C     C_R   0.184363 0.266883 0.782595 -0.004607
C15   C     C_R   0.729324 0.188711 0.213308 0.013050
C16   C     C_R   0.266053 0.816413 0.781641 -0.004684
C17   C     C_R   0.188772 0.729262 0.786746 0.013060
C18   C     C_R   0.816471 0.265994 0.218434 -0.004695
C19   C     C_R   0.271574 0.189657 0.787476 0.013221
C20   C     C_R   0.733120 0.815638 0.217401 -0.004541
C21   C     C_R   0.811331 0.270639 0.786656 0.013015
C22   C     C_R   0.183131 0.734443 0.218953 -0.004644
C23   C     C_R   0.728551 0.810475 0.787365 0.013153
C24   C     C_1   0.500000 0.000001 0.474476 0.015565
C25   C     C_R   0.266887 0.184367 0.217389 -0.004472
C26   C     C_R   0.729573 0.770442 0.749993 -0.012408
C27   C     C_R   0.270686 0.229311 0.249997 0.020154
C28   C     C_R   0.770453 0.270458 0.750003 -0.012340
C29   C     C_R   0.229357 0.729344 0.249995 0.020053
C30   C     C_R   0.270439 0.229576 0.750007 -0.012407
C31   C     C_R   0.729314 0.770689 0.250004 0.020162
C32   C     C_R   0.229545 0.729550 0.749998 -0.012374
C33   C     C_R   0.770663 0.270663 0.250001 0.020085
C34   C     C_R   0.729546 0.229547 0.250000 -0.012359
C35   C     C_1   0.500000 0.000001 0.025524 0.015562
C36   C     C_R   0.270662 0.770667 0.749998 0.020101
C37   C     C_R   0.770431 0.729568 0.250002 -0.012403
C38   C     C_R   0.229322 0.270696 0.750006 0.020179
C39   C     C_R   0.270472 0.770460 0.249995 -0.012335
C40   C     C_R   0.729336 0.229342 0.750002 0.020088
C41   C     C_R   0.229566 0.270428 0.249999 -0.012414
C42   C     C_R   0.770693 0.729326 0.749993 0.020156
C43   C     C_R   0.687645 0.727688 0.678928 0.083821
C44   C     C_R   0.314323 0.273411 0.319664 0.034792
C45   C     C_R   0.726047 0.314090 0.680557 0.083802
C46   C     C_1   0.500000 0.999999 0.974476 0.015523
C47   C     C_R   0.276259 0.682972 0.316819 0.034950
C48   C     C_R   0.312134 0.272105 0.678725 0.083803
C49   C     C_R   0.685671 0.726577 0.319665 0.034811
C50   C     C_R   0.273735 0.686157 0.680325 0.083855
C51   C     C_R   0.724706 0.316123 0.317805 0.034918
C52   C     C_R   0.686016 0.273861 0.319543 0.083838
C53   C     C_R   0.315995 0.724850 0.682056 0.034906
C54   C     C_R   0.727925 0.687882 0.321296 0.083784
C55   C     C_R   0.273442 0.314361 0.680364 0.034812
C56   C     C_R   0.314947 0.725236 0.318599 0.083794
C57   C     C_1   0.000000 0.499999 0.025524 0.015492
C58   C     C_R   0.683786 0.275398 0.682295 0.034915
C59   C     C_R   0.272067 0.312101 0.321300 0.083767
C60   C     C_R   0.726338 0.685434 0.680579 0.034808
C61   C     C_R   0.187886 0.227926 0.178702 0.083789
C62   C     C_R   0.814595 0.773695 0.819395 0.034821
C63   C     C_R   0.225259 0.814928 0.181381 0.083815
C64   C     C_R   0.775384 0.183792 0.817714 0.034914
C65   C     C_R   0.812114 0.772077 0.178708 0.083756
C66   C     C_R   0.185667 0.226591 0.819660 0.034805
C67   C     C_R   0.773863 0.186021 0.180457 0.083839
C68   C     C_1   1.000000 0.499999 0.974476 0.015555
C69   C     C_R   0.224837 0.815999 0.817937 0.034909
C70   C     C_R   0.186145 0.773738 0.819667 0.083839
C71   C     C_R   0.816125 0.224711 0.182196 0.034916
C72   C     C_R   0.227917 0.187893 0.821298 0.083829
C73   C     C_R   0.773423 0.814333 0.180343 0.034797
C74   C     C_R   0.814074 0.226054 0.819455 0.083822
C75   C     C_R   0.182995 0.776241 0.183165 0.034939
C76   C     C_R   0.772334 0.812380 0.821049 0.083796
C77   C     C_R   0.226580 0.185673 0.180333 0.034809
C78   C     C_2   0.672021 0.879679 0.834342 0.440315
C79   C     C_R   1.000000 0.500000 0.879015 0.869793
C80   C     C_2   0.291535 0.084634 0.203630 0.371991
C81   C     C_2   0.881254 0.326328 0.833574 0.437759
C82   C     C_2   0.082908 0.710257 0.207474 0.371828
C83   C     C_2   0.328188 0.120488 0.834425 0.440506
C84   C     C_2   0.708521 0.915393 0.203690 0.371421
C85   C     C_2   0.118900 0.673483 0.833651 0.438034
C86   C     C_2   0.916566 0.290256 0.206266 0.371341
C87   C     C_2   0.673611 0.118787 0.166408 0.437820
C88   C     C_2   0.290340 0.916485 0.793919 0.371299
C89   C     C_2   0.879390 0.671739 0.165520 0.440888
C90   C     C_R   0.000000 0.500000 0.120984 0.869071
C91   C     C_2   0.084592 0.291432 0.796250 0.371488
C92   C     C_2   0.325520 0.882019 0.166820 0.436688
C93   C     C_2   0.709776 0.083391 0.793641 0.371541
C94   C     C_2   0.120550 0.328234 0.165550 0.440600
C95   C     C_2   0.915568 0.708692 0.795945 0.371480
C96   C     C_2   0.171745 0.379408 0.334468 0.440866
C97   C     C_2   0.791304 0.584449 0.704046 0.371562
C98   C     C_2   0.382002 0.825512 0.333189 0.436702
C99   C     C_2   0.583387 0.209787 0.706370 0.371409
C100  C     C_2   0.828243 0.620567 0.334461 0.440617
C101  C     C_R   0.500000 0.999999 0.879016 0.869313
C102  C     C_2   0.208560 0.415423 0.703752 0.371395
C103  C     C_2   0.618780 0.173608 0.333590 0.437823
C104  C     C_2   0.416481 0.790346 0.706075 0.371440
C105  C     C_2   0.173493 0.618887 0.666356 0.437955
C106  C     C_2   0.790259 0.416563 0.293740 0.371310
C107  C     C_2   0.379482 0.171806 0.665565 0.440602
C108  C     C_2   0.584628 0.791522 0.296357 0.371958
C109  C     C_2   0.826335 0.381243 0.666419 0.437834
C110  C     C_2   0.210257 0.582894 0.292518 0.371873
C111  C     C_2   0.620287 0.827970 0.665671 0.440214
C112  C     C_1   0.999999 0.499998 0.430899 -0.124659
C113  C     C_R   0.500000 0.000001 0.120984 0.869704
C114  C     C_2   0.415384 0.208513 0.296320 0.371424
C115  C     C_R   0.500000 0.000000 0.379015 0.869722
C116  C     C_R   0.500000 1.000000 0.620984 0.869304
C117  C     C_R   1.000000 0.499999 0.379016 0.869067
C118  C     C_R   0.000000 0.500000 0.620984 0.869798
C119  C     C_R   0.105740 0.605740 0.750000 0.986043
C120  C     C_R   0.894285 0.394285 0.250000 0.986717
C121  C     C_R   0.605745 0.894255 0.750001 0.985994
C122  C     C_R   0.394293 0.105710 0.250001 0.987094
C123  C     C_R   0.894260 0.394261 0.750000 0.986389
C124  C     C_1   0.500000 0.000000 0.569101 -0.124605
C125  C     C_R   0.105719 0.605718 0.250000 0.986082
C126  C     C_R   0.394255 0.105746 0.749999 0.985789
C127  C     C_R   0.605710 0.894293 0.249999 0.987114
C128  C     C_R   0.105746 0.394255 0.250001 0.986082
C129  C     C_R   0.894291 0.605710 0.750000 0.987133
C130  C     C_R   0.605740 0.105740 0.249999 0.986072
C131  C     C_R   0.394285 0.894286 0.750001 0.986749
C132  C     C_R   0.894255 0.605746 0.249998 0.986136
C133  C     C_R   0.105709 0.394292 0.750000 0.987289
C134  C     C_R   0.394263 0.894262 0.250001 0.986867
C135  C     C_1   0.500000 0.000000 0.430899 -0.124554
C136  C     C_R   0.605715 0.105716 0.749999 0.986582
C137  C     C_R   0.683749 0.847490 0.789752 -0.089363
C138  C     C_R   0.304150 0.140206 0.222666 -0.104632
C139  C     C_R   0.848331 0.315439 0.789230 -0.089525
C140  C     C_R   0.139172 0.696968 0.224455 -0.103725
C141  C     C_R   0.316362 0.152619 0.789823 -0.089366
C142  C     C_R   0.695865 0.859806 0.222683 -0.104299
C143  C     C_R   0.151761 0.684468 0.789289 -0.089473
C144  C     C_R   0.860508 0.303381 0.223878 -0.103857
C145  C     C_R   0.684530 0.151702 0.210750 -0.089501
C146  C     C_1   0.500000 0.000002 0.069101 -0.124559
C147  C     C_R   0.303433 0.860460 0.776209 -0.103869
C148  C     C_R   0.847346 0.683612 0.210161 -0.089302
C149  C     C_R   0.140188 0.304124 0.777296 -0.104437
C150  C     C_R   0.315040 0.848746 0.211042 -0.089568
C151  C     C_R   0.696648 0.139465 0.776074 -0.103918
C152  C     C_R   0.152637 0.316379 0.210169 -0.089390
C153  C     C_R   0.859912 0.695976 0.777146 -0.104339
C154  C     C_R   0.183612 0.347347 0.289837 -0.089296
C155  C     C_R   0.804032 0.640102 0.722846 -0.104395
C156  C     C_R   0.348747 0.815032 0.288957 -0.089551
C157  C     C_1   0.500000 0.999999 0.930899 -0.124604
C158  C     C_R   0.639462 0.196654 0.723928 -0.103829
C159  C     C_R   0.816384 0.652642 0.289834 -0.089404
C160  C     C_R   0.195883 0.359825 0.722709 -0.104379
C161  C     C_R   0.651698 0.184529 0.289249 -0.089506
C162  C     C_R   0.360457 0.803437 0.723790 -0.103968
C163  C     C_R   0.184469 0.651761 0.710710 -0.089486
C164  C     C_R   0.803382 0.360507 0.276126 -0.103834
C165  C     C_R   0.347379 0.183641 0.710180 -0.089351
C166  C     C_R   0.640204 0.804147 0.277330 -0.104626
C167  C     C_R   0.815438 0.348333 0.710771 -0.089512
C168  C     C_1   0.000000 0.499999 0.069101 -0.124659
C169  C     C_R   0.196974 0.639161 0.275539 -0.103750
C170  C     C_R   0.652506 0.816253 0.710247 -0.089380
C171  C     C_R   0.359801 0.195860 0.277321 -0.104286
C172  C     C_R   0.648082 0.851916 0.750000 -0.141899
C173  C     C_R   0.352030 0.147975 0.249998 -0.107476
C174  C     C_R   0.851932 0.351933 0.750000 -0.140905
C175  C     C_R   0.148005 0.648000 0.249999 -0.108167
C176  C     C_R   0.351914 0.148085 0.750000 -0.141980
C177  C     C_R   0.647976 0.852030 0.250001 -0.107466
C178  C     C_R   0.148069 0.648070 0.750000 -0.140998
C179  C     C_1   0.999999 0.500000 0.930898 -0.124539
C180  C     C_R   0.852010 0.352009 0.250002 -0.107857
C181  C     C_R   0.648067 0.148069 0.249999 -0.140906
C182  C     C_R   0.352010 0.852011 0.750001 -0.107806
C183  C     C_R   0.851914 0.648083 0.249998 -0.142078
C184  C     C_R   0.147974 0.352030 0.750000 -0.107410
C185  C     C_R   0.351941 0.851940 0.250001 -0.140536
C186  C     C_R   0.647992 0.147993 0.749999 -0.107890
C187  C     C_R   0.148083 0.351913 0.250002 -0.142086
C188  C     C_R   0.852027 0.647978 0.750000 -0.107499
C189  C     C_R   0.689535 0.771461 0.712623 0.013193
C190  C     C_1   1.000000 0.500001 0.525524 0.015556
C191  C     C_R   0.315632 0.233113 0.282602 -0.004535
C192  C     C_R   0.770635 0.311338 0.713350 0.012987
C193  C     C_R   0.234455 0.683116 0.281036 -0.004639
C194  C     C_R   0.310355 0.228439 0.712537 0.013191
C195  C     C_R   0.684367 0.766885 0.282609 -0.004486
C196  C     C_R   0.229260 0.688777 0.713250 0.013086
C197  C     C_R   0.765992 0.316470 0.281569 -0.004693
C198  C     C_R   0.688708 0.229323 0.286692 0.013051
C199  C     C_R   0.316409 0.766060 0.718355 -0.004674
C200  C     C_R   0.771581 0.689661 0.287478 0.013180
H1    H     H_    0.623131 0.686505 0.649999 0.207597
H2    H     H_    0.338979 0.276323 0.609294 0.203235
H3    H     H_    0.610780 0.709160 0.349435 0.185281
H4    H     H_    0.643230 0.766335 0.373208 0.226049
H5    H     H_    0.315449 0.620997 0.653182 0.207235
H6    H     H_    0.279650 0.657590 0.611531 0.203278
H7    H     H_    0.706459 0.391789 0.345589 0.185246
H8    H     H_    0.762984 0.360061 0.371248 0.226197
H9    H     H_    0.620790 0.315617 0.346512 0.207201
H10   H     H_    0.657302 0.279912 0.388281 0.203296
H11   H     H_    0.391604 0.706669 0.654117 0.185248
H12   H     H_    0.660568 0.723243 0.609578 0.203227
H13   H     H_    0.359822 0.763251 0.628608 0.226165
H14   H     H_    0.686834 0.623464 0.350495 0.207652
H15   H     H_    0.723714 0.661023 0.390724 0.203217
H16   H     H_    0.290867 0.389249 0.650591 0.185324
H17   H     H_    0.233661 0.356833 0.626850 0.226020
H18   H     H_    0.380603 0.683152 0.344329 0.206998
H19   H     H_    0.344690 0.718196 0.386923 0.203307
H20   H     H_    0.608077 0.293686 0.654624 0.185243
H21   H     H_    0.639775 0.237213 0.628848 0.226220
H22   H     H_    0.313149 0.376512 0.350517 0.207703
H23   H     H_    0.389204 0.290834 0.349450 0.185322
H24   H     H_    0.276264 0.338935 0.390734 0.203221
H25   H     H_    0.708812 0.610447 0.651054 0.185301
H26   H     H_    0.765934 0.642785 0.627072 0.226041
H27   H     H_    0.123473 0.186838 0.149493 0.207664
H28   H     H_    0.161039 0.223728 0.109271 0.203216
H29   H     H_    0.889601 0.791237 0.848876 0.185309
H30   H     H_    0.857267 0.734139 0.872912 0.226074
H31   H     H_    0.183187 0.880575 0.155617 0.207013
H32   H     H_    0.218245 0.844642 0.113045 0.203309
H33   H     H_    0.793668 0.108082 0.845390 0.185237
H34   H     H_    0.356772 0.233632 0.373195 0.226062
H35   H     H_    0.737191 0.139781 0.871160 0.226216
H36   H     H_    0.876536 0.813168 0.149515 0.207688
H37   H     H_    0.838975 0.776295 0.109281 0.203222
H38   H     H_    0.110797 0.209177 0.849472 0.185315
H39   H     H_    0.143213 0.266409 0.873162 0.225985
H40   H     H_    0.815620 0.120799 0.153484 0.207200
H41   H     H_    0.779916 0.157314 0.111718 0.203291
H42   H     H_    0.206649 0.891609 0.845869 0.185251
H43   H     H_    0.263228 0.859829 0.871386 0.226169
H44   H     H_    0.120976 0.815451 0.846796 0.207238
H45   H     H_    0.684251 0.379374 0.653747 0.207176
H46   H     H_    0.157562 0.779659 0.888456 0.203282
H47   H     H_    0.891791 0.206465 0.154408 0.185246
H48   H     H_    0.860066 0.262996 0.128755 0.226190
H49   H     H_    0.186821 0.123498 0.850532 0.207636
H50   H     H_    0.223720 0.161072 0.890738 0.203226
H51   H     H_    0.790849 0.889217 0.150561 0.185313
H52   H     H_    0.733649 0.856790 0.126814 0.226047
H53   H     H_    0.879347 0.184261 0.846289 0.207181
H54   H     H_    0.842902 0.219895 0.888148 0.203288
H55   H     H_    0.106930 0.794895 0.156456 0.185183
H56   H     H_    0.719876 0.342944 0.611872 0.203295
H57   H     H_    0.138307 0.738792 0.129750 0.226350
H58   H     H_    0.813510 0.876911 0.849956 0.207623
H59   H     H_    0.776794 0.839474 0.890393 0.203233
H60   H     H_    0.209167 0.110782 0.150564 0.185290
H61   H     H_    0.266337 0.143239 0.126783 0.226065
H62   H     H_    0.672940 0.859503 0.869268 0.072962
H63   H     H_    0.251780 0.066479 0.210743 0.075526
H64   H     H_    0.861757 0.324266 0.868760 0.073920
H65   H     H_    0.064986 0.749631 0.216434 0.074025
H66   H     H_    0.327457 0.140732 0.869324 0.072944
H67   H     H_    0.294915 0.606902 0.343516 0.185174
H68   H     H_    0.748307 0.933488 0.210781 0.075459
H69   H     H_    0.138469 0.675361 0.868814 0.073807
H70   H     H_    0.934484 0.250694 0.214566 0.074460
H71   H     H_    0.675581 0.138306 0.131226 0.073921
H72   H     H_    0.250760 0.934417 0.785706 0.074542
H73   H     H_    0.859094 0.672520 0.130645 0.072693
H74   H     H_    0.066547 0.251618 0.789179 0.075436
H75   H     H_    0.322876 0.862855 0.131522 0.074245
H76   H     H_    0.749308 0.065450 0.785267 0.074443
H77   H     H_    0.140821 0.327491 0.130664 0.072864
H78   H     H_    0.238820 0.638278 0.370237 0.226344
H79   H     H_    0.933657 0.748438 0.788669 0.075343
H80   H     H_    0.172496 0.359118 0.369346 0.072697
H81   H     H_    0.751542 0.566381 0.711298 0.075334
H82   H     H_    0.362833 0.822826 0.368483 0.074240
H83   H     H_    0.565451 0.249320 0.714746 0.074431
H84   H     H_    0.827485 0.640844 0.369343 0.072863
H85   H     H_    0.248357 0.433493 0.710847 0.075447
H86   H     H_    0.638296 0.175576 0.368773 0.073928
H87   H     H_    0.434416 0.750768 0.714288 0.074554
H88   H     H_    0.175356 0.638450 0.631189 0.073849
H89   H     H_    0.376546 0.313199 0.649520 0.207657
H90   H     H_    0.750700 0.434486 0.285438 0.074455
H91   H     H_    0.359223 0.172557 0.630674 0.072892
H92   H     H_    0.566484 0.751763 0.289246 0.075514
H93   H     H_    0.824250 0.361741 0.631236 0.073883
H94   H     H_    0.249628 0.564967 0.283554 0.074029
H95   H     H_    0.640446 0.827077 0.630737 0.073006
H96   H     H_    0.433483 0.248298 0.289229 0.075459
N1    N     N_3   0.643894 0.723449 0.644379 -0.453780
N2    N     N_3   0.354640 0.723929 0.642869 -0.471518
N3    N     N_3   0.723799 0.644240 0.355965 -0.453702
N4    N     N_3   0.273341 0.352008 0.640418 -0.471535
N5    N     N_3   0.360015 0.719801 0.351672 -0.454198
N6    N     N_3   0.645003 0.276476 0.643219 -0.471498
N7    N     N_3   0.276184 0.355731 0.355979 -0.453597
N8    N     N_3   0.726301 0.647654 0.640733 -0.471541
N9    N     N_3   0.144250 0.223805 0.144029 -0.453704
N10   N     N_3   0.852397 0.773761 0.859224 -0.471536
N11   N     N_3   0.219837 0.859982 0.148290 -0.454191
N12   N     N_3   0.351959 0.273309 0.359617 -0.471557
N13   N     N_3   0.776456 0.145008 0.856792 -0.471508
N14   N     N_3   0.855757 0.776204 0.144041 -0.453593
N15   N     N_3   0.148040 0.226718 0.859620 -0.471541
N16   N     N_3   0.778850 0.141460 0.146803 -0.454122
N17   N     N_3   0.223909 0.854645 0.857121 -0.471513
N18   N     N_3   0.141645 0.778665 0.853393 -0.454074
N19   N     N_3   0.854851 0.223706 0.143073 -0.471506
N20   N     N_3   0.223792 0.144270 0.855986 -0.453792
N21   N     N_3   0.773326 0.851973 0.140392 -0.471555
N22   N     N_3   0.858695 0.221020 0.853043 -0.454103
N23   N     N_3   0.721008 0.358723 0.646981 -0.454079
N24   N     N_3   0.143708 0.777852 0.144497 -0.471517
N25   N     N_3   0.776573 0.856140 0.855589 -0.453721
N26   N     N_3   0.226668 0.148033 0.140384 -0.471595
N27   N     N_3   0.277876 0.643679 0.355482 -0.471523
N28   N     N_3   0.355768 0.276235 0.644051 -0.453717
N29   N     N_3   0.648030 0.726664 0.359613 -0.471591
N30   N     N_3   0.278661 0.641665 0.646592 -0.454102
N31   N     N_3   0.723696 0.354849 0.356927 -0.471504
N32   N     N_3   0.641451 0.278847 0.353196 -0.454121
O1    O     O_3   0.000000 0.500000 0.750000 -0.517627
O2    O     O_R   0.954240 0.500000 0.143870 -0.630339
O3    O     O_R   0.500000 0.954240 0.856130 -0.630422
O4    O     O_R   0.500000 0.045760 0.143870 -0.630098
O5    O     O_R   0.454240 0.000000 0.356130 -0.630261
O6    O     O_R   0.545760 0.000000 0.643870 -0.630529
O7    O     O_R   0.000000 0.545760 0.356130 -0.630707
O8    O     O_R   0.000000 0.454240 0.643870 -0.630132
O9    O     O_R   0.545760 0.000000 0.356130 -0.630108
O10   O     O_R   0.454240 0.000000 0.643870 -0.630371
O11   O     O_R   0.000000 0.454240 0.356130 -0.630364
O12   O     O_3   1.000000 0.500000 0.250000 -0.517203
O13   O     O_R   0.000000 0.545760 0.643870 -0.630262
O14   O     O_R   0.110440 0.564520 0.777740 -0.634013
O15   O     O_R   0.889560 0.435480 0.222260 -0.632387
O16   O     O_R   0.564520 0.889560 0.777740 -0.633907
O17   O     O_R   0.435480 0.110440 0.222260 -0.631632
O18   O     O_R   0.889560 0.435480 0.777740 -0.633913
O19   O     O_R   0.110440 0.564520 0.222260 -0.632613
O20   O     O_R   0.435480 0.110440 0.777740 -0.633957
O21   O     O_R   0.564520 0.889560 0.222260 -0.631596
O22   O     O_R   0.110440 0.435480 0.222260 -0.633744
O23   O     O_3   0.500000 0.000000 0.750000 -0.517274
O24   O     O_R   0.889560 0.564520 0.777740 -0.631721
O25   O     O_R   0.564520 0.110440 0.222260 -0.634014
O26   O     O_R   0.435480 0.889560 0.777740 -0.632318
O27   O     O_R   0.889560 0.564520 0.222260 -0.633963
O28   O     O_R   0.110440 0.435480 0.777740 -0.631714
O29   O     O_R   0.435480 0.889560 0.222260 -0.633825
O30   O     O_R   0.564520 0.110440 0.777740 -0.632399
O31   O     O_R   0.610440 0.064520 0.277740 -0.634007
O32   O     O_R   0.389560 0.935480 0.722260 -0.632341
O33   O     O_R   0.064520 0.389560 0.277740 -0.633988
O34   O     O_3   0.500000 0.000000 0.250000 -0.517681
O35   O     O_R   0.935480 0.610440 0.722260 -0.631787
O36   O     O_R   0.389560 0.935480 0.277740 -0.633765
O37   O     O_R   0.610440 0.064520 0.722260 -0.632381
O38   O     O_R   0.935480 0.610440 0.277740 -0.633735
O39   O     O_R   0.064520 0.389560 0.722260 -0.631638
O40   O     O_R   0.610440 0.935480 0.722260 -0.633919
O41   O     O_R   0.389560 0.064520 0.277740 -0.631604
O42   O     O_R   0.064520 0.610440 0.722260 -0.634004
O43   O     O_R   0.935480 0.389560 0.277740 -0.632367
O44   O     O_R   0.389560 0.064520 0.722260 -0.633964
O45   O     O_R   0.954240 0.500000 0.856130 -0.630241
O46   O     O_R   0.610440 0.935480 0.277740 -0.631634
O47   O     O_R   0.935480 0.389560 0.722260 -0.633911
O48   O     O_R   0.064520 0.610440 0.277740 -0.632620
O49   O     O_2   0.662577 0.928777 0.832565 -0.544092
O50   O     O_2   0.324977 0.059117 0.179742 -0.540532
O51   O     O_2   0.930209 0.336358 0.831293 -0.545135
O52   O     O_2   0.056552 0.677797 0.183239 -0.540773
O53   O     O_2   0.337505 0.071364 0.832689 -0.544259
O54   O     O_2   0.675080 0.940992 0.179869 -0.540973
O55   O     O_2   0.069917 0.663577 0.831411 -0.545003
O56   O     O_R   0.045760 0.500000 0.143870 -0.630727
O57   O     O_2   0.942754 0.323055 0.182244 -0.541146
O58   O     O_2   0.663659 0.069816 0.168685 -0.545195
O59   O     O_2   0.323185 0.942633 0.817924 -0.541183
O60   O     O_2   0.928500 0.662335 0.167194 -0.543700
O61   O     O_2   0.058930 0.324870 0.820021 -0.540934
O62   O     O_2   0.335860 0.930893 0.169330 -0.545131
O63   O     O_2   0.677011 0.057215 0.817708 -0.540959
O64   O     O_2   0.071430 0.337579 0.167256 -0.544183
O65   O     O_2   0.941234 0.675343 0.819812 -0.540899
O66   O     O_2   0.162378 0.428524 0.332781 -0.543660
O67   O     O_R   0.500000 0.045760 0.856130 -0.630474
O68   O     O_2   0.824658 0.558763 0.680203 -0.540828
O69   O     O_2   0.430867 0.835901 0.330693 -0.545148
O70   O     O_2   0.557201 0.177025 0.682309 -0.541087
O71   O     O_2   0.837611 0.571450 0.332765 -0.544214
O72   O     O_2   0.175126 0.441061 0.679955 -0.541008
O73   O     O_2   0.569809 0.163658 0.331312 -0.545204
O74   O     O_2   0.442623 0.823193 0.682064 -0.541046
O75   O     O_2   0.163612 0.569900 0.668608 -0.545141
O76   O     O_2   0.823057 0.442745 0.317766 -0.541169
O77   O     O_2   0.428602 0.162461 0.667281 -0.544131
O78   O     O_R   0.500000 0.954240 0.143870 -0.630286
O79   O     O_2   0.559097 0.824963 0.320234 -0.540547
O80   O     O_2   0.836397 0.430192 0.668688 -0.545010
O81   O     O_2   0.177796 0.556540 0.316755 -0.540743
O82   O     O_2   0.571183 0.837376 0.667470 -0.544207
O83   O     O_2   0.440974 0.175071 0.320147 -0.540974
O84   O     O_R   0.045760 0.500000 0.856130 -0.630156
Zn1   Zn    Zn3+2 0.000000 0.565500 0.710070 1.076234
Zn2   Zn    Zn3+2 0.500000 0.934500 0.789930 1.075741
Zn3   Zn    Zn3+2 0.065500 0.500000 0.210070 1.075395
Zn4   Zn    Zn3+2 0.934500 0.500000 0.789930 1.076346
Zn5   Zn    Zn3+2 0.500000 0.934500 0.210070 1.076458
Zn6   Zn    Zn3+2 0.500000 0.065500 0.789930 1.075615
Zn7   Zn    Zn3+2 0.934500 0.500000 0.210070 1.075681
Zn8   Zn    Zn3+2 0.065500 0.500000 0.789930 1.076322
Zn9   Zn    Zn3+2 0.000000 0.434500 0.289930 1.075667
Zn10  Zn    Zn3+2 0.565500 0.000000 0.710070 1.075634
Zn11  Zn    Zn3+2 0.434500 1.000000 0.289930 1.076494
Zn12  Zn    Zn3+2 0.000000 0.434500 0.710070 1.076447
Zn13  Zn    Zn3+2 0.000000 0.565500 0.289930 1.075404
Zn14  Zn    Zn3+2 0.434500 0.000000 0.710070 1.075705
Zn15  Zn    Zn3+2 0.565500 1.000000 0.289930 1.076386
Zn16  Zn    Zn3+2 0.500000 0.065500 0.210070 1.076383

loop_
_geom_bond_atom_site_label_1
_geom_bond_atom_site_label_2
_ccdc_geom_bond_type
C89   C148  S    
O15   Zn7   S    
O10   Zn14  S    
C22   C29   A    
O34   Zn15  S    
C10   C63   A    
C32   C196  A    
C150  C185  A    
H39   N15   S    
H40   N16   S    
C156  C185  A    
C171  C173  A    
C131  O26   A    
C129  O24   A    
C102  H85   S    
O1    Zn8   S    
C104  C162  S    
O2    Zn7   S    
H30   N10   S    
H41   N16   S    
C28   C40   A    
C94   C152  S    
C121  O40   A    
H21   N6    S    
C30   C38   A    
C143  C178  A    
C128  O22   A    
C134  O36   A    
C82   C140  S    
O12   Zn9   S    
C51   C197  A    
C136  O30   A    
C113  O78   A    
C66   C72   A    
C100  O71   D    
C133  O39   A    
H31   N11   S    
C1    C190  T    
C43   N1    S    
C19   C141  A    
C4    C56   A    
O45   Zn4   S    
C89   H73   S    
C80   H63   S    
O13   Zn1   S    
C152  C187  A    
H28   N9    S    
C83   H66   S    
C98   C156  S    
C103  C161  S    
C105  H88   S    
C51   C52   A    
C107  O77   D    
H23   N12   S    
C93   H76   S    
H12   N1    S    
C102  C160  S    
C91   C149  S    
C13   C124  T    
C169  C193  A    
C49   C195  A    
C88   O59   D    
C136  O37   A    
C31   C37   A    
C95   C153  S    
C113  C146  S    
C14   C38   A    
C133  C184  S    
H50   N20   S    
C84   C142  S    
C56   N5    S    
O30   Zn6   S    
H15   N3    S    
C100  H84   S    
C163  C178  A    
O28   Zn8   S    
C166  C177  A    
C80   O50   D    
C167  C174  A    
O3    Zn2   S    
C159  C200  A    
O24   Zn4   S    
C21   C28   A    
C122  O41   A    
C79   C179  S    
O14   Zn8   S    
C21   C139  A    
C63   C75   A    
C117  O11   A    
C123  C174  S    
C164  C197  A    
C154  C187  A    
O20   Zn6   S    
C18   C71   A    
C108  C166  S    
C136  C186  S    
C47   C193  A    
C73   N21   S    
C2    C190  S    
O17   Zn16  S    
C94   O64   D    
C61   N9    S    
C111  C170  S    
C31   C195  A    
C109  H93   S    
C163  C196  A    
C83   O53   D    
C29   C193  A    
C14   C149  A    
C20   C73   A    
C82   H65   S    
C69   C70   A    
C142  C177  A    
C110  C169  S    
C5    C158  A    
C67   N16   S    
C17   C32   A    
C115  O9    A    
O39   Zn12  S    
C19   C30   A    
O47   Zn12  S    
C45   N23   S    
C117  O7    A    
H37   N14   S    
C151  C186  A    
C107  C165  S    
H24   N7    S    
C22   C140  A    
C128  C187  S    
C36   C199  A    
C23   C76   A    
H9    N32   S    
H46   N18   S    
C57   C168  T    
C48   N28   S    
O1    Zn4   S    
H42   N17   S    
C102  O72   D    
C161  C198  A    
C32   C36   A    
C8    C152  A    
C96   H80   S    
C132  C183  S    
C131  C182  S    
C85   O55   D    
C44   C59   A    
H48   N19   S    
C145  C181  A    
C114  O83   D    
C132  O27   A    
C3    C55   A    
C144  C180  A    
C61   C77   A    
C149  C184  A    
C86   O57   D    
C122  O17   A    
O16   Zn2   S    
O43   Zn9   S    
H13   N2    S    
C9    C153  A    
C78   H62   S    
C53   N2    S    
O1    Zn12  S    
C64   N13   S    
C79   O45   A    
O36   Zn11  S    
H34   N12   S    
O35   Zn1   S    
C26   C189  A    
H67   N27   S    
C59   N7    S    
C115  O5    A    
C114  C171  S    
C60   N8    S    
C111  O82   D    
C96   C154  S    
C111  H95   S    
C53   C199  A    
C69   N17   S    
C8    C41   A    
O12   Zn13  S    
O23   Zn6   S    
C83   C141  S    
H8    N31   S    
C130  O25   A    
O42   Zn1   S    
C97   H81   S    
C34   C198  A    
C99   O70   D    
C15   C67   A    
C123  O47   A    
C89   O60   D    
C11   C151  A    
H35   N13   S    
H38   N15   S    
H43   N17   S    
C5    C40   A    
C57   C68   S    
C105  O75   D    
C78   C137  S    
C106  O76   D    
C26   C42   A    
O78   Zn5   S    
C90   C168  S    
C79   O84   A    
O34   Zn16  S    
C6    C59   A    
C91   H74   S    
C130  C181  S    
C118  O8    A    
C68   C179  T    
O29   Zn5   S    
C16   C36   A    
H60   N26   S    
C108  H92   S    
C100  C159  S    
C51   N31   S    
C129  O35   A    
C148  C183  A    
C80   C138  S    
C125  O19   A    
C47   N27   S    
O9    Zn15  S    
C84   O54   D    
C11   C40   A    
C18   C33   A    
H78   N27   S    
H14   N3    S    
C121  C172  S    
O84   Zn8   S    
C132  O38   A    
C139  C174  A    
H33   N13   S    
C74   N22   S    
H44   N18   S    
O8    Zn12  S    
C47   C56   A    
C48   C55   A    
C114  H96   S    
O22   Zn3   S    
C52   N32   S    
O23   Zn2   S    
H26   N8    S    
C91   O61   D    
H58   N25   S    
C165  C194  A    
C85   C143  S    
C75   N24   S    
C86   C144  S    
C37   C200  A    
C165  C176  A    
C110  H94   S    
C170  C189  A    
C2    C112  T    
C130  O31   A    
C16   C147  A    
H4    N29   S    
C106  H90   S    
C98   O69   D    
C112  C117  S    
H32   N11   S    
C76   N25   S    
H1    N1    S    
O1    Zn1   S    
C84   H68   S    
C23   C26   A    
C85   H69   S    
C12   C37   A    
H54   N22   S    
C137  C172  A    
H29   N10   S    
C50   C196  A    
O12   Zn3   S    
C120  O43   A    
C131  O32   A    
C141  C176  A    
C105  C163  S    
C106  C164  S    
C121  O16   A    
C15   C34   A    
H55   N24   S    
C164  C180  A    
H56   N23   S    
O34   Zn5   S    
C50   N30   S    
C101  C157  S    
C127  O46   A    
C62   C76   A    
H59   N25   S    
C158  C186  A    
C123  O18   A    
H47   N19   S    
C45   C58   A    
O6    Zn10  S    
C50   C53   A    
H7    N31   S    
C113  O4    A    
C128  O33   A    
C90   O56   A    
C72   N20   S    
H20   N6    S    
C162  C199  A    
C10   C39   A    
C35   C146  T    
C127  C177  S    
C7    C42   A    
O56   Zn3   S    
C45   C192  A    
O31   Zn15  S    
O21   Zn5   S    
C138  C173  A    
C101  O67   A    
C63   N11   S    
C92   H75   S    
H18   N5    S    
C58   N6    S    
O27   Zn7   S    
C5    C58   A    
C87   O58   D    
C4    C156  A    
C126  O20   A    
H27   N9    S    
C92   C150  S    
C93   C151  S    
C25   C27   A    
C70   N18   S    
O23   Zn10  S    
C7    C60   A    
C119  O14   A    
O32   Zn14  S    
C81   C139  S    
C87   C145  S    
C48   C194  A    
O67   Zn6   S    
C116  O6    A    
H61   N26   S    
C90   O2    A    
C98   H82   S    
C153  C188  A    
H51   N21   S    
C12   C65   A    
C97   O68   D    
C17   C143  A    
O34   Zn11  S    
C44   N12   S    
C18   C144  A    
C120  C180  S    
C49   N29   S    
C10   C150  A    
C120  O15   A    
C12   C148  A    
C30   C194  A    
C170  C172  A    
O46   Zn15  S    
C140  C175  A    
C82   O52   D    
C88   C147  S    
C67   C71   A    
C97   C155  S    
C126  O44   A    
H2    N28   S    
C95   O65   D    
O37   Zn10  S    
O38   Zn13  S    
C7    C155  A    
C129  C188  S    
C64   C74   A    
C35   C46   S    
C54   N3    S    
C147  C182  A    
C62   N10   S    
H10   N32   S    
H16   N4    S    
C108  O79   D    
C65   C73   A    
C167  C192  A    
O11   Zn9   S    
C9    C42   A    
O25   Zn16  S    
C115  C135  S    
C25   C77   A    
C162  C182  A    
C118  O13   A    
C65   N14   S    
C44   C191  A    
O48   Zn13  S    
C49   C54   A    
C54   C200  A    
C103  O73   D    
O4    Zn16  S    
C125  O48   A    
C109  C167  S    
C87   H71   S    
C88   H72   S    
C116  C124  S    
O26   Zn2   S    
C3    C38   A    
C93   O63   D    
C6    C41   A    
C77   N26   S    
H53   N22   S    
C119  C178  S    
H45   N23   S    
O19   Zn3   S    
H36   N14   S    
C8    C61   A    
C17   C70   A    
H25   N8    S    
C161  C181  A    
C134  C185  S    
C19   C72   A    
C27   C191  A    
C22   C75   A    
C28   C192  A    
C107  H91   S    
H3    N29   S    
C169  C175  A    
C92   O62   D    
C95   H79   S    
O44   Zn14  S    
C9    C62   A    
C20   C142  A    
C166  C195  A    
C86   H70   S    
C11   C64   A    
C134  O29   A    
C15   C145  A    
H6    N30   S    
C46   C157  T    
C21   C74   A    
C13   C24   S    
C103  H86   S    
C27   C41   A    
C4    C39   A    
C33   C197  A    
O40   Zn10  S    
C29   C39   A    
C33   C34   A    
C14   C66   A    
C6    C154  A    
O12   Zn7   S    
C43   C60   A    
C81   O51   D    
C24   C135  T    
H11   N2    S    
C96   O66   D    
C3    C160  A    
C119  O42   A    
C125  C175  S    
H57   N24   S    
C126  C176  S    
H19   N5    S    
C101  O3    A    
C78   O49   D    
C155  C188  A    
C23   C137  A    
C16   C69   A    
H17   N4    S    
O41   Zn11  S    
C66   N15   S    
O5    Zn11  S    
C122  C173  S    
H5    N30   S    
C133  O28   A    
H22   N7    S    
O7    Zn13  S    
H49   N20   S    
C25   C138  A    
C94   H77   S    
H52   N21   S    
O33   Zn9   S    
C1    C118  S    
O18   Zn4   S    
C171  C191  A    
O23   Zn14  S    
C104  H87   S    
C104  O74   D    
C55   N4    S    
C109  O80   D    
C52   C198  A    
C43   C189  A    
C81   H64   S    
C99   C158  S    
C110  O81   D    
C127  O21   A    
C116  O10   A    
C159  C183  A    
C160  C184  A    
H89   N28   S    
C71   N19   S    
C20   C31   A    
C99   H83   S    
