data_mof_unit_64755.cif
_audit_creation_date              2012-12-10T20:18:32-0500
_audit_creation_method            fapswitch 2.2
_symmetry_space_group_name_H-M    P1
_symmetry_Int_Tables_number       1
_space_group_crystal_system       triclinic
_cell_length_a                    35.57635
_cell_length_b                    35.576026
_cell_length_c                    29.138974
_cell_angle_alpha                 90.000895
_cell_angle_beta                  89.999424
_cell_angle_gamma                 89.999771
_cell_volume                      36880.1839672

loop_
_atom_site_label
_atom_site_type_symbol
_atom_type_description
_atom_site_fract_x
_atom_site_fract_y
_atom_site_fract_z
_atom_type_partial_charge
C1    C     C_R   1.000000 0.426737 0.500000 0.877913
C2    C     C_R   0.426647 0.000000 0.499999 0.884673
C3    C     C_R   1.000000 0.573265 0.500000 0.878059
C4    C     C_R   0.573353 0.000000 0.500001 0.884714
C5    C     C_R   0.500000 0.926646 0.000001 0.884699
C6    C     C_R   0.926736 0.500000 0.000000 0.877960
C7    C     C_R   0.500000 0.073354 0.999999 0.884661
C8    C     C_R   0.073265 0.500000 0.000000 0.878062
C9    C     C_1   0.999999 0.233305 0.500002 0.073798
C10   C     C_1   0.233483 0.000016 0.499978 0.075872
C11   C     C_1   0.999998 0.766700 0.499997 0.073759
C12   C     C_1   0.766516 0.000011 0.500029 0.075923
C13   C     C_1   0.500012 0.733481 0.000005 0.075911
C14   C     C_1   0.733304 0.500000 0.000001 0.073777
C15   C     C_1   0.500010 0.266517 0.999997 0.075857
C16   C     C_1   0.266700 0.500003 0.999997 0.073732
C17   C     C_1   0.999999 0.266963 0.500002 -0.000277
C18   C     C_1   0.267004 0.000012 0.499972 0.002747
C19   C     C_1   0.999998 0.733042 0.499997 -0.000317
C20   C     C_1   0.732996 0.000007 0.500035 0.002812
C21   C     C_1   0.500009 0.767001 0.000008 0.002827
C22   C     C_1   0.766962 0.500000 0.000001 -0.000300
C23   C     C_1   0.500008 0.232997 0.999996 0.002744
C24   C     C_1   0.233042 0.500003 0.999997 -0.000333
C25   C     C_R   0.028090 0.327064 0.524070 0.011553
C26   C     C_R   0.326709 0.965732 0.502306 0.009557
C27   C     C_R   0.971738 0.672942 0.523776 0.011430
C28   C     C_R   0.673286 0.034275 0.502045 0.009649
C29   C     C_R   0.028260 0.672941 0.476220 0.011432
C30   C     C_R   0.326715 0.034279 0.497642 0.009554
C31   C     C_R   0.971910 0.327063 0.475931 0.011551
C32   C     C_R   0.673292 0.965731 0.498016 0.009647
C33   C     C_R   0.534291 0.826710 0.001886 0.009625
C34   C     C_R   0.827063 0.471864 0.023986 0.011520
C35   C     C_R   0.465726 0.173291 0.002302 0.009543
C36   C     C_R   0.172940 0.528264 0.023775 0.011429
C37   C     C_R   0.534283 0.173288 0.997691 0.009530
C38   C     C_R   0.827063 0.528135 0.976014 0.011524
C39   C     C_R   0.465719 0.826707 0.998128 0.009633
C40   C     C_R   0.172941 0.471739 0.976221 0.011429
C41   C     C_R   0.028207 0.366231 0.523336 -0.225220
C42   C     C_R   0.365836 0.965922 0.502266 -0.223333
C43   C     C_R   0.971629 0.633776 0.523044 -0.225199
C44   C     C_R   0.634159 0.034080 0.501988 -0.223366
C45   C     C_R   0.028370 0.633775 0.476954 -0.225203
C46   C     C_R   0.365842 0.034084 0.497702 -0.223333
C47   C     C_R   0.971793 0.366230 0.476665 -0.225217
C48   C     C_R   0.634164 0.965922 0.498048 -0.223359
C49   C     C_R   0.534096 0.865837 0.001842 -0.223315
C50   C     C_R   0.866229 0.471749 0.023251 -0.225219
C51   C     C_R   0.465916 0.134164 0.002252 -0.223322
C52   C     C_R   0.133775 0.528374 0.023042 -0.225197
C53   C     C_R   0.534089 0.134161 0.997742 -0.223307
C54   C     C_R   0.866229 0.528251 0.976749 -0.225221
C55   C     C_R   0.465910 0.865834 0.998168 -0.223326
C56   C     C_R   0.133776 0.471628 0.976956 -0.225198
C57   C     C_R   0.000000 0.385809 0.500000 -0.061591
C58   C     C_R   0.385555 0.000002 0.499990 -0.073286
C59   C     C_R   1.000000 0.614195 0.499999 -0.061853
C60   C     C_R   0.614446 0.000001 0.500011 -0.073412
C61   C     C_R   0.500002 0.885552 0.000004 -0.073380
C62   C     C_R   0.885809 0.500000 0.000000 -0.061682
C63   C     C_R   0.500001 0.114447 0.999997 -0.073264
C64   C     C_R   0.114194 0.500000 1.000000 -0.061855
C65   C     C_R   1.000000 0.307259 0.500001 0.040838
C66   C     C_R   0.307094 0.000008 0.499971 0.045828
C67   C     C_R   0.999999 0.692746 0.499998 0.040909
C68   C     C_R   0.692906 0.000004 0.500035 0.045789
C69   C     C_R   0.500007 0.807091 0.000008 0.045845
C70   C     C_R   0.807258 0.500000 0.000000 0.040836
C71   C     C_R   0.500006 0.192907 0.999996 0.045848
C72   C     C_R   0.192746 0.500002 0.999997 0.040907
C73   C     C_R   0.073948 0.000002 0.500000 0.917096
C74   C     C_R   1.000000 0.926215 0.499999 0.919292
C75   C     C_R   0.926051 0.000003 0.500000 0.917091
C76   C     C_R   0.000000 0.073786 0.500000 0.919233
C77   C     C_R   0.573786 0.500000 1.000000 0.919235
C78   C     C_R   0.500001 0.426052 0.000000 0.917090
C79   C     C_R   0.426215 0.500000 0.000000 0.919275
C80   C     C_R   0.500001 0.573948 1.000000 0.917098
C81   C     C_R   0.000000 0.500000 0.414178 0.881457
C82   C     C_R   0.500000 1.000000 0.414178 0.886200
C83   C     C_R   1.000000 0.500000 0.585822 0.881457
C84   C     C_R   0.500000 0.000000 0.585822 0.886200
C85   C     C_R   0.500000 1.000000 0.914179 0.886199
C86   C     C_R   1.000000 0.500000 0.914178 0.881479
C87   C     C_R   0.500000 1.000000 0.085821 0.886198
C88   C     C_R   1.000000 0.500000 0.085822 0.881478
C89   C     C_1   0.000000 0.500000 0.363383 -0.190319
C90   C     C_1   0.500000 0.999999 0.363383 -0.188706
C91   C     C_1   0.999999 0.500000 0.636617 -0.190320
C92   C     C_1   0.500000 0.000001 0.636617 -0.188706
C93   C     C_1   0.500000 0.000000 0.863383 -0.188704
C94   C     C_1   1.000000 0.499999 0.863383 -0.190319
C95   C     C_1   0.499999 1.000000 0.136617 -0.188704
C96   C     C_1   0.000000 0.500001 0.136617 -0.190320
C97   C     C_1   0.000000 0.500000 0.321090 0.016181
C98   C     C_1   0.500000 0.999999 0.321089 0.018207
C99   C     C_1   0.999999 0.499999 0.678910 0.016181
C100  C     C_1   0.500000 0.000001 0.678911 0.018207
C101  C     C_1   0.500001 0.000000 0.821090 0.018208
C102  C     C_1   1.000000 0.499999 0.821090 0.016183
C103  C     C_1   0.499999 0.999999 0.178910 0.018207
C104  C     C_1   0.000000 0.500001 0.178910 0.016183
C105  C     C_1   0.000000 0.500000 0.271146 0.020921
C106  C     C_1   0.499999 0.999999 0.271146 0.022657
C107  C     C_1   0.999999 0.499999 0.728854 0.020921
C108  C     C_1   0.500000 0.000001 0.728854 0.022657
C109  C     C_1   0.500001 0.000000 0.771146 0.022657
C110  C     C_1   0.999999 0.499999 0.771146 0.020922
C111  C     C_1   0.499999 0.999999 0.228854 0.022657
C112  C     C_1   0.000000 0.500001 0.228854 0.020922
C113  C     C_R   0.033451 0.173662 0.509712 0.138855
C114  C     C_R   0.174266 0.977388 0.531584 0.133683
C115  C     C_R   0.966525 0.826345 0.509577 0.138854
C116  C     C_R   0.825743 0.022642 0.531606 0.133692
C117  C     C_R   0.033472 0.826344 0.490415 0.138853
C118  C     C_R   0.174255 0.022654 0.468407 0.133689
C119  C     C_R   0.966548 0.173662 0.490292 0.138854
C120  C     C_R   0.825733 0.977390 0.468413 0.133689
C121  C     C_R   0.522683 0.674257 0.031547 0.133718
C122  C     C_R   0.673660 0.466549 0.009722 0.138851
C123  C     C_R   0.477355 0.325738 0.031571 0.133694
C124  C     C_R   0.326345 0.533478 0.009607 0.138856
C125  C     C_R   0.522668 0.325740 0.968435 0.133701
C126  C     C_R   0.673659 0.533453 0.990282 0.138851
C127  C     C_R   0.477344 0.674262 0.968449 0.133711
C128  C     C_R   0.326345 0.466527 0.990387 0.138856
C129  C     C_R   0.033271 0.134298 0.510530 -0.080242
C130  C     C_R   0.134942 0.977363 0.531690 -0.078244
C131  C     C_R   0.966708 0.865708 0.510416 -0.080254
C132  C     C_R   0.865066 0.022663 0.531698 -0.078259
C133  C     C_R   0.033289 0.865707 0.489577 -0.080249
C134  C     C_R   0.134932 0.022675 0.468316 -0.078260
C135  C     C_R   0.966728 0.134298 0.489474 -0.080247
C136  C     C_R   0.865056 0.977368 0.468300 -0.078239
C137  C     C_R   0.522699 0.634933 0.031650 -0.078268
C138  C     C_R   0.634297 0.466733 0.010553 -0.080261
C139  C     C_R   0.477338 0.365061 0.031681 -0.078261
C140  C     C_R   0.365707 0.533289 0.010457 -0.080266
C141  C     C_R   0.522682 0.365064 0.968328 -0.078284
C142  C     C_R   0.634297 0.533268 0.989451 -0.080255
C143  C     C_R   0.477324 0.634938 0.968341 -0.078246
C144  C     C_R   0.365707 0.466714 0.989538 -0.080272
C145  C     C_R   1.000000 0.114725 0.500002 -0.189617
C146  C     C_R   0.115141 0.000013 0.500002 -0.192799
C147  C     C_R   0.999999 0.885279 0.499998 -0.189605
C148  C     C_R   0.884858 0.000011 0.499999 -0.192796
C149  C     C_R   0.500007 0.615140 0.999998 -0.192778
C150  C     C_R   0.614724 0.500000 0.000000 -0.189606
C151  C     C_R   0.500006 0.384859 0.000002 -0.192768
C152  C     C_R   0.385279 0.500001 1.000000 -0.189589
C153  C     C_R   0.999999 0.193149 0.500002 -0.011319
C154  C     C_R   0.193548 0.000019 0.499989 -0.002883
C155  C     C_R   0.999998 0.806857 0.499996 -0.011330
C156  C     C_R   0.806451 0.000014 0.500017 -0.002867
C157  C     C_R   0.500013 0.693547 0.000001 -0.002894
C158  C     C_R   0.693147 0.500001 0.000001 -0.011322
C159  C     C_R   0.500011 0.306452 0.000000 -0.002892
C160  C     C_R   0.306857 0.500003 0.999997 -0.011347
H1    H     H_    0.049837 0.381524 0.541766 0.160338
H2    H     H_    0.380854 0.939440 0.504104 0.170604
H3    H     H_    0.949865 0.618486 0.541251 0.160585
H4    H     H_    0.619136 0.060560 0.503566 0.170673
H5    H     H_    0.050134 0.618485 0.458747 0.160584
H6    H     H_    0.380865 0.060565 0.495870 0.170610
H7    H     H_    0.950163 0.381524 0.458234 0.160339
H8    H     H_    0.619146 0.939441 0.496462 0.170668
H9    H     H_    0.560588 0.880858 0.003315 0.170658
H10   H     H_    0.881521 0.450082 0.041616 0.160414
H11   H     H_    0.439429 0.119144 0.004064 0.170596
H12   H     H_    0.118485 0.550139 0.041249 0.160584
H13   H     H_    0.560575 0.119140 0.995931 0.170600
H14   H     H_    0.881522 0.549918 0.958384 0.160414
H15   H     H_    0.439417 0.880853 0.996693 0.170655
H16   H     H_    0.118486 0.449862 0.958750 0.160585
O1    O     O_R   0.968700 0.444570 0.500010 -0.611036
O2    O     O_R   0.444570 0.031300 0.500010 -0.615942
O3    O     O_R   0.031300 0.555430 0.500010 -0.611158
O4    O     O_R   0.555430 0.968700 0.500010 -0.615943
O5    O     O_R   0.968700 0.555430 0.499990 -0.611156
O6    O     O_R   0.444570 0.968700 0.499990 -0.615933
O7    O     O_R   0.031300 0.444570 0.499990 -0.611038
O8    O     O_R   0.555430 0.031300 0.499990 -0.615951
O9    O     O_R   0.468700 0.944570 0.000010 -0.615944
O10   O     O_R   0.944570 0.531300 0.000010 -0.611072
O11   O     O_R   0.531300 0.055430 0.000010 -0.615934
O12   O     O_R   0.055430 0.468700 0.000010 -0.611158
O13   O     O_R   0.468700 0.055430 0.999990 -0.615933
O14   O     O_R   0.944570 0.468700 0.999990 -0.611072
O15   O     O_R   0.531300 0.944570 0.999990 -0.615948
O16   O     O_R   0.055430 0.531300 0.999990 -0.611159
O17   O     O_R   0.968700 0.500000 0.436870 -0.595127
O18   O     O_R   0.500000 0.031300 0.436870 -0.594387
O19   O     O_R   0.031300 0.500000 0.436870 -0.595112
O20   O     O_R   0.500000 0.968700 0.436870 -0.594324
O21   O     O_R   0.968700 0.500000 0.563130 -0.595110
O22   O     O_R   0.500000 0.968700 0.563130 -0.594385
O23   O     O_R   0.031300 0.500000 0.563130 -0.595129
O24   O     O_R   0.500000 0.031300 0.563130 -0.594326
O25   O     O_R   0.468700 0.000000 0.936870 -0.594312
O26   O     O_R   0.000000 0.531300 0.936870 -0.595126
O27   O     O_R   0.531300 0.000000 0.936870 -0.594395
O28   O     O_R   0.000000 0.468700 0.936870 -0.595113
O29   O     O_R   0.468700 0.000000 0.063130 -0.594396
O30   O     O_R   1.000000 0.468700 0.063130 -0.595124
O31   O     O_R   0.531300 0.000000 0.063130 -0.594312
O32   O     O_R   0.000000 0.531300 0.063130 -0.595115
O33   O     O_R   0.055320 0.999990 0.464380 -0.613878
O34   O     O_R   0.999990 0.944680 0.464380 -0.610428
O35   O     O_R   0.944680 0.000010 0.464380 -0.613890
O36   O     O_R   0.000010 0.055320 0.464380 -0.610413
O37   O     O_R   0.055320 0.000010 0.535620 -0.613890
O38   O     O_R   0.999990 0.055320 0.535620 -0.610419
O39   O     O_R   0.944680 0.999990 0.535620 -0.613878
O40   O     O_R   0.000010 0.944680 0.535620 -0.610421
O41   O     O_R   0.555320 0.499990 0.964380 -0.610422
O42   O     O_R   0.499990 0.444680 0.964380 -0.613873
O43   O     O_R   0.444680 0.500010 0.964380 -0.610426
O44   O     O_R   0.500010 0.555320 0.964380 -0.613880
O45   O     O_R   0.555320 0.500010 0.035620 -0.610419
O46   O     O_R   0.499990 0.555320 0.035620 -0.613870
O47   O     O_R   0.444680 0.499990 0.035620 -0.610429
O48   O     O_R   0.500010 0.444680 0.035620 -0.613884
Zn1   Zn    Zn3+2 0.958200 0.500000 0.500000 0.993103
Zn2   Zn    Zn3+2 0.500000 0.041800 0.500000 0.990190
Zn3   Zn    Zn3+2 0.041800 0.500000 0.500000 0.993094
Zn4   Zn    Zn3+2 0.500000 0.958200 0.500000 0.990199
Zn5   Zn    Zn3+2 0.458200 0.000000 0.000000 0.990193
Zn6   Zn    Zn3+2 0.000000 0.541800 0.000000 0.993083
Zn7   Zn    Zn3+2 0.541800 0.000000 0.000000 0.990193
Zn8   Zn    Zn3+2 0.000000 0.458200 0.000000 0.993088
Zn9   Zn    Zn3+2 1.000000 0.000000 0.452410 1.026439
Zn10  Zn    Zn3+2 1.000000 0.000000 0.547590 1.026439
Zn11  Zn    Zn3+2 0.500000 0.500000 0.952410 1.026436
Zn12  Zn    Zn3+2 0.500000 0.500000 0.047590 1.026436
I1    I     I_    0.084585 0.203473 0.522528 -0.282341
I2    I     I_    0.204739 0.942904 0.579085 -0.286406
I3    I     I_    0.915349 0.796546 0.522152 -0.282313
I4    I     I_    0.795282 0.057127 0.579113 -0.286446
I5    I     I_    0.084648 0.796544 0.477839 -0.282334
I6    I     I_    0.204714 0.057148 0.420901 -0.286440
I7    I     I_    0.915415 0.203473 0.477474 -0.282327
I8    I     I_    0.795257 0.942910 0.420914 -0.286407
I9    I     I_    0.557239 0.704723 0.078970 -0.286418
I10   I     I_    0.703465 0.415405 0.022525 -0.282319
I11   I     I_    0.442820 0.295266 0.079023 -0.286397
I12   I     I_    0.296546 0.584664 0.022207 -0.282257
I13   I     I_    0.557210 0.295273 0.920984 -0.286428
I14   I     I_    0.703465 0.584597 0.977482 -0.282285
I15   I     I_    0.442795 0.704734 0.921025 -0.286388
I16   I     I_    0.296546 0.415341 0.977784 -0.282291
C161  C     C_1   0.067330 0.113989 0.521757 0.240760
N1    N     N_1   0.094514 0.097749 0.530848 -0.175208
C162  C     C_1   0.115150 0.953005 0.563353 0.272890
N2    N     N_1   0.099288 0.933519 0.588588 -0.158153
C163  C     C_1   0.932633 0.886016 0.521565 0.240735
N3    N     N_1   0.905436 0.902255 0.530596 -0.175274
C164  C     C_1   0.884868 0.047025 0.563348 0.272772
N4    N     N_1   0.900738 0.066515 0.588573 -0.158180
C165  C     C_1   0.067365 0.886014 0.478424 0.240737
N5    N     N_1   0.094562 0.902252 0.469389 -0.175283
C166  C     C_1   0.115129 0.047044 0.436679 0.272766
N6    N     N_1   0.099257 0.066541 0.411465 -0.158184
C167  C     C_1   0.932669 0.113989 0.478246 0.240760
N7    N     N_1   0.905486 0.097748 0.469155 -0.175194
C168  C     C_1   0.884847 0.953021 0.436622 0.272897
N8    N     N_1   0.900709 0.933542 0.411375 -0.158149
C169  C     C_1   0.547092 0.615132 0.063263 0.272695
N9    N     N_1   0.566607 0.599262 0.088458 -0.158190
C170  C     C_1   0.613988 0.432683 0.021827 0.240765
N10   N     N_1   0.597748 0.405508 0.030957 -0.175153
C171  C     C_1   0.452976 0.384858 0.063342 0.272801
N11   N     N_1   0.433487 0.400724 0.088578 -0.158149
C172  C     C_1   0.386017 0.567352 0.021661 0.240758
N12   N     N_1   0.402256 0.594537 0.030739 -0.175233
C173  C     C_1   0.547053 0.384865 0.936682 0.272699
N13   N     N_1   0.566549 0.400733 0.911458 -0.158167
C174  C     C_1   0.613987 0.567319 0.978186 0.240783
N14   N     N_1   0.597746 0.594495 0.969064 -0.175164
C175  C     C_1   0.452939 0.615142 0.936713 0.272795
N15   N     N_1   0.433430 0.599276 0.911505 -0.158170
C176  C     C_1   0.386015 0.432651 0.978326 0.240739
N16   N     N_1   0.402253 0.405466 0.969240 -0.175221
C177  C     C_1   0.056798 0.308034 0.550295 0.202561
N17   N     N_1   0.079835 0.293069 0.571541 -0.139543
C178  C     C_1   0.307275 0.930093 0.504778 0.200733
N18   N     N_1   0.291710 0.901571 0.506760 -0.143255
C179  C     C_1   0.942837 0.691964 0.549701 0.202550
N19   N     N_1   0.919640 0.706915 0.570706 -0.139398
C180  C     C_1   0.692715 0.069913 0.504191 0.200724
N20   N     N_1   0.708279 0.098433 0.505911 -0.143499
C181  C     C_1   0.057162 0.691962 0.450296 0.202547
N21   N     N_1   0.080360 0.706913 0.429291 -0.139405
C182  C     C_1   0.307289 0.069921 0.495159 0.200731
N22   N     N_1   0.291729 0.098444 0.493166 -0.143263
C183  C     C_1   0.943201 0.308032 0.449707 0.202566
N23   N     N_1   0.920164 0.293067 0.428461 -0.139534
C184  C     C_1   0.692727 0.930092 0.495886 0.200724
N24   N     N_1   0.708296 0.901573 0.494180 -0.143489
C185  C     C_1   0.569946 0.807278 0.003879 0.200666
N25   N     N_1   0.598478 0.791710 0.005474 -0.143501
C186  C     C_1   0.808037 0.443105 0.050128 0.202575
N26   N     N_1   0.793079 0.420025 0.071307 -0.139488
C187  C     C_1   0.430084 0.192725 0.004755 0.200725
N27   N     N_1   0.401561 0.208293 0.006723 -0.143227
C188  C     C_1   0.191961 0.557165 0.049701 0.202543
N28   N     N_1   0.206910 0.580363 0.070707 -0.139395
C189  C     C_1   0.569929 0.192719 0.995242 0.200721
N29   N     N_1   0.598455 0.208285 0.993278 -0.143229
C190  C     C_1   0.808037 0.556892 0.949871 0.202575
N30   N     N_1   0.793079 0.579970 0.928690 -0.139496
C191  C     C_1   0.430068 0.807271 0.996132 0.200672
N31   N     N_1   0.401539 0.791701 0.994533 -0.143500
C192  C     C_1   0.191963 0.442839 0.950292 0.202548
N32   N     N_1   0.206912 0.419643 0.929284 -0.139392

loop_
_geom_bond_atom_site_label_1
_geom_bond_atom_site_label_2
_ccdc_geom_bond_type
O20   Zn4   S    
C130  C146  A    
C180  N20   T    
O8    Zn2   S    
C117  C133  A    
C42   C58   A    
C38   C70   A    
C185  N25   T    
O46   Zn12  S    
C14   C158  S    
C136  C168  S    
C140  C152  A    
C170  N10   T    
C108  C109  T    
C87   O29   A    
C31   C183  S    
C83   O21   A    
C127  C157  A    
C129  C145  A    
C33   C69   A    
C122  I10   S    
C97   C105  S    
C35   C71   A    
C119  C153  A    
C114  C130  A    
C10   C154  S    
C88   O32   A    
C32   C184  S    
O22   Zn4   S    
C30   C182  S    
C134  C146  A    
C143  C175  S    
C74   C147  S    
C25   C41   A    
C128  C160  A    
C137  C169  S    
C34   C186  S    
O5    Zn1   S    
C28   C44   A    
C29   C45   A    
O28   Zn8   S    
C79   O43   A    
C186  N26   T    
C11   C19   T    
C12   C20   T    
C2    C58   S    
C122  C158  A    
C13   C21   T    
C127  C143  A    
C128  C144  A    
C6    C62   S    
C105  C112  T    
C115  C155  A    
C37   C71   A    
O45   Zn12  S    
C35   C51   A    
C107  C110  T    
C99   C107  S    
C31   C65   A    
C45   C59   A    
C20   C68   S    
C77   C150  S    
O10   Zn6   S    
C75   C148  S    
C83   C91   S    
C6    O10   A    
C98   C106  S    
O19   Zn3   S    
C54   H14   S    
C125  I13   S    
O17   Zn1   S    
C26   C178  S    
C115  I3    S    
C142  C150  A    
C123  C159  A    
C10   C18   T    
C124  C160  A    
C75   O39   A    
C116  C156  A    
C81   O17   A    
C143  C149  A    
C94   C102  T    
O15   Zn7   S    
C33   C49   A    
C114  C154  A    
C78   O48   A    
C49   H9    S    
C134  C166  S    
C16   C160  S    
O29   Zn5   S    
C77   O41   A    
O41   Zn11  S    
C1    O7    A    
C53   H13   S    
C133  C165  S    
C36   C188  S    
C56   H16   S    
C73   O33   A    
C28   C68   A    
C8    O16   A    
O42   Zn11  S    
C165  N5    T    
C47   C57   A    
C123  C139  A    
C163  N3    T    
O34   Zn9   S    
C121  C137  A    
C85   C93   S    
C125  C141  A    
C87   C95   S    
C117  C155  A    
C56   C64   A    
C131  C147  A    
C133  C147  A    
C118  C134  A    
C43   C59   A    
C164  N4    T    
C114  I2    S    
C37   C53   A    
C76   O36   A    
O25   Zn5   S    
C9    C153  S    
C173  N13   T    
C46   C58   A    
C12   C156  S    
C13   C157  S    
C95   C103  T    
C78   C151  S    
C106  C111  T    
C80   C149  S    
C100  C108  S    
C26   C66   A    
O43   Zn11  S    
C5    O15   A    
C29   C181  S    
C104  C112  S    
C92   C100  T    
O7    Zn3   S    
C135  C145  A    
O35   Zn9   S    
C21   C69   S    
C124  I12   S    
C181  N21   T    
C1    C57   S    
C81   O19   A    
C33   C185  S    
C116  C132  A    
C87   O31   A    
C4    C60   S    
C144  C176  S    
C179  N19   T    
C39   C69   A    
C5    C61   S    
O24   Zn2   S    
C7    C63   S    
C136  C148  A    
C8    C64   S    
C129  C161  S    
C39   C191  S    
C24   C72   S    
C77   O45   A    
C86   O26   A    
C40   C72   A    
C30   C46   A    
C168  N8    T    
C42   H2    S    
C79   O47   A    
C18   C66   S    
C14   C22   T    
O11   Zn7   S    
C144  C152  A    
C40   C192  S    
C53   C63   A    
O6    Zn4   S    
C45   H5    S    
C55   C61   A    
C139  C151  A    
C118  C154  A    
O3    Zn3   S    
C27   C67   A    
O47   Zn12  S    
O1    Zn1   S    
C76   O38   A    
C176  N16   T    
C139  C171  S    
C2    O2    A    
C91   C99   T    
C22   C70   S    
C36   C72   A    
C117  I5    S    
O21   Zn1   S    
C79   C152  S    
C88   C96   S    
C41   H1    S    
O40   Zn10  S    
O44   Zn11  S    
C172  N12   T    
C5    O9    A    
C166  N6    T    
C8    O12   A    
O16   Zn6   S    
C75   O35   A    
C140  C172  S    
C101  C109  S    
C120  C156  A    
C103  C111  S    
C29   C67   A    
C39   C55   A    
C40   C56   A    
C174  N14   T    
C19   C67   S    
C34   C70   A    
C82   O20   A    
C85   O25   A    
C81   C89   S    
C130  C162  S    
C121  I9    S    
C192  N32   T    
C31   C47   A    
C169  N9    T    
C32   C48   A    
C73   O37   A    
O38   Zn10  S    
O39   Zn10  S    
C4    O4    A    
C138  C170  S    
C49   C61   A    
O30   Zn8   S    
C188  N28   T    
C23   C71   S    
C51   C63   A    
C122  C138  A    
C52   C64   A    
C113  C153  A    
C182  N22   T    
C54   C62   A    
C84   O22   A    
C126  C142  A    
C84   O24   A    
C120  C136  A    
O13   Zn5   S    
C184  N24   T    
C15   C159  S    
C177  N17   T    
C178  N18   T    
C38   C54   A    
C50   H10   S    
C27   C179  S    
C3    O5    A    
C76   C145  S    
C102  C110  S    
C93   C101  T    
O37   Zn10  S    
C7    O11   A    
C46   H6    S    
C124  C140  A    
C38   C190  S    
C28   C180  S    
C35   C187  S    
C125  C159  A    
O9    Zn5   S    
C82   C90   S    
C126  I14   S    
O18   Zn2   S    
O48   Zn12  S    
C41   C57   A    
C78   O42   A    
O27   Zn7   S    
C191  N31   T    
C161  N1    T    
C44   C60   A    
C51   H11   S    
C52   H12   S    
O4    Zn4   S    
C26   C42   A    
C119  C135  A    
C82   O18   A    
C85   O27   A    
C27   C43   A    
C187  N27   T    
C7    O13   A    
C44   H4    S    
O12   Zn8   S    
O23   Zn3   S    
C43   H3    S    
C190  N30   T    
C183  N23   T    
O36   Zn9   S    
C115  C131  A    
C189  N29   T    
C138  C150  A    
C128  I16   S    
C113  C129  A    
C74   O34   A    
C2    O6    A    
C120  I8    S    
C3    O3    A    
C86   C94   S    
C131  C163  S    
C1    O1    A    
C167  N7    T    
C127  I15   S    
O26   Zn6   S    
C15   C23   T    
C16   C24   T    
C121  C157  A    
C25   C177  S    
C137  C149  A    
C48   C60   A    
C132  C164  S    
C126  C158  A    
C34   C50   A    
C132  C148  A    
C25   C65   A    
C175  N15   T    
C80   O46   A    
C89   C97   T    
C47   H7    S    
C48   H8    S    
C6    O14   A    
C171  N11   T    
C4    O8    A    
C55   H15   S    
C30   C66   A    
C9    C17   T    
C50   C62   A    
C83   O23   A    
C162  N2    T    
C86   O28   A    
C141  C151  A    
C74   O40   A    
C88   O30   A    
C36   C52   A    
C142  C174  S    
C80   O44   A    
C11   C155  S    
C84   C92   S    
C116  I4    S    
C17   C65   S    
C32   C68   A    
C73   C146  S    
C37   C189  S    
C96   C104  T    
C141  C173  S    
C123  I11   S    
O31   Zn7   S    
C113  I1    S    
O14   Zn8   S    
O33   Zn9   S    
O2    Zn2   S    
C118  I6    S    
C135  C167  S    
C119  I7    S    
C90   C98   T    
O32   Zn6   S    
C3    C59   S    
