data_mof_unit_30432.cif
_audit_creation_date              2012-12-10T20:25:42-0500
_audit_creation_method            fapswitch 2.2
_symmetry_space_group_name_H-M    P1
_symmetry_Int_Tables_number       1
_space_group_crystal_system       triclinic
_cell_length_a                    8.611835
_cell_length_b                    10.666552
_cell_length_c                    9.858988
_cell_angle_alpha                 90.187452
_cell_angle_beta                  98.712043
_cell_angle_gamma                 89.905942
_cell_volume                      895.178177596

loop_
_atom_site_label
_atom_site_type_symbol
_atom_type_description
_atom_site_fract_x
_atom_site_fract_y
_atom_site_fract_z
_atom_type_partial_charge
C1    C     C_R   0.500729 0.260224 0.499703 0.868865
C2    C     C_R   0.433981 0.934952 0.382043 -0.226804
C3    C     C_R   0.510150 0.871561 0.497585 -0.101916
C4    C     C_R   0.606283 0.936414 0.600581 0.059087
C5    C     C_3   0.622258 0.929773 0.754102 -0.202623
C6    C     C_3   0.620114 0.072892 0.753067 -0.518605
C7    C     C_R   0.456048 0.395247 0.065088 0.241789
C8    C     C_R   0.555040 0.599835 0.079608 -0.120490
C9    C     C_R   0.555086 0.599645 0.935777 -0.149216
C10   C     C_R   0.454705 0.395733 0.922249 0.211019
C11   C     C_3   0.297121 0.335096 0.896318 -0.509140
C12   C     C_R   0.201484 0.494063 0.463798 0.912833
C13   C     C_3   0.299891 0.332844 0.050481 -0.516046
C14   C     C_R   0.501520 0.739777 0.500084 0.872772
C15   C     C_R   0.798430 0.493592 0.535276 0.957224
C16   C     C_2   0.038146 0.471481 0.442794 -0.204476
C17   C     C_2   0.963454 0.488043 0.551819 -0.457168
C18   C     C_R   0.604931 0.064445 0.600474 0.097473
C19   C     C_R   0.509391 0.128468 0.497011 -0.076616
C20   C     C_R   0.433651 0.064167 0.381818 -0.230108
H1    H     H_    0.597997 0.680225 0.887614 0.158462
H2    H     H_    0.204924 0.397939 0.842313 0.215536
H3    H     H_    0.301288 0.240097 0.850589 0.197848
H4    H     H_    0.307495 0.236562 0.093343 0.195648
H5    H     H_    0.024392 0.511303 0.653463 0.164636
H6    H     H_    0.366379 0.113137 0.296420 0.155245
H7    H     H_    0.367169 0.885228 0.296431 0.157316
H8    H     H_    0.517022 0.888732 0.790023 0.157547
H9    H     H_    0.732870 0.117461 0.798022 0.197523
H10   H     H_    0.598196 0.681042 0.139595 0.151094
N1    N     N_R   0.498950 0.499140 0.142680 -0.105757
N2    N     N_R   0.498950 0.499180 0.857030 -0.110396
O1    O     O_R   0.500020 0.316790 0.614690 -0.621774
O2    O     O_R   0.500000 0.316760 0.385350 -0.622490
O3    O     O_R   0.271760 0.500010 0.587850 -0.620002
O4    O     O_R   0.271740 0.499970 0.358500 -0.630044
O5    O     O_R   0.500000 0.683240 0.614650 -0.627483
O6    O     O_R   0.499980 0.683210 0.385310 -0.631669
O7    O     O_R   0.728260 0.500030 0.641500 -0.625416
O8    O     O_R   0.728240 0.499990 0.412150 -0.594421
Zn1   Zn    Zn3+2 0.500010 0.500020 0.653130 0.928012
Zn2   Zn    Zn3+2 0.499990 0.499980 0.346870 0.942091
C21   C     C_R   0.966083 0.423937 0.304749 0.197560
C22   C     C_R   0.956642 0.501898 0.189151 -0.125773
C23   C     C_R   0.895988 0.455702 0.059104 -0.165527
C24   C     C_R   0.843075 0.332013 0.043794 -0.119955
C25   C     C_R   0.849810 0.254397 0.158545 -0.150118
C26   C     C_R   0.911472 0.299943 0.288782 -0.121320
H11   H     H_    0.997731 0.597779 0.199917 0.124916
H12   H     H_    0.890544 0.515623 0.970116 0.160955
H13   H     H_    0.795930 0.296820 0.943044 0.132005
H14   H     H_    0.807912 0.158822 0.146486 0.128634
H15   H     H_    0.917697 0.238732 0.376887 0.113919
H16   H     H_    0.209506 0.393469 0.085980 0.232235
C27   C     C_R   0.776188 0.876175 0.826447 0.167558
C28   C     C_R   0.880598 0.808359 0.756464 -0.107319
C29   C     C_R   0.020224 0.759703 0.828165 -0.165327
C30   C     C_R   0.056287 0.776531 0.969971 -0.134139
C31   C     C_R   0.952725 0.842024 0.040573 -0.153515
C32   C     C_R   0.813360 0.891355 0.969406 -0.189703
H17   H     H_    0.854998 0.792616 0.646885 0.113905
H18   H     H_    0.100711 0.708889 0.773792 0.139762
H19   H     H_    0.164142 0.738319 0.025214 0.131847
H20   H     H_    0.980308 0.854426 0.150602 0.126568
H21   H     H_    0.733860 0.941333 0.025727 0.126832
H22   H     H_    0.514132 0.113122 0.788471 0.196637

loop_
_geom_bond_atom_site_label_1
_geom_bond_atom_site_label_2
_ccdc_geom_bond_type
C22   H11   S    
C32   H21   S    
C7    C10   A    
C21   C22   A    
C25   H14   S    
C28   H17   S    
N1    Zn2   S    
C26   H15   S    
C12   O4    A    
C5    H8    S    
C21   C26   A    
C13   H16   S    
C11   H2    S    
O4    Zn2   S    
C19   C20   A    
O2    Zn2   S    
C7    C13   S    
N2    Zn1   S    
O1    Zn1   S    
C8    H10   S    
C27   C28   A    
O8    Zn2   S    
C2    C3    A    
C29   C30   A    
C4    C18   A    
C31   C32   A    
O7    Zn1   S    
C23   C24   A    
C28   C29   A    
C14   O5    A    
C11   C13   S    
C16   C21   S    
C15   O7    A    
C31   H20   S    
C2    H7    S    
C3    C14   S    
C20   H6    S    
C23   H12   S    
C6    C18   S    
C4    C5    S    
C11   H3    S    
C1    O2    A    
O6    Zn2   S    
O5    Zn1   S    
C5    C6    S    
O3    Zn1   S    
C15   O8    A    
C1    C19   S    
C14   O6    A    
C10   C11   S    
C1    O1    A    
C3    C4    A    
C9    H1    S    
C16   C17   D    
C10   N2    A    
C6    H22   S    
C6    H9    S    
C7    N1    A    
C22   C23   A    
C18   C19   A    
C30   H19   S    
C15   C17   S    
C24   C25   A    
C8    C9    A    
C12   C16   S    
C9    N2    A    
C29   H18   S    
C30   C31   A    
C27   C32   A    
C8    N1    A    
C2    C20   A    
C24   H13   S    
C5    C27   S    
C25   C26   A    
C13   H4    S    
C17   H5    S    
C12   O3    A    
