data_mof_unit_27143.cif
_audit_creation_date              2012-12-10T21:07:45-0500
_audit_creation_method            fapswitch 2.2
_symmetry_space_group_name_H-M    P1
_symmetry_Int_Tables_number       1
_space_group_crystal_system       triclinic
_cell_length_a                    8.599114
_cell_length_b                    17.604135
_cell_length_c                    16.753975
_cell_angle_alpha                 90.36209
_cell_angle_beta                  98.758104
_cell_angle_gamma                 90.235085
_cell_volume                      2506.56083205

loop_
_atom_site_label
_atom_site_type_symbol
_atom_type_description
_atom_site_fract_x
_atom_site_fract_y
_atom_site_fract_z
_atom_type_partial_charge
C1    C     C_R   0.498723 0.353243 0.499666 0.874733
C2    C     C_R   0.500980 0.646753 0.500311 0.874950
C3    C     C_1   0.497499 0.966419 0.500633 -0.059635
C4    C     C_1   0.489465 0.033595 0.498540 -0.060170
C5    C     C_R   0.401577 0.450398 0.824155 -0.273100
C6    C     C_R   0.598451 0.549582 0.175844 -0.273118
C7    C     C_R   0.403644 0.451371 0.740176 -0.089381
C8    C     C_R   0.596388 0.548612 0.259824 -0.089393
C9    C     C_R   0.596731 0.548987 0.755659 0.605634
C10   C     C_R   0.403235 0.451027 0.244341 0.605526
C11   C     C_R   0.597381 0.549487 0.840540 -0.382253
C12   C     C_R   0.402578 0.450525 0.159459 -0.382212
C13   C     C_R   0.499332 0.499873 0.875524 0.123912
C14   C     C_R   0.500658 0.500123 0.124475 0.123896
C15   C     C_1   0.499633 0.499886 0.963403 -0.027394
C16   C     C_1   0.500354 0.500108 0.036595 -0.027389
C17   C     C_R   0.200573 0.499949 0.478966 0.980013
C18   C     C_R   0.799427 0.500050 0.521034 0.980034
C19   C     C_2   0.035719 0.499983 0.467489 -0.385156
C20   C     C_2   0.964282 0.500016 0.532511 -0.385266
C21   C     C_R   0.517906 0.847629 0.576961 0.021222
C22   C     C_R   0.475776 0.152475 0.422493 0.021434
C23   C     C_R   0.515308 0.768490 0.575131 -0.234300
C24   C     C_R   0.482375 0.231579 0.424629 -0.233796
C25   C     C_R   0.503998 0.729208 0.501355 -0.049105
C26   C     C_R   0.493016 0.270803 0.498417 -0.048924
C27   C     C_R   0.496202 0.769064 0.428807 -0.210317
C28   C     C_R   0.496060 0.230929 0.570681 -0.210403
C29   C     C_R   0.497328 0.847623 0.429833 -0.181721
C30   C     C_R   0.490836 0.152400 0.569378 -0.181779
C31   C     C_R   0.507137 0.886540 0.503170 0.111458
C32   C     C_R   0.481712 0.113524 0.496045 0.111064
H1    H     H_    0.973577 0.500005 0.405842 0.185242
H2    H     H_    0.026424 0.499994 0.594158 0.185258
H3    H     H_    0.523512 0.737702 0.631442 0.181487
H4    H     H_    0.477759 0.262414 0.368523 0.181090
H5    H     H_    0.487666 0.739678 0.371296 0.159694
H6    H     H_    0.503823 0.260266 0.628192 0.159493
H7    H     H_    0.488513 0.878129 0.373294 0.149366
H8    H     H_    0.496279 0.121852 0.625747 0.149518
H9    H     H_    0.324079 0.411198 0.848728 0.151322
H10   H     H_    0.675978 0.588768 0.151271 0.151339
H11   H     H_    0.327746 0.412970 0.701200 0.146895
H12   H     H_    0.672319 0.586999 0.298800 0.147109
H13   H     H_    0.673947 0.588255 0.878900 0.140285
H14   H     H_    0.325983 0.411769 0.121099 0.140325
N1    N     N_R   0.500040 0.500030 0.707230 -0.099415
N2    N     N_R   0.499960 0.499970 0.292770 -0.099482
O1    O     O_R   0.500000 0.389130 0.566570 -0.641741
O2    O     O_R   0.500000 0.610870 0.433430 -0.641789
O3    O     O_R   0.499990 0.389100 0.433480 -0.578455
O4    O     O_R   0.500010 0.610900 0.566520 -0.578398
O5    O     O_R   0.271750 0.500010 0.550980 -0.630502
O6    O     O_R   0.728250 0.499990 0.449020 -0.630464
O7    O     O_R   0.271740 0.499980 0.417890 -0.578913
O8    O     O_R   0.728260 0.500020 0.582110 -0.578860
Zn1   Zn    Zn3+2 0.500010 0.500020 0.588860 0.987185
Zn2   Zn    Zn3+2 0.499990 0.499980 0.411140 0.987131
C33   C     C_R   0.529720 0.887855 0.655915 0.113545
C34   C     C_R   0.646771 0.943310 0.678226 -0.142047
C35   C     C_R   0.656772 0.981099 0.752490 -0.151524
C36   C     C_R   0.551244 0.963416 0.805393 -0.114975
C37   C     C_R   0.435705 0.907798 0.784191 -0.132960
C38   C     C_R   0.424956 0.870010 0.709880 -0.157644
H15   H     H_    0.730712 0.957035 0.638365 0.132220
H16   H     H_    0.746640 0.023965 0.769102 0.128977
H17   H     H_    0.559244 0.992681 0.862897 0.120307
H18   H     H_    0.354240 0.894019 0.825295 0.127232
H19   H     H_    0.334140 0.827371 0.694115 0.130223
C39   C     C_R   0.465207 0.112303 0.343521 0.113965
C40   C     C_R   0.347237 0.057484 0.320257 -0.142371
C41   C     C_R   0.338491 0.019720 0.246038 -0.151825
C42   C     C_R   0.446150 0.036820 0.194076 -0.114702
C43   C     C_R   0.562584 0.091831 0.216184 -0.132774
C44   C     C_R   0.572143 0.129557 0.290477 -0.157685
H20   H     H_    0.261595 0.044234 0.359342 0.131957
H21   H     H_    0.247928 0.977323 0.228714 0.128705
H22   H     H_    0.439101 0.007589 0.136604 0.120243
H23   H     H_    0.645679 0.105170 0.175797 0.127179
H24   H     H_    0.663743 0.171686 0.306946 0.129822
O9    O     O_3   0.692577 0.597201 0.720297 -0.755232
H25   H     H_    0.754188 0.629148 0.762873 0.305245
O10   O     O_3   0.307368 0.402825 0.279704 -0.755011
H26   H     H_    0.245719 0.370891 0.237127 0.305341

loop_
_geom_bond_atom_site_label_1
_geom_bond_atom_site_label_2
_ccdc_geom_bond_type
C27   C29   A    
C42   C43   A    
C19   C20   D    
O9    H25   S    
C21   C31   A    
C33   C38   A    
C24   H4    S    
C22   C32   A    
C36   H17   S    
C24   C26   A    
C21   C33   S    
C40   H20   S    
N1    Zn1   S    
C15   C16   T    
C10   O10   S    
O1    Zn1   S    
O8    Zn1   S    
C18   C20   S    
C2    O2    A    
C41   H21   S    
C35   H16   S    
C42   H22   S    
C39   C40   A    
C7    H11   S    
C44   H24   S    
C17   O7    A    
C5    C13   A    
C18   O8    A    
C20   H2    S    
C33   C34   A    
C10   C12   A    
C21   C23   A    
C43   C44   A    
O2    Zn2   S    
C12   H14   S    
C19   H1    S    
C5    C7    A    
O5    Zn1   S    
C6    C8    A    
C34   C35   A    
C7    N1    A    
C8    N2    A    
C36   C37   A    
C6    C14   A    
C1    O3    A    
O10   H26   S    
C28   H6    S    
C29   H7    S    
C30   H8    S    
O3    Zn2   S    
C38   H19   S    
C3    C31   S    
C9    C11   A    
C4    C32   S    
C2    O4    A    
C12   C14   A    
C34   H15   S    
C9    N1    A    
C23   H3    S    
C43   H23   S    
C13   C15   S    
C10   N2    A    
C1    C26   S    
C14   C16   S    
C11   H13   S    
C3    C4    T    
C17   O5    A    
O6    Zn2   S    
C5    H9    S    
C37   H18   S    
C8    H12   S    
C41   C42   A    
N2    Zn2   S    
C25   C27   A    
C26   C28   A    
C28   C30   A    
C40   C41   A    
C29   C31   A    
C30   C32   A    
C11   C13   A    
C27   H5    S    
C17   C19   S    
C2    C25   S    
C22   C24   A    
C23   C25   A    
C35   C36   A    
O4    Zn1   S    
C18   O6    A    
C37   C38   A    
C6    H10   S    
O7    Zn2   S    
C39   C44   A    
C1    O1    A    
C22   C39   S    
C9    O9    S    
