data_mof_unit_46517.cif
_audit_creation_date              2012-12-11T14:57:56-0500
_audit_creation_method            fapswitch 2.2
_symmetry_space_group_name_H-M    P1
_symmetry_Int_Tables_number       1
_space_group_crystal_system       triclinic
_cell_length_a                    6.942507
_cell_length_b                    16.714195
_cell_length_c                    17.128358
_cell_angle_alpha                 100.269137
_cell_angle_beta                  90.822769
_cell_angle_gamma                 90.80724
_cell_volume                      1955.22780077

loop_
_atom_site_label
_atom_site_type_symbol
_atom_type_description
_atom_site_fract_x
_atom_site_fract_y
_atom_site_fract_z
_atom_type_partial_charge
O1    O     O_R   0.506180 0.438940 0.579430 -0.546051
O2    O     O_R   0.170520 0.406230 0.413590 -0.539003
O3    O     O_R   0.005180 0.561060 0.420570 -0.536698
C1    C     C_R   0.338065 0.383815 0.384879 0.686443
O4    O     O_R   0.176140 0.429310 0.578370 -0.532570
O5    O     O_R   0.010830 0.584300 0.586530 -0.539326
C2    C     C_R   0.346165 0.413444 0.604929 0.740828
O6    O     O_R   0.500520 0.415700 0.413470 -0.534078
O7    O     O_3   0.340830 0.550820 0.502480 -0.368174
V1    V     V_3+5 0.064040 0.490570 0.499540 1.434033
O8    O     O_R   0.681400 0.593770 0.586410 -0.540267
C3    C     C_R   0.852252 0.616124 0.614958 0.690396
O9    O     O_R   0.675790 0.570690 0.421630 -0.539974
C4    C     C_R   0.844929 0.586152 0.394918 0.685770
V2    V     V_3+5 0.564650 0.509430 0.500460 1.424245
O10   O     O_3   0.837730 0.449180 0.497520 -0.367647
C5    C     C_R   0.914929 0.863104 0.168377 -0.303680
C6    C     C_R   0.861221 0.635545 0.331309 -0.031911
C7    C     C_R   0.985299 0.649994 0.202158 -0.127876
C8    C     C_R   0.949405 0.602402 0.259965 -0.159696
C9    C     C_R   0.811608 0.717955 0.344598 -0.175272
C10   C     C_R   0.851433 0.767655 0.287417 -0.014679
C11   C     C_R   0.939019 0.733041 0.215133 0.018093
C12   C     C_R   0.981266 0.782345 0.157736 0.306733
C13   C     C_R   0.842242 0.898613 0.242197 0.365555
C14   C     C_R   0.814255 0.852045 0.302096 0.107233
H1    H     H_    0.051335 0.621525 0.147498 0.145526
H2    H     H_    0.991590 0.539260 0.249090 0.113007
H3    H     H_    0.748011 0.743168 0.400711 0.097839
H4    H     H_    0.906878 0.614708 0.971779 0.126123
C15   C     C_R   0.807051 0.912127 0.721212 0.155822
C16   C     C_R   0.751377 0.923334 0.644416 0.226540
C17   C     C_R   0.733607 0.856634 0.583382 -0.199924
C18   C     C_R   0.777536 0.779623 0.596091 -0.187260
C19   C     C_R   0.830995 0.765339 0.672091 0.037463
C20   C     C_R   0.845184 0.832154 0.737128 0.013340
C21   C     C_R   0.868054 0.685035 0.683211 -0.142034
C22   C     C_R   0.904931 0.669479 0.760398 0.036918
C23   C     C_R   0.893064 0.733450 0.827175 0.015541
C24   C     C_R   0.887650 0.815906 0.815184 -0.182221
C25   C     C_R   0.941840 0.589622 0.772768 -0.160224
C26   C     C_R   0.953273 0.571955 0.848871 -0.187920
C27   C     C_R   0.914230 0.631622 0.913701 -0.110491
C28   C     C_R   0.874410 0.711371 0.903637 0.230084
H5    H     H_    0.682913 0.864101 0.525495 0.120488
H6    H     H_    0.764662 0.731025 0.545302 0.115362
H7    H     H_    0.959488 0.539645 0.723875 0.110145
H8    H     H_    0.981020 0.510429 0.857244 0.123604
C29   C     C_R   0.228258 0.218160 0.392272 -0.144196
C30   C     C_R   0.174513 0.139221 0.398602 -0.101128
C31   C     C_R   0.186857 0.077327 0.333388 -0.079525
C32   C     C_R   0.254137 0.093756 0.261516 -0.166610
C33   C     C_R   0.320416 0.172680 0.253893 0.045163
C34   C     C_R   0.298911 0.236637 0.320244 0.070256
C35   C     C_R   0.410602 0.187842 0.182959 -0.184388
C36   C     C_R   0.457363 0.270382 0.176296 -0.016241
C37   C     C_R   0.417674 0.334611 0.241354 -0.040068
C38   C     C_R   0.348246 0.317349 0.314149 -0.145919
C39   C     C_R   0.535865 0.292715 0.106141 0.408102
C40   C     C_R   0.547686 0.374933 0.098409 -0.256101
C41   C     C_R   0.502403 0.436427 0.160895 0.179691
C42   C     C_R   0.442586 0.416544 0.232033 -0.135437
H9    H     H_    0.214744 0.264236 0.444778 0.146287
H10   H     H_    0.122583 0.126085 0.454354 0.143797
H11   H     H_    0.147235 0.015779 0.338922 0.153143
H12   H     H_    0.260784 0.042499 0.213545 0.113376
H13   H     H_    0.594003 0.391138 0.043047 0.128596
H14   H     H_    0.408519 0.466523 0.278983 0.136116
C43   C     C_R   0.402466 0.135732 0.831312 -0.069997
C44   C     C_R   0.365245 0.363096 0.668109 -0.148802
C45   C     C_R   0.542872 0.338064 0.785340 -0.204350
C46   C     C_R   0.503380 0.386926 0.729039 -0.253001
C47   C     C_R   0.263623 0.288534 0.664751 0.365175
C48   C     C_R   0.313777 0.236114 0.718645 0.067057
C49   C     C_R   0.451030 0.262180 0.780417 0.094736
C50   C     C_R   0.493939 0.212065 0.836480 -0.195830
C51   C     C_R   0.278052 0.108068 0.766643 -0.173541
C52   C     C_R   0.232761 0.157497 0.711347 -0.149299
H15   H     H_    0.593473 0.233509 0.885116 0.143056
H16   H     H_    0.215956 0.047507 0.759156 0.115123
H17   H     H_    0.649160 0.358897 0.831740 0.125919
H18   H     H_    0.134082 0.133827 0.662960 0.144238
H19   H     H_    0.582516 0.443886 0.732818 0.144402
O11   O     O_R   0.265840 0.084300 0.086750 -0.550174
O12   O     O_R   0.589750 0.070740 0.921690 -0.530080
O13   O     O_R   0.755020 0.915730 0.913400 -0.527039
C53   C     C_R   0.419897 0.086728 0.895389 0.737264
O14   O     O_R   0.595830 0.093740 0.086480 -0.518468
O15   O     O_R   0.761150 0.938890 0.079360 -0.545879
C54   C     C_R   0.427068 0.118476 0.113927 0.767137
O16   O     O_R   0.259710 0.061140 0.920790 -0.540416
O17   O     O_3   0.425260 0.949200 0.997610 -0.381162
V3    V     V_3+5 0.702060 0.009430 0.000450 1.451330
O18   O     O_R   0.090530 0.929220 0.078150 -0.541822
C55   C     C_R   0.922827 0.912471 0.104020 0.864303
O19   O     O_R   0.084440 0.906220 0.913360 -0.540045
C56   C     C_R   0.912388 0.883641 0.884652 0.856341
V4    V     V_3+5 0.201450 0.990520 0.999290 1.435563
O20   O     O_3   0.928380 0.050800 0.002390 -0.379752
O21   O     O_3   0.080886 0.751029 0.090017 -0.552573
C57   C     C_3   0.280272 0.760293 0.107285 -0.209670
H20   H     H_    0.326029 0.722592 0.151394 0.133975
H21   H     H_    0.322478 0.825040 0.128936 0.134290
H22   H     H_    0.359974 0.739174 0.051942 0.150079
N1    N     N_3   0.788567 0.765624 0.967848 -0.656717
H23   H     H_    0.650022 0.777821 0.948791 0.211651
H24   H     H_    0.765158 0.736298 0.015953 0.230225
N2    N     N_3   0.516369 0.519999 0.152613 -0.670160
H25   H     H_    0.657136 0.531677 0.136330 0.230937
H26   H     H_    0.424306 0.528463 0.106026 0.224285
O22   O     O_3   0.831384 0.982239 0.259858 -0.551666
C58   C     C_3   0.637919 0.004874 0.259588 -0.173398
H27   H     H_    0.563884 0.992914 0.313436 0.163158
H28   H     H_    0.558434 0.974365 0.205237 0.099447
H29   H     H_    0.636432 0.071267 0.260680 0.158269
O23   O     O_3   0.591533 0.235240 0.042580 -0.571582
C59   C     C_3   0.794135 0.239603 0.035917 -0.198357
H30   H     H_    0.867845 0.225481 0.089894 0.144322
H31   H     H_    0.844847 0.299558 0.023958 0.097630
H32   H     H_    0.837886 0.193958 0.984467 0.173354
O24   O     O_3   0.128624 0.264030 0.604747 -0.574245
C60   C     C_3   0.944041 0.284593 0.634810 -0.228622
H33   H     H_    0.933354 0.350948 0.658072 0.142429
H34   H     H_    0.904803 0.249551 0.681879 0.134097
H35   H     H_    0.836405 0.268899 0.585768 0.167768
N3    N     N_3   0.756594 0.893026 0.378522 -0.659853
H36   H     H_    0.624461 0.868362 0.391806 0.213691
H37   H     H_    0.862054 0.883929 0.420049 0.229649
N4    N     N_3   0.809299 0.982058 0.783015 -0.659083
H38   H     H_    0.903382 0.025791 0.768062 0.218292
H39   H     H_    0.671400 0.006197 0.784763 0.250335
N5    N     N_3   0.706615 0.003275 0.629978 -0.674974
H40   H     H_    0.647346 0.000217 0.573017 0.237261
H41   H     H_    0.836443 0.035955 0.631283 0.218702

loop_
_geom_bond_atom_site_label_1
_geom_bond_atom_site_label_2
_ccdc_geom_bond_type
C35   C36   A    
C25   C26   A    
C57   H20   S    
C29   H9    S    
C53   O16   A    
C6    C9    A    
C30   H10   S    
C47   C48   A    
C4    C6    S    
C43   C51   A    
C7    C8    A    
C50   H15   S    
C1    O6    A    
C2    C44   S    
C58   H28   S    
O17   V4    S    
C37   C42   A    
C28   N1    S    
N2    H25   S    
N1    H24   S    
N3    H36   S    
C19   C21   A    
C35   C54   S    
C59   H31   S    
O5    C3    A    
C22   C23   A    
O18   V4    S    
V2    O10   S    
C17   H5    S    
O23   C59   S    
C43   C50   A    
C18   C19   A    
C31   H11   S    
C3    C21   S    
O13   C56   A    
C41   N2    S    
O21   C57   S    
O12   V3    S    
O22   C58   S    
C40   H13   S    
N5    H40   S    
O19   V4    S    
C11   C12   A    
O1    V2    S    
C7    H1    S    
O7    V1    S    
V3    O20   S    
C15   C20   A    
C43   C53   S    
C33   C35   A    
C39   C40   A    
C57   H21   S    
C12   O21   S    
O9    C4    A    
C41   C42   A    
O11   C54   A    
C58   H27   S    
C17   C18   A    
O12   C53   A    
C5    C12   A    
C48   C49   A    
C31   C32   A    
C20   C24   A    
C22   C25   A    
C59   H32   S    
C23   C24   A    
O4    C2    A    
C39   O23   S    
C8    H2    S    
C13   C14   A    
C51   C52   A    
C9    H3    S    
C40   C41   A    
C19   C20   A    
O15   C55   A    
C7    C11   A    
C49   C50   A    
C21   C22   A    
O13   V3    S    
C52   H18   S    
C15   C16   A    
O19   C56   A    
C44   C47   A    
C30   C31   A    
C25   H7    S    
C26   H8    S    
O24   C60   S    
O3    C4    A    
C5    C55   S    
O14   C54   A    
V4    O20   S    
O6    V2    S    
O8    V2    S    
O9    V2    S    
C27   C28   A    
C10   C14   A    
H4    C27   S    
C26   C27   A    
C60   H34   S    
O2    V1    S    
C16   N5    S    
C32   H12   S    
C32   C33   A    
N4    H38   S    
C34   C38   A    
C51   H16   S    
C36   C37   A    
O14   V3    S    
N3    H37   S    
O1    C2    A    
O5    V1    S    
O8    C3    A    
C33   C34   A    
C23   C28   A    
C57   H22   S    
N1    H23   S    
C47   O24   S    
C36   C39   A    
C42   H14   S    
O11   V4    S    
C16   C17   A    
C60   H35   S    
O7    V2    S    
C5    C13   A    
C45   C46   A    
C15   N4    S    
O3    V1    S    
V1    O10   S    
C59   H30   S    
C45   C49   A    
C37   C38   A    
C18   H6    S    
O2    C1    A    
O17   V3    S    
N2    H26   S    
C6    C8    A    
O16   V4    S    
O15   V3    S    
O18   C55   A    
C46   H19   S    
C13   O22   S    
O4    V1    S    
C24   C56   S    
N5    H41   S    
C29   C30   A    
C48   C52   A    
C1    C38   S    
C14   N3    S    
C10   C11   A    
C44   C46   A    
N4    H39   S    
C60   H33   S    
C9    C10   A    
C58   H29   S    
C29   C34   A    
C45   H17   S    
