data_mof_unit_7476.cif
_audit_creation_date              2012-12-10T16:39:36-0500
_audit_creation_method            fapswitch 2.2
_symmetry_space_group_name_H-M    P1
_symmetry_Int_Tables_number       1
_space_group_crystal_system       triclinic
_cell_length_a                    16.738059
_cell_length_b                    16.683287
_cell_length_c                    16.890942
_cell_angle_alpha                 65.561129
_cell_angle_beta                  65.803086
_cell_angle_gamma                 65.719512
_cell_volume                      3747.3710043

loop_
_atom_site_label
_atom_site_type_symbol
_atom_type_description
_atom_site_fract_x
_atom_site_fract_y
_atom_site_fract_z
_atom_type_partial_charge
C1    C     C_R   0.325150 0.955256 0.457497 -0.010482
C2    C     C_R   0.326180 0.460561 0.947333 -0.051298
C3    C     C_R   0.548668 0.414283 0.983071 -0.000107
C4    C     C_R   0.940902 0.477464 0.607342 -0.001033
C5    C     C_R   0.917437 0.570240 0.431948 0.003339
C6    C     C_2   0.276642 0.005552 0.822113 0.366910
C7    C     C_2   0.686379 0.075772 0.160160 0.421425
C8    C     C_2   0.900431 0.858451 0.310225 0.373428
C9    C     C_2   0.958801 0.188603 0.727657 0.357343
C10   C     C_2   0.824381 0.276597 0.004795 0.273636
C11   C     C_2   0.171984 0.718418 0.007606 0.307468
C12   C     C_2   0.197114 0.950074 0.739453 0.304126
C13   C     C_R   0.947349 0.710682 0.575114 -0.033776
C14   C     C_2   0.769816 0.123678 0.246050 0.341777
C15   C     C_2   0.750792 0.206560 0.930238 0.386128
C16   C     C_2   0.248900 0.793979 0.072984 0.366658
C17   C     C_2   0.872678 0.765512 0.219234 0.404150
C18   C     C_2   0.998705 0.279497 0.812371 0.423317
C19   C     C_R   0.921920 0.333303 0.462805 -0.055043
C20   C     C_R   0.446938 0.005354 0.451497 -0.002321
C21   C     C_R   0.535014 0.041997 0.538546 -0.002567
C22   C     C_R   0.922065 0.476110 0.471578 -0.003854
C23   C     C_R   0.937901 0.571191 0.567595 -0.004507
C24   C     C_R   0.458494 0.458970 0.976443 -0.002388
C25   C     C_R   0.540101 0.540011 0.028815 -0.002707
C26   C     C_R   0.959969 0.179859 0.438163 0.897538
C27   C     C_R   0.668514 0.068996 0.538427 -0.018742
C28   C     C_R   0.991195 0.839761 0.575407 0.918634
C29   C     C_R   0.179745 0.438288 0.961473 0.966223
C30   C     C_R   0.820188 0.561573 0.039156 0.877678
C31   C     C_R   0.431460 0.977344 0.177184 0.914720
C32   C     C_R   0.562291 0.038077 0.820549 0.909005
C33   C     C_R   0.560801 0.819965 0.041081 0.887590
C34   C     C_R   0.438836 0.180188 0.959790 0.840883
C35   C     C_R   0.995802 0.575301 0.835535 0.923772
C36   C     C_R   0.957160 0.439841 0.179491 0.873998
C37   C     C_R   0.820152 0.040640 0.561172 0.823627
C38   C     C_R   0.917616 0.468822 0.330903 -0.013256
C39   C     C_R   0.179741 0.961597 0.438491 0.897942
C40   C     C_R   0.403592 0.985737 0.407784 0.067726
C41   C     C_R   0.581019 0.056245 0.583611 0.068934
C42   C     C_R   0.919844 0.426407 0.421842 0.079008
C43   C     C_R   0.948780 0.617746 0.615115 0.068712
C44   C     C_R   0.415595 0.416468 0.954330 0.067127
C45   C     C_R   0.583230 0.582972 0.049996 0.068042
C46   C     C_R   0.279545 0.941940 0.410200 -0.263237
C47   C     C_R   0.719097 0.069506 0.588937 -0.235518
C48   C     C_R   0.924920 0.413846 0.279830 -0.247156
C49   C     C_R   0.958880 0.572005 0.703560 -0.034963
C50   C     C_R   0.972513 0.619874 0.749154 -0.192238
C51   C     C_R   0.412110 0.281449 0.932657 -0.241851
C52   C     C_R   0.587575 0.718760 0.069161 -0.258282
C53   C     C_R   0.589951 0.063488 0.721318 -0.178590
C54   C     C_R   0.396150 0.972225 0.272344 -0.155627
C55   C     C_R   0.720083 0.588608 0.064837 -0.156641
C56   C     C_R   0.279607 0.411347 0.937215 -0.180032
C57   C     C_R   0.965060 0.754372 0.621138 -0.182292
C58   C     C_R   0.928688 0.281165 0.410157 -0.174559
C59   C     C_R   0.446876 0.056938 0.712600 -0.131811
C60   C     C_R   0.461542 0.329436 0.940403 -0.023126
C61   C     C_R   0.505594 0.045426 0.263986 -0.134994
C62   C     C_R   0.924146 0.758193 0.492572 -0.148804
C63   C     C_R   0.914340 0.295713 0.556057 -0.179506
C64   C     C_R   0.711131 0.446385 0.056475 -0.152790
C65   C     C_R   0.286716 0.552594 0.950291 -0.135089
C66   C     C_R   0.293187 0.941764 0.551946 -0.139250
C67   C     C_R   0.700362 0.085884 0.443593 -0.164914
C68   C     C_R   0.555804 0.294122 0.932608 -0.148711
C69   C     C_R   0.443352 0.705946 0.070792 -0.131621
C70   C     C_R   0.903886 0.565017 0.295955 -0.148052
C71   C     C_R   0.537652 0.670424 0.062877 -0.017654
C72   C     C_R   0.950859 0.481590 0.744289 -0.121207
C73   C     C_R   0.325191 0.932968 0.324081 0.356168
C74   C     C_R   0.673753 0.081557 0.674914 0.360802
C75   C     C_R   0.914485 0.325913 0.325167 0.360327
C76   C     C_R   0.964847 0.712734 0.710945 0.323990
C77   C     C_R   0.327037 0.328624 0.917204 0.355136
C78   C     C_R   0.673114 0.671866 0.083853 0.354388
C79   C     C_R   0.654536 0.075040 0.396254 0.062089
C80   C     C_R   0.327847 0.971980 0.594431 0.069820
C81   C     C_R   0.952256 0.430974 0.694746 0.075716
C82   C     C_R   0.539157 0.058063 0.673884 -0.053555
C83   C     C_R   0.903497 0.616592 0.345109 0.072339
C84   C     C_R   0.399953 0.668293 0.044512 0.064912
C85   C     C_R   0.598915 0.331102 0.960079 0.066729
C86   C     C_R   0.558879 0.050855 0.306810 0.079182
C87   C     C_R   0.407053 0.025805 0.676448 0.073435
C88   C     C_R   0.320917 0.590123 0.985791 0.070141
C89   C     C_R   0.677142 0.408116 0.021310 0.080580
C90   C     C_R   0.928541 0.338621 0.602927 0.085273
C91   C     C_R   0.918463 0.712437 0.441742 0.075464
C92   C     C_R   0.687573 0.090750 0.300876 -0.106302
C93   C     C_R   0.435301 0.001761 0.313326 -0.051629
C94   C     C_R   0.284340 0.974712 0.685675 -0.076540
C95   C     C_R   0.962835 0.334993 0.732101 -0.122880
C96   C     C_R   0.892659 0.712793 0.308112 -0.097702
C97   C     C_R   0.307739 0.711135 0.041300 -0.089163
C98   C     C_R   0.690967 0.288080 0.963913 -0.137718
C99   C     C_R   0.641367 0.075759 0.256578 -0.133215
C100  C     C_R   0.323475 0.002747 0.726450 -0.102155
C101  C     C_R   0.268720 0.672578 0.010584 -0.079745
C102  C     C_R   0.729118 0.325174 0.997324 -0.107072
C103  C     C_R   0.945755 0.289728 0.688636 -0.114116
C104  C     C_R   0.672609 0.538962 0.056916 -0.056427
C105  C     C_R   0.903568 0.759786 0.354743 -0.110409
C106  C     C_R   0.527071 0.033967 0.401407 0.004477
C107  C     C_R   0.450632 0.021126 0.586887 -0.001139
C108  C     C_R   0.931133 0.430613 0.560437 0.006651
C109  C     C_R   0.925007 0.617935 0.480119 0.005330
C110  C     C_R   0.409467 0.544265 0.995741 -0.001065
C111  C     C_R   0.588988 0.454409 0.010147 -0.001940
C112  C     C_R   0.573256 0.048583 0.445589 0.003149
C113  C     C_R   0.408576 0.999141 0.544485 -0.004453
C114  C     C_R   0.449940 0.584638 0.022299 -0.001522
H1    H     H_    0.403458 0.085105 0.768234 0.197258
H2    H     H_    0.403464 0.761155 0.100863 0.215269
H3    H     H_    0.890453 0.600686 0.231249 0.221043
H4    H     H_    0.936233 0.450575 0.816510 0.222376
H5    H     H_    0.265059 0.848065 0.337682 0.337829
H6    H     H_    0.747909 0.148556 0.669041 0.340750
H7    H     H_    0.853211 0.326846 0.249321 0.326748
H8    H     H_    0.015489 0.759423 0.759838 0.363462
H9    H     H_    0.335206 0.254952 0.849099 0.331415
H10   H     H_    0.666118 0.746316 0.150454 0.356949
H11   H     H_    0.202488 0.029396 0.845987 0.071950
H12   H     H_    0.517717 0.079507 0.192219 0.196735
H13   H     H_    0.726415 0.122564 0.113760 0.044803
H14   H     H_    0.847845 0.905620 0.277054 0.102344
H15   H     H_    0.020827 0.143460 0.746568 0.100909
H16   H     H_    0.849274 0.202062 0.023160 0.072904
H17   H     H_    0.147216 0.792902 0.983431 0.067123
H18   H     H_    0.187655 0.908355 0.809955 0.065136
H19   H     H_    0.765227 0.185704 0.189169 0.048959
H20   H     H_    0.821971 0.202021 0.893228 0.087147
H21   H     H_    0.178736 0.797669 0.114772 0.085447
H22   H     H_    0.912426 0.811390 0.167798 0.081851
H23   H     H_    0.905190 0.832250 0.470147 0.203275
H24   H     H_    0.978831 0.218173 0.858903 0.042573
H25   H     H_    0.893995 0.234100 0.593482 0.217640
H26   H     H_    0.765656 0.402594 0.086996 0.202677
H27   H     H_    0.231286 0.597622 0.921339 0.195431
H28   H     H_    0.242523 0.905339 0.592941 0.199124
H29   H     H_    0.758263 0.112707 0.406264 0.216624
H30   H     H_    0.595711 0.239915 0.901309 0.224930
O1    O     O_R   0.982940 0.138950 0.510160 -0.640915
O2    O     O_R   0.982940 0.510160 0.138950 -0.613111
O3    O     O_R   0.861050 0.017060 0.489840 -0.640584
O4    O     O_R   0.138950 0.982940 0.510160 -0.601444
O5    O     O_R   0.867700 0.025880 0.612340 -0.578065
O6    O     O_R   0.132300 0.974120 0.387660 -0.569425
O7    O     O_R   0.025880 0.612340 0.867700 -0.617824
O8    O     O_R   0.974120 0.387660 0.132300 -0.584489
O9    O     O_R   0.612340 0.867700 0.025880 -0.568382
O10   O     O_R   0.387660 0.132300 0.974120 -0.593451
O11   O     O_R   0.387660 0.974120 0.132300 -0.545846
O12   O     O_R   0.017060 0.861050 0.489840 -0.625868
O13   O     O_R   0.612340 0.025880 0.867700 -0.529803
O14   O     O_R   0.132300 0.387660 0.974120 -0.525341
O15   O     O_R   0.867700 0.612340 0.025880 -0.550207
O16   O     O_R   0.974120 0.132300 0.387660 -0.531881
O17   O     O_R   0.025880 0.867700 0.612340 -0.601119
O18   O     O_3   0.297660 0.891704 0.287383 -0.719790
O19   O     O_3   0.711866 0.106627 0.716684 -0.692872
O20   O     O_3   0.895168 0.280579 0.285822 -0.712979
O21   O     O_3   0.953150 0.764631 0.762837 -0.709441
O22   O     O_3   0.286251 0.292518 0.888557 -0.705342
O23   O     O_R   0.138950 0.510160 0.982940 -0.625179
O24   O     O_3   0.714649 0.708622 0.110929 -0.685001
O25   O     O_2   0.320105 0.977711 0.875987 -0.501991
O26   O     O_2   0.683980 0.019446 0.133223 -0.500726
O27   O     O_2   0.959350 0.886481 0.306049 -0.520312
O28   O     O_2   0.899139 0.155580 0.743009 -0.543178
O29   O     O_2   0.877284 0.318816 0.986882 -0.550619
O30   O     O_2   0.118226 0.673884 0.036274 -0.553029
O31   O     O_2   0.133769 0.979685 0.706979 -0.561897
O32   O     O_2   0.843177 0.080805 0.262481 -0.518003
O33   O     O_2   0.723653 0.141860 0.947687 -0.514588
O34   O     O_R   0.861050 0.489840 0.017060 -0.651453
O35   O     O_2   0.276070 0.860183 0.049562 -0.506382
O36   O     O_2   0.808618 0.761891 0.204890 -0.521034
O37   O     O_2   0.054375 0.299143 0.824941 -0.515225
O38   O     O_R   0.510160 0.982940 0.138950 -0.630810
O39   O     O_R   0.489840 0.017060 0.861050 -0.625958
O40   O     O_R   0.489840 0.861050 0.017060 -0.592122
O41   O     O_R   0.510160 0.138950 0.982940 -0.619975
O42   O     O_R   0.017060 0.489840 0.861050 -0.604848
Zn1   Zn    Zn3+2 0.004880 0.004880 0.583590 1.109911
Zn2   Zn    Zn3+2 0.995120 0.995120 0.416410 1.135343
Zn3   Zn    Zn3+2 0.004880 0.583590 0.004880 1.099499
Zn4   Zn    Zn3+2 0.995120 0.416410 0.995120 1.136052
Zn5   Zn    Zn3+2 0.583590 0.004880 0.004880 1.171190
Zn6   Zn    Zn3+2 0.416410 0.995120 0.995120 1.150223

loop_
_geom_bond_atom_site_label_1
_geom_bond_atom_site_label_2
_ccdc_geom_bond_type
C96   C105  A    
C38   C70   A    
C69   H2    S    
C18   C95   S    
C89   C102  A    
C3    C85   A    
O15   Zn3   S    
C32   O39   A    
C53   C74   A    
C59   C82   A    
C40   C93   A    
C2    C65   A    
C67   H29   S    
O39   Zn6   S    
C51   C77   A    
C88   C101  A    
C22   C108  A    
C15   H20   S    
C106  C112  A    
C28   C57   S    
O4    Zn1   S    
C4    C108  A    
C39   O6    A    
C72   H4    S    
C34   C51   S    
C7    C99   S    
C79   C112  A    
O1    Zn1   S    
C84   C97   A    
C57   C76   A    
C38   C42   A    
O14   Zn4   S    
O6    Zn2   S    
C74   O19   S    
C81   C95   A    
C61   C93   A    
C1    C46   A    
C13   C57   A    
C41   C82   A    
C70   H3    S    
C23   C43   A    
C69   C71   A    
C87   C100  A    
C18   H24   S    
C91   C105  A    
C107  C113  A    
C54   C93   A    
O8    Zn4   S    
C85   C98   A    
H6    O19   S    
H10   O24   S    
H9    O22   S    
C8    H14   S    
C5    C22   A    
C19   C63   A    
C49   C72   A    
C39   O4    A    
C28   O17   A    
C14   O32   D    
O40   Zn6   S    
O2    Zn3   S    
C26   O16   A    
C61   H12   S    
C37   C47   S    
C10   H16   S    
C110  C114  A    
C38   C48   A    
C72   C81   A    
C1    C40   A    
C16   O35   D    
C88   C110  A    
C10   O29   D    
O12   Zn2   S    
C62   H23   S    
H8    O21   S    
C8    C105  S    
C68   C85   A    
C48   C75   A    
C12   C94   S    
C3    C24   A    
C86   C106  A    
C35   O7    A    
C64   C89   A    
C35   C50   S    
C52   C78   A    
H5    O18   S    
C95   C103  A    
C58   C75   A    
O41   Zn5   S    
C20   C106  A    
C34   O10   A    
C19   C58   A    
C30   O15   A    
O23   Zn3   S    
C13   C62   A    
C10   C102  S    
C24   C110  A    
C6    H11   S    
O11   Zn6   S    
C2    C44   A    
C55   C78   A    
C43   C49   A    
C36   O8    A    
C18   O37   D    
C77   O22   S    
C98   C102  A    
H7    O20   S    
C55   C104  A    
C56   C77   A    
C75   O20   S    
C33   C52   S    
C6    C100  S    
O42   Zn4   S    
C26   O1    A    
O13   Zn5   S    
C73   O18   S    
C86   C99   A    
C45   C104  A    
C50   C76   A    
C54   C73   A    
C65   H27   S    
C27   C41   A    
C94   C100  A    
C9    C103  S    
C62   C91   A    
C33   O40   A    
C1    C66   A    
C30   O34   A    
C67   C79   A    
C76   O21   S    
C11   C101  S    
C17   C96   S    
C37   O3    A    
C34   O41   A    
C70   C83   A    
C26   C58   S    
C14   C92   S    
C79   C92   A    
C21   C107  A    
C39   C46   S    
C21   C41   A    
C17   O36   D    
C36   O2    A    
C29   C56   S    
O5    Zn1   S    
C12   O31   D    
C31   O38   A    
C24   C44   A    
O38   Zn5   S    
O16   Zn2   S    
C15   C98   S    
C80   C94   A    
C25   C45   A    
C32   C53   S    
C13   C43   A    
C21   C112  A    
C45   C71   A    
C65   C88   A    
C28   O12   A    
C32   O13   A    
C64   H26   S    
C27   C47   A    
C4    C23   A    
O10   Zn6   S    
C11   O30   D    
C84   C114  A    
C12   H18   S    
C92   C99   A    
C63   H25   S    
O34   Zn4   S    
C64   C104  A    
C47   C74   A    
C37   O5    A    
C11   H17   S    
C68   H30   S    
C31   O11   A    
C8    O27   D    
C5    C83   A    
C29   O14   A    
C66   H28   S    
C14   H19   S    
C9    H15   S    
O3    Zn2   S    
C66   C80   A    
C30   C55   S    
C89   C111  A    
C78   O24   S    
C91   C109  A    
C15   O33   D    
C90   C108  A    
O17   Zn1   S    
C69   C84   A    
C2    C56   A    
C25   C114  A    
C19   C42   A    
C29   O23   A    
C20   C113  A    
C5    C109  A    
C44   C60   A    
C35   O42   A    
C20   C40   A    
C83   C96   A    
C4    C81   A    
C63   C90   A    
C36   C48   S    
C17   H22   S    
C33   O9    A    
C31   C54   S    
C16   C97   S    
C59   C87   A    
C90   C103  A    
C27   C67   A    
C61   C86   A    
C25   C111  A    
C3    C111  A    
O7    Zn3   S    
C87   C107  A    
C80   C113  A    
C60   C68   A    
C59   H1    S    
C49   C50   A    
C7    O26   D    
C22   C42   A    
C52   C71   A    
C53   C82   A    
C9    O28   D    
C51   C60   A    
C7    H13   S    
C16   H21   S    
C46   C73   A    
C97   C101  A    
C23   C109  A    
C6    O25   D    
O9    Zn5   S    
