data_mof_unit_11708.cif
_audit_creation_date              2012-12-11T15:38:12-0500
_audit_creation_method            fapswitch 2.2
_symmetry_space_group_name_H-M    P1
_symmetry_Int_Tables_number       1
_space_group_crystal_system       triclinic
_cell_length_a                    20.54447
_cell_length_b                    7.264699
_cell_length_c                    18.884935
_cell_angle_alpha                 89.99961
_cell_angle_beta                  107.303349
_cell_angle_gamma                 90.000447
_cell_volume                      2691.00641579

loop_
_atom_site_label
_atom_site_type_symbol
_atom_type_description
_atom_site_fract_x
_atom_site_fract_y
_atom_site_fract_z
_atom_type_partial_charge
O1    O     O_R   0.422200 0.494350 0.423850 -0.529553
O2    O     O_R   0.577800 0.994350 0.576150 -0.529554
O3    O     O_R   0.555980 0.819730 0.435060 -0.536839
O4    O     O_R   0.444020 0.319730 0.564940 -0.536839
C1    C     C_R   0.575720 0.655438 0.420756 0.724298
C2    C     C_R   0.424280 0.155436 0.579244 0.724298
O5    O     O_R   0.421370 0.823790 0.415230 -0.534102
O6    O     O_R   0.578630 0.323790 0.584770 -0.534104
O7    O     O_R   0.442220 0.998380 0.556180 -0.533404
O8    O     O_R   0.557780 0.498380 0.443820 -0.533404
C3    C     C_R   0.396312 0.655329 0.394238 0.708651
C4    C     C_R   0.603688 0.155329 0.605762 0.708649
O9    O     O_3   0.507000 0.662200 0.546270 -0.375025
O10   O     O_3   0.493000 0.162200 0.453730 -0.375024
V1    V     V_3+5 0.498700 0.935390 0.491420 1.421718
V2    V     V_3+5 0.501300 0.435390 0.508580 1.421712
C5    C     C_1   0.666407 0.145259 0.668049 -0.188332
C6    C     C_1   0.333593 0.645259 0.331951 -0.188333
C7    C     C_1   0.719010 0.134426 0.719657 0.001641
C8    C     C_1   0.280990 0.634425 0.280344 0.001642
C9    C     C_1   0.781039 0.120717 0.780286 0.001516
C10   C     C_1   0.218961 0.620718 0.219714 0.001519
C11   C     C_1   0.833626 0.109893 0.831916 -0.188794
C12   C     C_1   0.166374 0.609893 0.168083 -0.188793
C13   C     C_3   0.246535 0.305930 0.803885 -0.431647
C14   C     C_3   0.753467 0.805928 0.196113 -0.431638
C15   C     C_3   0.259378 0.959413 0.811221 0.035707
C16   C     C_3   0.740617 0.459412 0.188778 0.035706
C17   C     C_3   0.306080 0.964446 0.759116 -0.433968
C18   C     C_3   0.693918 0.464450 0.240887 -0.433950
H1    H     H_    0.271185 0.325096 0.864278 0.149386
H2    H     H_    0.728819 0.825101 0.135720 0.149382
H3    H     H_    0.230110 0.828661 0.801927 0.146264
H4    H     H_    0.769882 0.328657 0.198069 0.146266
H5    H     H_    0.360833 0.954998 0.790915 0.166806
H6    H     H_    0.639164 0.454998 0.209089 0.166803
H7    H     H_    0.295934 0.839733 0.723426 0.126553
H8    H     H_    0.704065 0.339740 0.276579 0.126553
C19   C     C_1   0.378661 0.147344 0.624791 -0.193471
C20   C     C_1   0.621340 0.647351 0.375209 -0.193487
C21   C     C_3   0.206484 0.120778 0.790488 0.145395
C22   C     C_3   0.793514 0.620770 0.209511 0.145378
C23   C     C_3   0.299046 0.316570 0.758371 0.032977
C24   C     C_3   0.700954 0.816573 0.241626 0.032987
C25   C     C_3   0.292530 0.139084 0.708899 0.145810
C26   C     C_3   0.707470 0.639092 0.291101 0.145814
C27   C     C_3   0.217544 0.124775 0.657186 0.263895
C28   C     C_3   0.782457 0.624789 0.342813 0.263902
C29   C     C_3   0.166597 0.111445 0.705181 -0.064157
C30   C     C_3   0.833401 0.611432 0.294817 -0.064106
C31   C     C_1   0.340222 0.143168 0.662774 -0.014738
C32   C     C_1   0.659778 0.643179 0.337226 -0.014789
C33   C     C_1   0.158633 0.117130 0.836633 -0.085402
C34   C     C_1   0.841366 0.617119 0.163366 -0.085408
C35   C     C_1   0.120269 0.111968 0.874676 -0.188551
C36   C     C_1   0.879730 0.611960 0.125324 -0.188545
H9    H     H_    0.135251 0.239563 0.693992 0.141319
H10   H     H_    0.864754 0.739539 0.306004 0.141344
H11   H     H_    0.210025 0.422701 0.787289 0.140989
H12   H     H_    0.789979 0.922694 0.212712 0.140995
H13   H     H_    0.283548 0.436959 0.720558 0.176404
H14   H     H_    0.716451 0.936967 0.279435 0.176407
H15   H     H_    0.216364 0.997705 0.623973 0.077573
H16   H     H_    0.783637 0.497735 0.376036 0.077545
O11   O     O_R   0.942270 0.764870 0.056240 -0.530498
O12   O     O_R   0.057730 0.264870 0.943760 -0.530499
O13   O     O_R   0.078640 0.431230 0.084780 -0.533574
O14   O     O_R   0.921360 0.931230 0.915220 -0.533574
C37   C     C_R   0.103682 0.599831 0.105759 0.706931
C38   C     C_R   0.896318 0.099831 0.894241 0.706930
O15   O     O_R   0.944030 0.435400 0.064960 -0.536783
O16   O     O_R   0.055970 0.935400 0.935040 -0.536783
O17   O     O_R   0.922190 0.260960 0.923840 -0.530141
O18   O     O_R   0.077810 0.760960 0.076160 -0.530141
C39   C     C_R   0.924911 0.603740 0.079291 0.715964
C40   C     C_R   0.075088 0.103742 0.920709 0.715965
O19   O     O_3   0.993030 0.592980 0.953770 -0.374381
O20   O     O_3   0.006970 0.092980 0.046230 -0.374381
V3    V     V_3+5 0.001290 0.319740 0.008580 1.419363
V4    V     V_3+5 0.998710 0.819740 0.991420 1.419361
C41   C     C_3   0.372925 0.356010 0.809418 -0.358446
C42   C     C_3   0.412807 0.487735 0.774540 -0.784476
H17   H     H_    0.420951 0.428577 0.723885 0.242823
H18   H     H_    0.385501 0.620468 0.760424 0.220320
H19   H     H_    0.463538 0.515429 0.814787 0.217817
H20   H     H_    0.371643 0.420830 0.862136 0.183950
H21   H     H_    0.402979 0.228135 0.825248 0.188381
C43   C     C_3   0.627076 0.856008 0.190576 -0.358447
C44   C     C_3   0.587192 0.987732 0.225452 -0.784484
H22   H     H_    0.579050 0.928579 0.276108 0.242827
H23   H     H_    0.614497 0.120469 0.239564 0.220319
H24   H     H_    0.536461 0.015416 0.185205 0.217820
H25   H     H_    0.628358 0.920824 0.137858 0.183949
H26   H     H_    0.597022 0.728130 0.174748 0.188384
C45   C     C_3   0.302313 0.959461 0.894392 -0.330211
C46   C     C_3   0.338190 0.775689 0.918664 -0.809250
H27   H     H_    0.300466 0.661811 0.908122 0.224485
H28   H     H_    0.376217 0.748344 0.888842 0.236544
H29   H     H_    0.365367 0.780023 0.979007 0.223065
H30   H     H_    0.341367 0.069997 0.905719 0.185988
H31   H     H_    0.269116 0.985380 0.930195 0.187619
C47   C     C_3   0.697680 0.459470 0.105608 -0.330211
C48   C     C_3   0.661800 0.275702 0.081335 -0.809258
H32   H     H_    0.699521 0.161821 0.091874 0.224486
H33   H     H_    0.623774 0.248356 0.111158 0.236547
H34   H     H_    0.634621 0.280041 0.020992 0.223067
H35   H     H_    0.658628 0.570009 0.094282 0.185989
H36   H     H_    0.730876 0.485389 0.069804 0.187620
C49   C     C_3   0.112156 0.953685 0.681800 -0.404754
C50   C     C_3   0.133917 0.771836 0.654178 -0.758713
H37   H     H_    0.135087 0.786181 0.596067 0.213351
H38   H     H_    0.184023 0.722950 0.689200 0.222719
H39   H     H_    0.095699 0.663819 0.654333 0.219511
H40   H     H_    0.090991 0.920780 0.727891 0.199594
H41   H     H_    0.068096 0.006365 0.636511 0.175036
C51   C     C_3   0.887836 0.453658 0.318201 -0.404787
C52   C     C_3   0.866065 0.271809 0.345817 -0.758679
H42   H     H_    0.864893 0.286142 0.403927 0.213381
H43   H     H_    0.815958 0.222937 0.310792 0.222721
H44   H     H_    0.904279 0.163785 0.345659 0.219506
H45   H     H_    0.909004 0.420755 0.272112 0.199590
H46   H     H_    0.931894 0.506326 0.363495 0.175058
O21   O     O_3   0.201932 0.282451 0.610559 -0.562969
C53   C     C_3   0.157612 0.236105 0.539993 0.095701
H47   H     H_    0.112331 0.158433 0.544556 0.116035
H48   H     H_    0.185269 0.152099 0.508887 0.120557
C54   C     C_3   0.132555 0.411371 0.496420 -0.725948
H49   H     H_    0.176561 0.494768 0.492176 0.226539
H50   H     H_    0.100024 0.376066 0.439718 0.174629
H51   H     H_    0.101932 0.493436 0.524538 0.214316
O22   O     O_3   0.798075 0.782487 0.389426 -0.562975
C55   C     C_3   0.842371 0.736158 0.460007 0.095660
H52   H     H_    0.887596 0.658165 0.455478 0.116017
H53   H     H_    0.814656 0.652472 0.491145 0.120640
C56   C     C_3   0.867562 0.911443 0.503503 -0.726087
H54   H     H_    0.823622 0.995197 0.507688 0.226567
H55   H     H_    0.900049 0.876176 0.560227 0.174657
H56   H     H_    0.898266 0.993127 0.475362 0.214305

loop_
_geom_bond_atom_site_label_1
_geom_bond_atom_site_label_2
_ccdc_geom_bond_type
O14   V4    S    
C56   H56   S    
C19   C31   T    
C3    C6    S    
C14   H2    S    
C15   C17   S    
C15   C45   S    
C45   C46   S    
O1    C3    A    
O16   C40   A    
O2    C4    A    
C13   C23   S    
C2    O7    A    
O15   V3    S    
C41   C42   S    
C14   C24   S    
O21   C53   S    
C27   C29   S    
C15   H3    S    
O5    C3    A    
O12   V3    S    
C14   C22   S    
C51   H46   S    
C29   C49   S    
C7    C9    S    
C52   H43   S    
C27   H15   S    
C28   H16   S    
C25   C31   S    
C46   H29   S    
C26   C32   S    
C29   H9    S    
C51   C52   S    
C18   H8    S    
C25   C27   S    
C16   C22   S    
C50   H37   S    
C55   H52   S    
C46   H28   S    
C4    C5    S    
C28   O22   S    
C47   H36   S    
C44   H23   S    
C6    C8    T    
C41   H20   S    
C28   C30   S    
C16   H4    S    
O6    V2    S    
C36   C39   S    
O18   V4    S    
C11   C38   S    
C21   C29   S    
C24   C26   S    
C12   C37   S    
C26   C28   S    
C33   C35   T    
C37   O18   A    
C34   C36   T    
C51   H45   S    
C30   H10   S    
C56   H54   S    
O13   V3    S    
O4    C2    A    
C49   C50   S    
C52   H44   S    
C13   C21   S    
C45   H30   S    
C24   H14   S    
C20   C32   T    
C17   C25   S    
O13   C37   A    
O4    V2    S    
C54   H50   S    
C15   C21   S    
C27   O21   S    
O6    C4    A    
O12   C40   A    
C46   H27   S    
C38   O17   A    
O17   V3    S    
C47   H35   S    
C48   H33   S    
O1    V2    S    
C44   H24   S    
O2    V1    S    
C23   C25   S    
C50   H39   S    
C21   C33   S    
C41   H21   S    
C49   H40   S    
C22   C30   S    
C53   C54   S    
C35   C40   S    
C55   H53   S    
C8    C10   S    
C42   H18   S    
C9    C11   T    
C23   C41   S    
C10   C12   T    
C1    C20   S    
O22   C55   S    
O3    V1    S    
C23   H13   S    
C53   H48   S    
O19   V4    S    
C56   H55   S    
C43   H25   S    
O20   V3    S    
C13   H1    S    
C18   C26   S    
O3    C1    A    
C54   H49   S    
C2    C19   S    
C42   H19   S    
C17   H5    S    
O11   C39   A    
C18   H6    S    
C16   C18   S    
O7    V1    S    
C54   H51   S    
C1    O8    A    
O16   V4    S    
O8    V2    S    
C52   H42   S    
C22   C34   S    
O15   C39   A    
C55   C56   S    
O5    V1    S    
C5    C7    T    
C48   H34   S    
C30   C51   S    
C47   C48   S    
C50   H38   S    
C49   H41   S    
C16   C47   S    
C43   C44   S    
O14   C38   A    
C42   H17   S    
O9    V2    S    
C17   H7    S    
C48   H32   S    
O11   V4    S    
C43   H26   S    
O10   V1    S    
C13   H11   S    
C44   H22   S    
C24   C43   S    
C14   H12   S    
C45   H31   S    
C53   H47   S    
