data_mof_unit_65377.cif
_audit_creation_date              2012-12-10T16:51:54-0500
_audit_creation_method            fapswitch 2.2
_symmetry_space_group_name_H-M    P1
_symmetry_Int_Tables_number       1
_space_group_crystal_system       triclinic
_cell_length_a                    18.392717
_cell_length_b                    18.327708
_cell_length_c                    18.381449
_cell_angle_alpha                 90.890882
_cell_angle_beta                  119.585978
_cell_angle_gamma                 119.456556
_cell_volume                      4410.31882706

loop_
_atom_site_label
_atom_site_type_symbol
_atom_type_description
_atom_site_fract_x
_atom_site_fract_y
_atom_site_fract_z
_atom_type_partial_charge
C1    C     C_R   0.777018 0.638819 0.638626 0.850458
C2    C     C_2   0.112283 0.307634 0.309046 -0.294845
C3    C     C_2   0.455879 0.164453 0.719688 -0.120626
C4    C     C_R   0.222927 0.361484 0.361788 0.852965
C5    C     C_2   0.510937 0.196131 0.808604 -0.236450
C6    C     C_2   0.468760 0.225678 0.669277 -0.250833
C7    C     C_2   0.485905 0.305168 0.693759 0.353813
C8    C     C_2   0.056011 0.778625 0.718642 -0.160713
C9    C     C_2   0.112366 0.803427 0.807683 -0.292449
C10   C     C_2   0.943637 0.720020 0.662550 -0.163025
C11   C     C_2   0.887761 0.696651 0.695600 -0.293951
C12   C     C_3   0.594415 0.826746 0.803045 -0.276679
C13   C     C_2   0.479564 0.167407 0.258474 0.546149
C14   C     C_2   0.520771 0.197994 0.213468 -0.305322
C15   C     C_2   0.495577 0.234783 0.319237 -0.427842
C16   C     C_R   0.499563 0.638040 0.361077 0.854817
C17   C     C_2   0.487510 0.300428 0.294689 0.335312
C18   C     C_2   0.440428 0.777903 0.221481 -0.158434
C19   C     C_2   0.504489 0.808901 0.196660 -0.294133
C20   C     C_2   0.442801 0.724183 0.280163 -0.164083
C21   C     C_2   0.498161 0.690530 0.302854 -0.299613
C22   C     C_R   0.501707 0.138779 0.861687 0.832847
C23   C     C_3   0.526937 0.792802 0.699820 -0.228945
C24   C     C_R   0.500531 0.861857 0.138841 0.849868
C25   C     C_R   0.777166 0.138700 0.138219 0.851707
C26   C     C_R   0.223077 0.861235 0.861565 0.850677
C27   C     C_R   0.504293 0.141241 0.144929 0.874810
C28   C     C_R   0.497543 0.361373 0.638702 0.707252
C29   C     C_R   0.500009 0.858324 0.858289 0.802366
C30   C     C_R   0.497276 0.358706 0.356648 0.770182
C31   C     C_R   0.499985 0.641626 0.641797 0.796369
C32   C     C_3   0.565776 0.732181 0.801041 0.560791
C33   C     C_3   0.472282 0.706629 0.800419 -0.288978
C34   C     C_3   0.432612 0.768341 0.698443 -0.095773
C35   C     C_3   0.499728 0.800908 0.800855 -0.006509
C36   C     C_3   0.539753 0.411559 0.813833 0.121898
C37   C     C_3   0.540639 0.417366 0.896957 -0.846298
C38   C     C_3   0.361731 0.049926 0.273585 0.127979
C39   C     C_3   0.297203 0.948703 0.244609 -0.815602
C40   C     C_3   0.681443 0.745895 0.941974 0.103298
C41   C     C_3   0.760277 0.726136 0.994667 -0.819185
C42   C     C_3   0.486712 0.378238 0.194924 0.070904
C43   C     C_3   0.420085 0.412905 0.172654 -0.310028
C44   C     C_3   0.468306 0.503731 0.161880 -0.955924
C45   C     C_3   0.405801 0.673625 0.697201 -0.226031
C46   C     C_3   0.500098 0.698899 0.699329 -0.003352
C47   C     C_2   0.943719 0.162354 0.222026 -0.162651
C48   C     C_2   0.887836 0.195568 0.190962 -0.295808
C49   C     C_2   0.056037 0.218433 0.275674 -0.159441
H1    H     H_    0.450079 0.672320 0.842421 0.136036
H2    H     H_    0.570137 0.269249 0.227916 0.125142
H3    H     H_    0.516190 0.231425 0.385074 0.123842
H4    H     H_    0.384364 0.793198 0.199192 0.177517
H5    H     H_    0.563343 0.797496 0.219437 0.148932
H6    H     H_    0.396047 0.711431 0.304516 0.175339
H7    H     H_    0.543375 0.699479 0.278065 0.150128
H8    H     H_    0.671650 0.889891 0.847436 0.139013
H9    H     H_    0.548573 0.826788 0.657395 0.150393
H10   H     H_    0.377378 0.784197 0.656752 0.148742
H11   H     H_    0.328660 0.610428 0.652617 0.151414
H12   H     H_    0.078514 0.344098 0.299705 0.149480
H13   H     H_    0.906241 0.090872 0.206973 0.174044
H14   H     H_    0.921886 0.265951 0.202180 0.149466
H15   H     H_    0.093184 0.184259 0.288762 0.175401
H16   H     H_    0.516017 0.453681 0.781019 0.185887
H17   H     H_    0.618789 0.437660 0.835114 0.142489
H18   H     H_    0.564509 0.376429 0.932198 0.255598
H19   H     H_    0.595096 0.487672 0.942417 0.207875
H20   H     H_    0.463214 0.392722 0.878584 0.263921
H21   H     H_    0.309480 0.070768 0.238311 0.153966
H22   H     H_    0.401852 0.077022 0.346695 0.136278
H23   H     H_    0.405071 0.093187 0.683641 0.165332
H24   H     H_    0.346763 0.925501 0.279305 0.253637
H25   H     H_    0.240897 0.925598 0.261326 0.199953
H26   H     H_    0.255545 0.919391 0.171602 0.262665
H27   H     H_    0.623726 0.714830 0.957371 0.139255
H28   H     H_    0.721209 0.819536 0.963928 0.142812
H29   H     H_    0.820149 0.757599 0.981948 0.259246
H30   H     H_    0.796686 0.753215 0.066925 0.203654
H31   H     H_    0.723006 0.653020 0.974746 0.250890
H32   H     H_    0.490829 0.368190 0.137648 0.160422
H33   H     H_    0.567148 0.428526 0.252667 0.145005
H34   H     H_    0.568435 0.267124 0.844755 0.176273
H35   H     H_    0.343719 0.364717 0.109679 0.221300
H36   H     H_    0.409001 0.418997 0.225993 0.213055
H37   H     H_    0.544111 0.553348 0.224646 0.275834
H38   H     H_    0.418337 0.526952 0.145745 0.261960
H39   H     H_    0.477606 0.499039 0.107062 0.258746
H40   H     H_    0.465033 0.204761 0.611170 0.126719
H41   H     H_    0.093107 0.801020 0.684585 0.175194
H42   H     H_    0.078622 0.780737 0.844018 0.149601
H43   H     H_    0.906100 0.696367 0.591152 0.174858
H44   H     H_    0.921872 0.720592 0.765935 0.151576
O1    O     O_3   0.500000 0.500000 0.500000 -0.483610
O2    O     O_R   0.270900 0.886160 0.946260 -0.646042
O3    O     O_R   0.560160 0.177420 0.117340 -0.663288
O4    O     O_R   0.729180 0.615300 0.675360 -0.639488
O5    O     O_R   0.440020 0.882760 0.822680 -0.647113
O6    O     O_R   0.439990 0.057240 0.117340 -0.581467
O7    O     O_R   0.560190 0.882760 0.942820 -0.656032
O8    O     O_R   0.729270 0.053840 0.113900 -0.644241
O9    O     O_R   0.270910 0.884750 0.824690 -0.642822
O10   O     O_R   0.560170 0.175430 0.946260 -0.646332
O11   O     O_R   0.440000 0.886160 0.115330 -0.634306
O12   O     O_R   0.439910 0.615300 0.386140 -0.642855
O13   O     O_R   0.270820 0.446200 0.386140 -0.646654
O14   O     O_R   0.560090 0.613880 0.384720 -0.647958
O15   O     O_R   0.439920 0.324620 0.553780 -0.643897
O16   O     O_R   0.560100 0.442800 0.382710 -0.668156
O17   O     O_R   0.560070 0.617290 0.677370 -0.603457
O18   O     O_R   0.439930 0.322630 0.382710 -0.652032
O19   O     O_R   0.439900 0.617290 0.557220 -0.649640
O20   O     O_3   0.468896 0.321979 0.756314 -0.611104
O21   O     O_3   0.433175 0.077982 0.252286 -0.589975
O22   O     O_3   0.635201 0.710174 0.850446 -0.601529
O23   O     O_R   0.560080 0.446200 0.675360 -0.666910
O24   O     O_3   0.441137 0.294331 0.205369 -0.659199
O25   O     O_R   0.729180 0.613880 0.553780 -0.642684
O26   O     O_R   0.270820 0.324620 0.384720 -0.639433
O27   O     O_3   0.500090 0.000040 0.000040 -0.491423
O28   O     O_R   0.440010 0.053840 0.824690 -0.641613
O29   O     O_R   0.560180 0.884750 0.113900 -0.650582
O30   O     O_R   0.729260 0.175430 0.115330 -0.647241
Zn1   Zn    Zn3+2 0.414150 0.543930 0.458110 0.963017
Zn2   Zn    Zn3+2 0.585850 0.541910 0.456060 0.950380
Zn3   Zn    Zn3+2 0.414160 0.370220 0.456060 0.962747
Zn4   Zn    Zn3+2 0.585840 0.543930 0.629770 0.981347
Zn5   Zn    Zn3+2 0.585940 0.956110 0.041940 0.951431
Zn6   Zn    Zn3+2 0.585930 0.129820 0.043980 0.964918
Zn7   Zn    Zn3+2 0.414240 0.958130 0.043980 0.995509
Zn8   Zn    Zn3+2 0.414250 0.956110 0.870280 0.961904

loop_
_geom_bond_atom_site_label_1
_geom_bond_atom_site_label_2
_ccdc_geom_bond_type
C23   H9    S    
C38   H21   S    
C45   H11   S    
C16   C21   S    
C17   C30   S    
C37   H20   S    
O27   Zn8   S    
C33   C45   S    
C42   H33   S    
O4    Zn4   S    
C3    C6    S    
C9    H42   S    
C41   H31   S    
C47   C49   S    
C45   C46   S    
C12   C23   S    
C27   O6    A    
C29   O5    A    
O27   Zn7   S    
C36   C37   S    
O28   Zn8   S    
O19   Zn1   S    
C38   C39   S    
C38   O21   S    
C36   H17   S    
C40   O22   S    
C37   H19   S    
O8    Zn5   S    
C18   C19   D    
C39   H25   S    
C28   O23   A    
C18   H4    S    
O6    Zn7   S    
C5    C22   S    
C47   C48   D    
C8    C9    D    
O23   Zn4   S    
C1    C11   S    
O5    Zn8   S    
O2    Zn7   S    
C31   O19   A    
C4    O26   A    
O25   Zn2   S    
C39   H26   S    
C14   C27   S    
C44   H38   S    
C13   O21   S    
C16   O14   A    
C2    H12   S    
C17   O24   S    
O17   Zn4   S    
C11   H44   S    
C10   H43   S    
C23   C46   S    
O11   Zn7   S    
C13   C14   D    
C12   C32   S    
C43   H35   S    
C27   O3    A    
C42   H32   S    
C47   H13   S    
C20   H6    S    
C44   H37   S    
C36   O20   S    
C9    C26   S    
O1    Zn3   S    
C30   O16   A    
O27   Zn6   S    
C43   H36   S    
O9    Zn8   S    
O14   Zn2   S    
C1    O4    A    
C41   H29   S    
C36   H16   S    
C48   H14   S    
C33   H1    S    
O1    Zn4   S    
C4    O13   A    
C31   C46   S    
C7    C28   S    
C40   H27   S    
O12   Zn1   S    
C24   O11   A    
C2    C4    S    
C43   C44   S    
C2    C49   D    
C25   O30   A    
C14   H2    S    
C34   C35   S    
C23   C34   S    
O18   Zn3   S    
C24   O29   A    
C34   C45   S    
C15   H3    S    
C12   C35   S    
O10   Zn6   S    
C25   C48   S    
C16   O12   A    
C12   H8    S    
C19   H5    S    
O16   Zn2   S    
C40   C41   S    
C13   C15   S    
C34   H10   S    
C8    H41   S    
C42   C43   S    
C22   O28   A    
O1    Zn2   S    
C26   O2    A    
C15   C17   D    
C38   H22   S    
C29   O7    A    
O7    Zn5   S    
C32   C46   S    
C3    C5    D    
C41   H30   S    
C21   H7    S    
O27   Zn5   S    
C42   O24   S    
C6    C7    D    
C6    H40   S    
C29   C35   S    
C30   O18   A    
C32   C33   S    
C7    O20   S    
C19   C24   S    
C26   O9    A    
C25   O8    A    
C28   O15   A    
C5    H34   S    
C37   H18   S    
C33   C35   S    
C31   O17   A    
C3    H23   S    
C18   C20   S    
C1    O25   A    
C39   H24   S    
C32   O22   S    
O29   Zn5   S    
C10   C11   D    
C22   O10   A    
O26   Zn3   S    
C20   C21   D    
C8    C10   S    
O13   Zn1   S    
C49   H15   S    
C40   H28   S    
O15   Zn3   S    
C44   H39   S    
O30   Zn6   S    
O3    Zn6   S    
O1    Zn1   S    
