data_mof_unit_58903.cif
_audit_creation_date              2012-12-11T16:44:11-0500
_audit_creation_method            fapswitch 2.2
_symmetry_space_group_name_H-M    P1
_symmetry_Int_Tables_number       1
_space_group_crystal_system       triclinic
_cell_length_a                    27.2175
_cell_length_b                    7.200712
_cell_length_c                    22.824311
_cell_angle_alpha                 89.98969
_cell_angle_beta                  101.48223
_cell_angle_gamma                 89.985342
_cell_volume                      4383.70591738

loop_
_atom_site_label
_atom_site_type_symbol
_atom_type_description
_atom_site_fract_x
_atom_site_fract_y
_atom_site_fract_z
_atom_type_partial_charge
O1    O     O_R   0.707300 0.594030 0.176840 -0.532234
O2    O     O_R   0.292700 0.405970 0.823160 -0.532232
O3    O     O_R   0.792700 0.094030 0.323160 -0.532253
O4    O     O_R   0.207300 0.905970 0.676840 -0.532250
O5    O     O_R   0.697330 0.262360 0.295660 -0.540935
O6    O     O_R   0.302670 0.737640 0.704340 -0.540934
O7    O     O_R   0.802670 0.762360 0.204340 -0.540936
O8    O     O_R   0.197330 0.237640 0.795660 -0.540936
C1    C     C_R   0.684773 0.432488 0.311736 0.674805
C2    C     C_R   0.315226 0.567512 0.688263 0.674808
C3    C     C_R   0.815228 0.932477 0.188264 0.674876
C4    C     C_R   0.184772 0.067523 0.811737 0.674875
O9    O     O_R   0.701410 0.264250 0.175600 -0.534357
O10   O     O_R   0.298590 0.735750 0.824400 -0.534359
O11   O     O_R   0.798590 0.764250 0.324400 -0.534395
O12   O     O_R   0.201410 0.235750 0.675600 -0.534397
O13   O     O_R   0.796800 0.094950 0.202240 -0.539057
O14   O     O_R   0.203200 0.905050 0.797760 -0.539057
O15   O     O_R   0.703200 0.594950 0.297760 -0.539054
O16   O     O_R   0.296800 0.405050 0.702240 -0.539057
C5    C     C_R   0.689744 0.432567 0.153487 0.693525
C6    C     C_R   0.310255 0.567433 0.846513 0.693527
C7    C     C_R   0.810260 0.932495 0.346517 0.693507
C8    C     C_R   0.189740 0.067505 0.653483 0.693505
O17   O     O_3   0.781290 0.427390 0.258880 -0.373384
O18   O     O_3   0.218710 0.572610 0.741120 -0.373383
O19   O     O_3   0.718710 0.927390 0.241120 -0.373338
O20   O     O_3   0.281290 0.072610 0.758880 -0.373337
V1    V     V_3+5 0.744190 0.152150 0.248350 1.413643
V2    V     V_3+5 0.255810 0.847850 0.751650 1.413644
V3    V     V_3+5 0.755810 0.652150 0.251650 1.413645
V4    V     V_3+5 0.244190 0.347850 0.748350 1.413644
C9    C     C_R   0.154896 0.062611 0.595020 -0.049828
C10   C     C_R   0.845104 0.937389 0.404980 -0.049829
C11   C     C_R   0.345090 0.562136 0.904970 -0.049537
C12   C     C_R   0.654910 0.437864 0.095030 -0.049536
C13   C     C_R   0.139870 0.124058 0.488597 -0.030324
C14   C     C_R   0.860130 0.875942 0.511403 -0.030324
C15   C     C_R   0.359856 0.618971 0.011632 -0.030274
C16   C     C_R   0.640144 0.381028 0.988368 -0.030274
C17   C     C_R   0.172361 0.115025 0.544113 -0.196386
C18   C     C_R   0.827639 0.884975 0.455887 -0.196388
C19   C     C_R   0.327445 0.611460 0.956035 -0.196674
C20   C     C_R   0.672555 0.388539 0.043965 -0.196674
C21   C     C_R   0.103993 0.019311 0.590575 -0.211371
C22   C     C_R   0.896007 0.980688 0.409425 -0.211370
C23   C     C_R   0.396085 0.520511 0.909327 -0.211265
C24   C     C_R   0.603915 0.479489 0.090673 -0.211267
C25   C     C_R   0.069269 0.030079 0.534894 0.080729
C26   C     C_R   0.930731 0.969920 0.465106 0.080730
C27   C     C_R   0.430719 0.529715 0.965098 0.080786
C28   C     C_R   0.569281 0.470285 0.034902 0.080787
C29   C     C_R   0.088206 0.083024 0.483495 0.085235
C30   C     C_R   0.911794 0.916976 0.516505 0.085236
C31   C     C_R   0.411605 0.579424 0.016666 0.085185
C32   C     C_R   0.588395 0.420575 0.983334 0.085185
C33   C     C_R   0.016482 0.992337 0.528662 0.066894
C34   C     C_R   0.983518 0.007663 0.471338 0.066894
C35   C     C_R   0.483573 0.493322 0.971276 0.066897
C36   C     C_R   0.516427 0.506678 0.028724 0.066898
C37   C     C_R   0.004464 0.059645 0.422048 -0.185847
C38   C     C_R   0.995536 0.940355 0.577952 -0.185847
C39   C     C_R   0.495308 0.555411 0.078182 -0.185851
C40   C     C_R   0.504692 0.444589 0.921818 -0.185849
C41   C     C_R   0.055255 0.095852 0.428018 -0.187610
C42   C     C_R   0.944745 0.904147 0.571982 -0.187610
C43   C     C_R   0.444454 0.590403 0.072256 -0.187705
C44   C     C_R   0.555545 0.409596 0.927744 -0.187706
H1    H     H_    0.068513 0.135505 0.388105 0.142504
H2    H     H_    0.931487 0.864494 0.611895 0.142504
H3    H     H_    0.431063 0.627533 0.112303 0.142515
H4    H     H_    0.568937 0.372466 0.887697 0.142516
H5    H     H_    0.907175 0.017893 0.368303 0.097209
H6    H     H_    0.092825 0.982107 0.631697 0.097210
H7    H     H_    0.592631 0.514504 0.131906 0.096946
H8    H     H_    0.407369 0.485497 0.868094 0.096948
H9    H     H_    0.788355 0.849901 0.452117 0.114039
H10   H     H_    0.211645 0.150098 0.547883 0.114036
H11   H     H_    0.711923 0.354870 0.047660 0.113872
H12   H     H_    0.288077 0.645128 0.952340 0.113871
H13   H     H_    0.982575 0.074477 0.377547 0.125630
H14   H     H_    0.017425 0.925522 0.622453 0.125630
H15   H     H_    0.517102 0.568508 0.122792 0.125641
H16   H     H_    0.482898 0.431491 0.877208 0.125642
C45   C     C_R   0.872058 0.117636 0.135761 -0.157186
C46   C     C_R   0.127958 0.882366 0.864260 -0.157177
C47   C     C_R   0.627904 0.617656 0.364192 -0.157219
C48   C     C_R   0.372038 0.382333 0.635728 -0.157185
H17   H     H_    0.858772 0.245152 0.152391 0.125321
H18   H     H_    0.141256 0.754852 0.847646 0.125320
H19   H     H_    0.641159 0.745161 0.347527 0.125347
H20   H     H_    0.358736 0.254816 0.652331 0.125338
C49   C     C_R   0.907674 0.130301 0.099419 -0.140570
C50   C     C_R   0.092341 0.869700 0.900601 -0.140561
C51   C     C_R   0.592285 0.630322 0.400531 -0.140580
C52   C     C_R   0.407660 0.369668 0.599392 -0.140558
H21   H     H_    0.921013 0.266502 0.089881 0.101969
H22   H     H_    0.079013 0.733497 0.910153 0.101962
H23   H     H_    0.578912 0.766515 0.410033 0.101969
H24   H     H_    0.420989 0.233458 0.589839 0.101934
C53   C     C_R   0.926346 0.969727 0.076432 0.096509
C54   C     C_R   0.073653 0.030271 0.923570 0.096504
C55   C     C_R   0.573653 0.469755 0.423562 0.096506
C56   C     C_R   0.426348 0.530245 0.576433 0.096515
C57   C     C_R   0.908665 0.795625 0.091335 -0.136348
C58   C     C_R   0.091321 0.204371 0.908648 -0.136340
C59   C     C_R   0.591377 0.295661 0.408705 -0.136377
C60   C     C_R   0.408677 0.704346 0.591364 -0.136360
H25   H     H_    0.921731 0.669014 0.073896 0.101931
H26   H     H_    0.078244 0.330982 0.926073 0.101925
H27   H     H_    0.578343 0.169058 0.426181 0.101926
H28   H     H_    0.421751 0.830969 0.573947 0.101895
C61   C     C_R   0.873010 0.782773 0.127875 -0.155258
C62   C     C_R   0.126976 0.217223 0.872107 -0.155259
C63   C     C_R   0.627031 0.282809 0.372165 -0.155239
C64   C     C_R   0.373024 0.717197 0.627906 -0.155251
H29   H     H_    0.860001 0.646484 0.137860 0.120887
H30   H     H_    0.139972 0.353512 0.862105 0.120888
H31   H     H_    0.640073 0.146525 0.362216 0.120922
H32   H     H_    0.360030 0.853491 0.637919 0.120924
C65   C     C_R   0.854023 0.943792 0.150447 -0.050218
C66   C     C_R   0.145978 0.056208 0.849555 -0.050229
C67   C     C_R   0.645978 0.443818 0.349551 -0.050237
C68   C     C_R   0.354020 0.556179 0.650445 -0.050254
C69   C     C_R   0.003418 0.855747 0.041609 -0.145784
C70   C     C_R   0.996579 0.144249 0.958393 -0.145781
C71   C     C_R   0.496619 0.355705 0.458427 -0.145824
C72   C     C_R   0.503387 0.644292 0.541567 -0.145811
H33   H     H_    0.007407 0.744682 0.074194 0.114174
H34   H     H_    0.992589 0.255309 0.925806 0.114170
H35   H     H_    0.492658 0.244601 0.425873 0.114132
H36   H     H_    0.507355 0.755384 0.574125 0.114116
C73   C     C_R   0.038928 0.870992 0.005076 -0.143232
C74   C     C_R   0.961071 0.129011 0.994928 -0.143234
C75   C     C_R   0.461110 0.370934 0.494961 -0.143225
C76   C     C_R   0.538892 0.629079 0.505026 -0.143233
H37   H     H_    0.069211 0.770993 0.010583 0.115023
H38   H     H_    0.930789 0.229016 0.989425 0.115024
H39   H     H_    0.430854 0.270889 0.489480 0.114972
H40   H     H_    0.569145 0.729137 0.510497 0.114981
C77   C     C_R   0.036001 0.015382 0.962905 0.079271
C78   C     C_R   0.963997 0.984616 0.037097 0.079269
C79   C     C_R   0.464001 0.515365 0.537096 0.079317
C80   C     C_R   0.536002 0.484639 0.462897 0.079304
C81   C     C_1   0.160792 0.178950 0.437719 0.291779
N1    N     N_1   0.177577 0.222905 0.397048 -0.330947
C82   C     C_1   0.839208 0.821049 0.562281 0.291777
N2    N     N_1   0.822422 0.777093 0.602951 -0.330948
C83   C     C_1   0.338751 0.670499 0.062691 0.291757
N3    N     N_1   0.321820 0.711752 0.103506 -0.330915
C84   C     C_1   0.661248 0.329498 0.937310 0.291757
N4    N     N_1   0.678180 0.288244 0.896494 -0.330915

loop_
_geom_bond_atom_site_label_1
_geom_bond_atom_site_label_2
_ccdc_geom_bond_type
O17   V3    S    
C48   C52   A    
O1    C5    A    
C47   H19   S    
O19   V1    S    
C9    C21   A    
O3    C7    A    
C82   N2    T    
C10   C18   A    
C48   C68   A    
C11   C23   A    
C55   C80   S    
C81   N1    T    
C25   C33   A    
C33   C38   A    
C5    C12   S    
C73   H37   S    
C6    C11   S    
C35   C40   A    
C26   C30   A    
C58   C62   A    
C36   C39   A    
C40   C44   A    
C57   C61   A    
C71   C75   A    
C23   H8    S    
C14   C18   A    
C2    C68   S    
C72   C76   A    
C58   H26   S    
O4    C8    A    
C51   H23   S    
C44   H4    S    
C70   H34   S    
O1    V3    S    
O13   V1    S    
O2    V4    S    
O3    V1    S    
C40   H16   S    
C46   C50   A    
C45   C49   A    
C1    O15   A    
C15   C31   A    
C48   H20   S    
C2    O16   A    
C16   C32   A    
C47   C51   A    
O2    C6    A    
C84   N4    T    
C45   C65   A    
C10   C22   A    
C54   C77   S    
C11   C19   A    
C16   C20   A    
C43   H3    S    
C76   H40   S    
C13   C29   A    
C34   C37   A    
O11   C7    A    
C38   H14   S    
O15   V3    S    
C35   C36   A    
O12   C8    A    
C24   H7    S    
C3    C65   S    
O10   V2    S    
C72   H36   S    
C51   C55   A    
O7    C3    A    
O5    V1    S    
C53   C57   A    
C39   C43   A    
C63   C67   A    
C38   C42   A    
C26   C34   A    
O7    V3    S    
C4    C66   S    
C15   C83   S    
C46   H18   S    
C49   C53   A    
C17   H10   S    
C45   H17   S    
O18   V4    S    
C23   C27   A    
C19   H12   S    
C32   C44   A    
C64   H32   S    
C16   C84   S    
C39   H15   S    
C21   H6    S    
O8    V4    S    
C75   H39   S    
O5    C1    A    
C37   C41   A    
C74   C78   A    
C53   C78   S    
C31   C43   A    
C14   C30   A    
C21   C25   A    
C69   C78   A    
O8    C4    A    
C7    C10   S    
C56   C79   S    
O9    C5    A    
C59   C63   A    
C62   H30   S    
C61   H29   S    
O6    V2    S    
C63   H31   S    
C52   C56   A    
C69   H33   S    
O14   V2    S    
C12   C20   A    
C27   C35   A    
O9    V1    S    
C49   H21   S    
C56   C60   A    
C29   C41   A    
O16   V4    S    
C69   C73   A    
C57   H25   S    
C3    O13   A    
C64   C68   A    
C59   H27   S    
C20   H11   S    
C74   H38   S    
C15   C19   A    
O11   V3    S    
C30   C42   A    
O12   V4    S    
C22   C26   A    
C70   C77   A    
C73   C77   A    
C8    C9    S    
C9    C17   A    
O10   C6    A    
O20   V2    S    
C76   C80   A    
C37   H13   S    
C83   N3    T    
C47   C67   A    
C60   C64   A    
C33   C34   A    
C42   H2    S    
C41   H1    S    
C52   H24   S    
C75   C79   A    
C1    C67   S    
C12   C24   A    
C27   C31   A    
C71   C80   A    
C13   C17   A    
C46   C66   A    
C72   C79   A    
C71   H35   S    
C14   C82   S    
C25   C29   A    
O6    C2    A    
C62   C66   A    
C60   H28   S    
C24   C28   A    
C61   C65   A    
C70   C74   A    
C18   H9    S    
C28   C36   A    
C54   C58   A    
C4    O14   A    
C50   H22   S    
C55   C59   A    
C13   C81   S    
C22   H5    S    
O4    V2    S    
C28   C32   A    
C50   C54   A    
