data_mof_unit_20600.cif
_audit_creation_date              2012-12-10T17:53:24-0500
_audit_creation_method            fapswitch 2.2
_symmetry_space_group_name_H-M    P1
_symmetry_Int_Tables_number       1
_space_group_crystal_system       triclinic
_cell_length_a                    23.44682
_cell_length_b                    10.681299
_cell_length_c                    9.873061
_cell_angle_alpha                 91.378168
_cell_angle_beta                  90.065504
_cell_angle_gamma                 91.721561
_cell_volume                      2470.79869575

loop_
_atom_site_label
_atom_site_type_symbol
_atom_type_description
_atom_site_fract_x
_atom_site_fract_y
_atom_site_fract_z
_atom_type_partial_charge
C1    C     C_R   0.504454 0.260377 0.498801 0.887333
C2    C     C_R   0.122210 0.602308 0.455049 0.572024
C3    C     C_R   0.238122 0.503190 0.622236 -0.085274
C4    C     C_R   0.389355 0.499038 0.499927 0.844565
C5    C     C_R   0.297301 0.503738 0.622675 -0.193366
C6    C     C_R   0.327173 0.496889 0.499698 -0.038680
C7    C     C_R   0.297146 0.487884 0.376534 -0.213811
C8    C     C_R   0.237944 0.486953 0.376512 -0.090977
C9    C     C_R   0.208519 0.495233 0.499252 0.286002
C10   C     C_R   0.762406 0.497078 0.380252 -0.092741
C11   C     C_R   0.703160 0.494604 0.378701 -0.197320
C12   C     C_R   0.965833 0.299320 0.599419 -0.247524
C13   C     C_R   0.672867 0.502935 0.500998 -0.047641
C14   C     C_R   0.702507 0.514303 0.624561 -0.213678
C15   C     C_R   0.761683 0.517273 0.625688 -0.098373
C16   C     C_R   0.494016 0.739443 0.502801 0.897618
C17   C     C_R   0.791579 0.508463 0.503701 0.301439
C18   C     C_R   0.553448 0.123971 0.724411 -0.168950
C19   C     C_R   0.555112 0.070774 0.851652 -0.262821
C20   C     C_R   0.525320 0.957678 0.874063 0.454971
C21   C     C_R   0.499039 0.893925 0.764472 -0.157484
C22   C     C_R   0.501854 0.941836 0.631535 -0.012157
C23   C     C_R   0.025088 0.293314 0.594908 0.526863
C24   C     C_R   0.521834 0.064977 0.617099 0.100488
C25   C     C_R   0.507372 0.126687 0.497641 -0.191382
C26   C     C_R   0.483012 0.061680 0.386650 -0.216871
C27   C     C_R   0.471528 0.935305 0.392564 0.462788
C28   C     C_R   0.610655 0.500689 0.500129 0.880569
C29   C     C_R   0.485326 0.872846 0.511884 -0.262009
C30   C     C_R   0.426998 0.332453 0.136322 -0.226523
C31   C     C_R   0.391756 0.247610 0.064373 -0.304595
C32   C     C_R   0.392154 0.244952 0.922693 0.544911
C33   C     C_R   0.426371 0.332553 0.855670 -0.200338
C34   C     C_R   0.057831 0.397320 0.548998 -0.091401
C35   C     C_R   0.463811 0.417369 0.925658 0.070281
C36   C     C_R   0.464007 0.417224 0.070235 0.074864
C37   C     C_R   0.535030 0.579197 0.074528 0.549601
C38   C     C_R   0.534749 0.578756 0.930032 -0.223850
C39   C     C_R   0.881993 0.611460 0.459092 0.542460
C40   C     C_R   0.878852 0.407637 0.553501 0.537157
C41   C     C_R   0.938234 0.404680 0.553915 -0.042142
C42   C     C_R   0.970201 0.508901 0.507170 -0.070444
C43   C     C_R   0.942103 0.616094 0.463580 -0.150053
C44   C     C_3   0.044250 0.089224 0.549052 -0.153758
C45   C     C_R   0.030180 0.505417 0.504497 -0.160725
C46   C     C_3   0.358716 0.040814 0.889697 -0.239091
C47   C     C_R   0.062408 0.609192 0.456312 -0.115568
C48   C     C_R   0.034539 0.717010 0.412865 0.435103
C49   C     C_R   0.974707 0.722550 0.422831 0.327570
C50   C     C_R   0.117587 0.396531 0.545049 0.532532
H1    H     H_    0.941556 0.220257 0.638569 0.205172
H2    H     H_    0.363581 0.185434 0.119959 0.172222
H3    H     H_    0.422398 0.330334 0.748427 0.224550
H4    H     H_    0.562804 0.642465 0.876052 0.157396
H5    H     H_    0.215162 0.509846 0.717129 0.147490
H6    H     H_    0.319539 0.510383 0.718925 0.166966
H7    H     H_    0.319273 0.481734 0.280463 0.169661
H8    H     H_    0.214840 0.480449 0.281438 0.147429
H9    H     H_    0.785729 0.489720 0.285924 0.148320
H10   H     H_    0.541617 0.963497 0.067014 0.347575
H11   H     H_    0.421478 0.805464 0.314232 0.334702
H12   H     H_    0.681200 0.485725 0.282219 0.173205
H13   H     H_    0.594152 0.710213 0.085038 0.325927
H14   H     H_    0.068911 0.009174 0.584345 0.224155
H15   H     H_    0.061396 0.115426 0.448091 0.168654
H16   H     H_    0.998888 0.056697 0.539951 0.146814
H17   H     H_    0.329335 0.026116 0.976385 0.178983
H18   H     H_    0.402794 0.013996 0.916563 0.172714
H19   H     H_    0.343932 0.976892 0.805786 0.193659
H20   H     H_    0.041755 0.880186 0.325730 0.368397
H21   H     H_    0.925221 0.854893 0.474907 0.364887
H22   H     H_    0.680093 0.521303 0.720184 0.162634
H23   H     H_    0.784434 0.526190 0.721122 0.144772
H24   H     H_    0.470236 0.109769 0.296567 0.185183
H25   H     H_    0.576588 0.212022 0.711222 0.173536
H26   H     H_    0.577833 0.119932 0.933395 0.143604
H27   H     H_    0.474048 0.810560 0.787371 0.187300
H28   H     H_    0.423804 0.329079 0.243606 0.225753
N1    N     N_R   0.852302 0.509357 0.505602 -0.360934
N2    N     N_R   0.147835 0.497778 0.499123 -0.378188
N3    N     N_R   0.499460 0.498800 0.142780 -0.131535
N4    N     N_R   0.499440 0.498720 0.857170 -0.127845
O1    O     O_R   0.500000 0.316780 0.614690 -0.637996
O2    O     O_R   0.583850 0.500050 0.614640 -0.630464
O3    O     O_R   0.583840 0.500030 0.385310 -0.576068
O4    O     O_2   0.853062 0.706296 0.406619 -0.515691
O5    O     O_3   0.521354 0.906663 0.000846 -0.746415
O6    O     O_3   0.445215 0.877017 0.281867 -0.719202
O7    O     O_3   0.570902 0.659393 0.148451 -0.706050
O8    O     O_3   0.050814 0.188887 0.644717 -0.566793
O9    O     O_3   0.356499 0.165317 0.845400 -0.604730
O10   O     O_3   0.066730 0.817325 0.364920 -0.706595
O11   O     O_3   0.949574 0.834257 0.395901 -0.742437
O12   O     O_2   0.847605 0.308748 0.598229 -0.551787
O13   O     O_2   0.145743 0.295646 0.585762 -0.482593
O14   O     O_2   0.155041 0.699380 0.412049 -0.473491
O15   O     O_R   0.500000 0.316750 0.385360 -0.647827
O16   O     O_R   0.416160 0.499970 0.614690 -0.640462
O17   O     O_R   0.416150 0.499950 0.385360 -0.648567
O18   O     O_R   0.500000 0.683250 0.614640 -0.631375
O19   O     O_R   0.500000 0.683220 0.385310 -0.529891
Zn1   Zn    Zn3+2 0.500000 0.500020 0.653130 0.934806
Zn2   Zn    Zn3+2 0.500000 0.499980 0.346870 1.000877

loop_
_geom_bond_atom_site_label_1
_geom_bond_atom_site_label_2
_ccdc_geom_bond_type
O17   Zn2   S    
C18   H25   S    
O1    Zn1   S    
C4    O16   A    
C28   O2    A    
O2    Zn1   S    
C41   C42   A    
C5    H6    S    
C44   H16   S    
C35   C36   A    
C31   H2    S    
C11   H12   S    
C7    C8    A    
C44   H14   S    
C12   C23   A    
C26   C27   A    
C12   C41   A    
C18   C24   A    
C19   H26   S    
C22   C29   A    
C30   C31   A    
C33   C35   A    
C50   O13   S    
C32   O9    S    
C27   C29   A    
C10   C17   A    
C20   O5    S    
C17   N1    S    
C18   C19   A    
C46   H19   S    
C8    H8    S    
C3    H5    S    
C35   N4    A    
C31   C32   A    
C8    C9    A    
C13   C28   S    
O3    Zn2   S    
C16   O18   A    
O19   Zn2   S    
C13   C14   A    
C38   N4    A    
C1    C25   S    
C37   N3    A    
C44   H15   S    
H10   O5    S    
C45   C47   A    
C33   H3    S    
C34   C50   A    
C24   C25   A    
C4    C6    S    
C1    O15   A    
C43   C49   A    
C39   C43   A    
C46   O9    S    
C25   C26   A    
O16   Zn1   S    
C9    N2    S    
C39   N1    A    
C46   H18   S    
C37   C38   A    
C3    C9    A    
H11   O6    S    
C47   C48   A    
C38   H4    S    
C36   N3    A    
C23   C34   A    
H13   O7    S    
O18   Zn1   S    
N4    Zn1   S    
C40   N1    A    
C34   C45   A    
O15   Zn2   S    
C48   C49   A    
C15   H23   S    
C22   C24   A    
C42   C43   A    
C12   H1    S    
C44   O8    S    
N3    Zn2   S    
C15   C17   A    
C40   C41   A    
C14   H22   S    
H20   O10   S    
C40   O12   S    
C3    C5    A    
C50   N2    A    
C6    C7    A    
H21   O11   S    
C30   C36   A    
C2    C47   A    
C1    O1    A    
C37   O7    S    
C32   C33   A    
C19   C20   A    
C2    O14   S    
C10   H9    S    
C16   C29   S    
C46   H17   S    
C23   O8    S    
C11   C13   A    
C5    C6    A    
C26   H24   S    
C7    H7    S    
C27   O6    S    
C2    N2    A    
C10   C11   A    
C30   H28   S    
C16   O19   A    
C20   C21   A    
C48   O10   S    
C4    O17   A    
C21   H27   S    
C28   O3    A    
C14   C15   A    
C39   O4    S    
C49   O11   S    
C21   C22   A    
C42   C45   A    
