data_mof_unit_31497.cif
_audit_creation_date              2013-03-05T16:33:41-0500
_audit_creation_method            fapswitch 2.2
_symmetry_space_group_name_H-M    P1
_symmetry_Int_Tables_number       1
_space_group_crystal_system       triclinic
_cell_length_a                    9.057712
_cell_length_b                    10.837204
_cell_length_c                    9.616084
_cell_angle_alpha                 89.568316
_cell_angle_beta                  89.660363
_cell_angle_gamma                 91.103238
_cell_volume                      943.698254503

loop_
_atom_site_label
_atom_site_type_symbol
_atom_site_description
_atom_site_fract_x
_atom_site_fract_y
_atom_site_fract_z
_atom_type_partial_charge
O1    O     O_R   0.500000 0.319640 0.618810 -0.565882
O2    O     O_R   0.500020 0.319680 0.381230 -0.553396
C1    C     C_R   0.502207 0.262456 0.500317 0.811649
O3    O     O_R   0.288380 0.499980 0.618770 -0.540030
O4    O     O_R   0.288400 0.500020 0.381190 -0.533728
C2    C     C_R   0.220937 0.499848 0.500230 0.858387
Cu1   Cu    Cu3+1 0.499990 0.499980 0.640670 1.012302
Cu2   Cu    Cu3+1 0.500010 0.500020 0.359330 1.037701
O5    O     O_R   0.499980 0.680320 0.618770 -0.588944
O6    O     O_R   0.500000 0.680360 0.381190 -0.589282
O7    O     O_R   0.711600 0.499980 0.618810 -0.576617
O8    O     O_R   0.711620 0.500020 0.381230 -0.542778
C3    C     C_R   0.503481 0.737450 0.499561 0.786228
C4    C     C_R   0.779072 0.500086 0.499792 0.832671
C5    C     C_1   0.065646 0.499878 0.500366 -0.061844
C6    C     C_1   0.934373 0.499949 0.499741 -0.090461
C7    C     C_R   0.506051 0.062121 0.624777 0.095127
C8    C     C_R   0.516103 0.129270 0.500555 -0.093406
C9    C     C_R   0.546292 0.066121 0.376613 -0.150148
H1    H     H_    0.562873 0.115423 0.279207 0.189601
C10   C     C_R   0.546970 0.937373 0.376141 -0.179448
H2    H     H_    0.563370 0.890713 0.278543 0.165211
C11   C     C_R   0.518068 0.870792 0.499601 -0.082745
C12   C     C_R   0.507688 0.934905 0.624382 0.106046
C13   C     C_3   0.391895 0.923931 0.735092 -0.464017
C14   C     C_3   0.388721 0.063465 0.734361 -0.354806
H3    H     H_    0.287696 0.879864 0.697685 0.212933
H4    H     H_    0.434917 0.885297 0.833805 0.201471
H5    H     H_    0.282841 0.099388 0.694403 0.236578
H6    H     H_    0.429161 0.104701 0.832900 0.230897
C15   C     C_R   0.620436 0.542318 0.071998 0.190431
N1    N     N_R   0.500920 0.500930 0.147930 -0.291975
C16   C     C_R   0.388198 0.444988 0.075683 0.314968
C17   C     C_R   0.385072 0.449659 0.927864 0.309843
N2    N     N_R   0.500930 0.500890 0.852020 -0.269246
C18   C     C_R   0.620954 0.540937 0.925229 0.165430
C19   C     C_3   0.690834 0.666179 0.915744 -0.467219
C20   C     C_3   0.688292 0.668950 0.073753 0.074967
H7    H     H_    0.803339 0.663404 0.869219 0.244205
H8    H     H_    0.617565 0.735076 0.867608 0.179497
H9    H     H_    0.612802 0.738812 0.116384 0.124046
Br1   Br    Br    0.884934 0.671369 0.153026 -0.423773
N3    N     N_R   0.272835 0.378626 0.147754 0.173412
O9    O     O_R   0.139485 0.421184 0.148011 -0.274157
O10   O     O_R   0.292566 0.263999 0.182581 -0.349886
N4    N     N_R   0.254497 0.405951 0.860674 0.173939
O11   O     O_R   0.238001 0.288867 0.836355 -0.371177
O12   O     O_R   0.138442 0.474956 0.860578 -0.312576

loop_
_geom_bond_atom_site_label_1
_geom_bond_atom_site_label_2
_geom_bond_distance
_ccdc_geom_bond_type
C7    C8    1.395642 A    
O4    Cu2   1.926956 S    
C11   C12   1.394666 A    
C14   H6    1.111730 S    
C19   C20   1.519993 S    
C17   N4    1.425737 S    
C13   H3    1.112425 S    
C9    H1    1.083089 S    
C15   C20   1.493094 S    
Cu2   O8    1.929478 S    
N1    C16   1.372427 A    
C16   C17   1.422424 A    
C2    C5    1.406580 S    
C20   H9    1.109096 S    
Cu1   Cu2   2.705384 S    
C19   H7    1.111519 S    
O1    Cu1   1.967229 S    
C10   H2    1.080262 S    
C13   H4    1.110346 S    
Cu1   O7    1.926957 S    
N3    O10   1.300093 A    
C14   H5    1.111498 S    
O3    Cu1   1.929477 S    
C7    C14   1.492522 S    
Cu2   O6    1.967229 S    
C18   C19   1.488466 S    
C9    C10   1.395440 A    
O8    C4    1.296670 A    
C20   Br1   1.941339 S    
C19   H8    1.108920 S    
C4    C6    1.406696 S    
C10   C11   1.405256 A    
N3    O9    1.301165 A    
O4    C2    1.294359 A    
O7    C4    1.294223 A    
N4    O12   1.301730 A    
C7    C12   1.379055 A    
C5    C6    1.189101 T    
Cu2   N1    2.032758 S    
C12   C13   1.492507 S    
C3    C11   1.448555 S    
C1    C8    1.451231 S    
O3    C2    1.296447 A    
C17   N2    1.379787 A    
Cu1   O5    1.964119 S    
O5    C3    1.298651 A    
C15   C18   1.411514 A    
C8    C9    1.406849 A    
O2    C1    1.298613 A    
C13   C14   1.512946 S    
N4    O11   1.297925 A    
Cu1   N2    2.032526 S    
O6    C3    1.299890 A    
O2    Cu2   1.964117 S    
C15   N1    1.368655 A    
O1    C1    1.301390 A    
N2    C18   1.364307 A    
C16   N3    1.429813 S    
