data_mof_unit_13815.cif
_audit_creation_date              2012-12-10T17:04:35-0500
_audit_creation_method            fapswitch 2.2
_symmetry_space_group_name_H-M    P1
_symmetry_Int_Tables_number       1
_space_group_crystal_system       triclinic
_cell_length_a                    14.888671
_cell_length_b                    10.74726
_cell_length_c                    10.054662
_cell_angle_alpha                 89.484144
_cell_angle_beta                  89.469289
_cell_angle_gamma                 90.099467
_cell_volume                      1608.73389607

loop_
_atom_site_label
_atom_site_type_symbol
_atom_type_description
_atom_site_fract_x
_atom_site_fract_y
_atom_site_fract_z
_atom_type_partial_charge
C1    C     C_R   0.498292 0.262841 0.500389 0.954423
C2    C     C_R   0.186623 0.388350 0.495391 -0.252355
C3    C     C_R   0.232224 0.500984 0.501958 -0.027609
C4    C     C_R   0.327288 0.500214 0.500538 0.861126
C5    C     C_R   0.187740 0.614201 0.511530 -0.254703
C6    C     C_2   0.488935 0.935789 0.383910 0.529320
C7    C     C_2   0.505933 0.869657 0.495125 -0.430708
C8    C     C_2   0.503434 0.069228 0.388737 -0.326540
C9    C     C_2   0.487280 0.131755 0.500300 -0.401690
C10   C     C_2   0.524623 0.594502 0.924301 -0.107578
C11   C     C_2   0.543638 0.582001 0.072686 0.374333
C12   C     C_R   0.907308 0.617726 0.512934 0.042753
C13   C     C_R   0.499969 0.737447 0.498894 0.955460
C14   C     C_R   0.672798 0.502087 0.499580 0.926323
C15   C     C_R   0.813717 0.618391 0.509352 0.402460
C16   C     C_R   0.768217 0.504750 0.499131 -0.176492
C17   C     C_R   0.813032 0.391570 0.494143 -0.320698
C18   C     C_R   0.906157 0.388583 0.499727 0.090150
C19   C     C_R   0.953482 0.502752 0.506029 -0.060952
C20   C     C_3   0.742984 0.776740 0.399091 0.054802
C21   C     C_3   0.735195 0.917621 0.406213 -0.819792
C22   C     C_3   0.645174 0.764421 0.058539 -0.831217
C23   C     C_R   0.953062 0.274443 0.498487 0.233984
C24   C     C_3   0.409114 0.337385 0.128776 0.214015
C25   C     C_3   0.343962 0.280289 0.030634 -0.928798
C26   C     C_3   0.881774 0.119521 0.637388 -0.806425
C27   C     C_3   0.407839 0.946626 0.187149 0.069263
C28   C     C_3   0.364504 0.861457 0.086102 -0.769935
C29   C     C_R   0.046752 0.275440 0.494771 -0.297232
C30   C     C_R   0.093583 0.387956 0.498086 0.097483
C31   C     C_R   0.047137 0.502108 0.505988 0.080224
C32   C     C_R   0.094697 0.615746 0.513302 0.146519
C33   C     C_R   0.048748 0.728600 0.522320 -0.245512
C34   C     C_R   0.955543 0.729679 0.522504 -0.179669
H1    H     H_    0.528422 0.912512 0.586320 0.125380
H2    H     H_    0.084884 0.815965 0.528655 0.144460
H3    H     H_    0.921594 0.818462 0.529015 0.187336
H4    H     H_    0.676555 0.738958 0.371697 0.195822
H5    H     H_    0.792602 0.754443 0.318768 0.130200
H6    H     H_    0.803067 0.959220 0.413311 0.245631
H7    H     H_    0.702666 0.954439 0.315132 0.219568
H8    H     H_    0.694495 0.944978 0.494239 0.270434
H9    H     H_    0.661492 0.605618 0.175596 0.219063
H10   H     H_    0.693356 0.816119 0.120747 0.239790
H11   H     H_    0.589214 0.828409 0.033541 0.264115
H12   H     H_    0.526695 0.115975 0.298542 0.172061
H13   H     H_    0.681003 0.734730 0.966766 0.238800
H14   H     H_    0.377848 0.328516 0.228641 0.192277
H15   H     H_    0.473011 0.283495 0.124544 0.103042
H16   H     H_    0.373157 0.282140 0.928650 0.258769
H17   H     H_    0.329595 0.182249 0.059336 0.202503
H18   H     H_    0.279862 0.333024 0.030922 0.279049
H19   H     H_    0.939257 0.088529 0.452873 0.215821
H20   H     H_    0.942839 0.103776 0.698028 0.243264
H21   H     H_    0.843107 0.031282 0.633855 0.252197
H22   H     H_    0.838972 0.190901 0.685784 0.256385
H23   H     H_    0.461195 0.088205 0.590534 0.151886
H24   H     H_    0.444573 0.021224 0.131887 0.133893
H25   H     H_    0.353226 0.988180 0.249019 0.133124
H26   H     H_    0.328016 0.784720 0.138103 0.270492
H27   H     H_    0.316257 0.915180 0.024750 0.195146
H28   H     H_    0.416652 0.821191 0.019733 0.248649
H29   H     H_    0.536126 0.682885 0.874414 0.155576
H30   H     H_    0.503331 0.415050 0.896991 0.193180
H31   H     H_    0.774449 0.306223 0.486842 0.186274
H32   H     H_    0.082946 0.187991 0.492136 0.144396
H33   H     H_    0.223778 0.301739 0.489030 0.123702
H34   H     H_    0.225715 0.700295 0.517032 0.130073
N1    N     N_2   0.500970 0.501330 0.852150 -0.187659
N2    N     N_2   0.500990 0.501360 0.147810 0.017064
N3    N     N_2   0.611520 0.657115 0.131581 -0.286237
N4    N     N_2   0.906799 0.158448 0.503886 -0.320897
O1    O     O_R   0.499990 0.319060 0.613040 -0.627670
O2    O     O_3   0.422215 0.463726 0.095550 -0.546501
O3    O     O_3   0.468329 0.876524 0.264950 -0.567744
O4    O     O_R   0.500010 0.319100 0.386900 -0.659255
O5    O     O_R   0.367830 0.499950 0.613080 -0.603610
O6    O     O_R   0.367860 0.499990 0.386940 -0.605150
O7    O     O_R   0.499990 0.680900 0.613100 -0.630324
O8    O     O_R   0.500010 0.680940 0.386960 -0.540601
O9    O     O_R   0.632140 0.500010 0.613060 -0.596630
O10   O     O_R   0.632170 0.500050 0.386920 -0.668179
O11   O     O_3   0.767138 0.728944 0.525192 -0.628520
Zn1   Zn    Zn3+2 0.499980 0.499970 0.650990 0.954433
Zn2   Zn    Zn3+2 0.500020 0.500030 0.349010 0.980387

loop_
_geom_bond_atom_site_label_1
_geom_bond_atom_site_label_2
_ccdc_geom_bond_type
C13   O7    A    
C34   H3    S    
C26   N4    S    
C10   H29   S    
C19   C31   A    
C26   H21   S    
C11   N2    D    
C6    O3    S    
O8    Zn2   S    
C23   C29   A    
C30   C31   A    
C11   N3    S    
C15   C16   A    
C33   H2    S    
C18   C19   A    
C25   H16   S    
C22   H10   S    
C8    C9    D    
N2    O2    S    
O1    Zn1   S    
C5    C32   A    
C28   H27   S    
C22   H13   S    
C13   O8    A    
C5    H34   S    
C27   O3    S    
C26   H20   S    
C17   C18   A    
C28   H26   S    
C18   C23   A    
C24   H14   S    
C1    C9    S    
C24   C25   S    
C2    H33   S    
C20   H5    S    
C16   C17   A    
C15   O11   S    
O5    Zn1   S    
C21   H8    S    
C25   H17   S    
C4    O6    A    
C29   C30   A    
C20   H4    S    
C31   C32   A    
C12   C15   A    
C33   C34   A    
H30   N1    S    
C21   H7    S    
O6    Zn2   S    
C14   C16   S    
C14   O10   A    
C12   C34   A    
C3    C4    S    
C22   N3    S    
O9    Zn1   S    
C24   H15   S    
H9    N3    S    
C1    O4    A    
C7    H1    S    
C23   N4    S    
C3    C5    A    
C27   H24   S    
C26   H22   S    
C6    C8    S    
C6    C7    D    
O10   Zn2   S    
C17   H31   S    
C2    C30   A    
C1    O1    A    
C32   C33   A    
C2    C3    A    
C25   H18   S    
C4    O5    A    
N1    Zn1   S    
C27   H25   S    
H19   N4    S    
C24   O2    S    
O7    Zn1   S    
C21   H6    S    
C12   C19   A    
C9    H23   S    
C8    H12   S    
C10   C11   S    
C29   H32   S    
C10   N1    D    
C7    C13   S    
C22   H11   S    
C20   C21   S    
C20   O11   S    
C27   C28   S    
C14   O9    A    
N2    Zn2   S    
O4    Zn2   S    
C28   H28   S    
