data_mof_unit_8787.cif
_audit_creation_date              2012-12-11T14:30:48-0500
_audit_creation_method            fapswitch 2.2
_symmetry_space_group_name_H-M    P1
_symmetry_Int_Tables_number       1
_space_group_crystal_system       triclinic
_cell_length_a                    17.432289
_cell_length_b                    24.411347
_cell_length_c                    14.938139
_cell_angle_alpha                 90.352955
_cell_angle_beta                  125.592996
_cell_angle_gamma                 89.813592
_cell_volume                      5169.12163723

loop_
_atom_site_label
_atom_site_type_symbol
_atom_type_description
_atom_site_fract_x
_atom_site_fract_y
_atom_site_fract_z
_atom_type_partial_charge
C1    C     C_R   0.853965 0.653108 0.906504 -0.119524
C2    C     C_R   0.958489 0.501446 0.646037 0.134219
C3    C     C_3   0.180678 0.268567 0.609931 -1.052053
C4    C     C_R   0.450596 0.001910 0.272892 0.132777
C5    C     C_R   0.458495 0.001445 0.646040 0.134206
C6    C     C_R   0.675364 0.501194 0.716133 0.034173
C7    C     C_R   0.316465 0.501895 0.345305 0.040741
C8    C     C_R   0.175357 0.001213 0.716185 0.034110
C9    C     C_R   0.816682 0.001875 0.344897 0.040785
C10   C     C_3   0.510135 0.451940 0.584197 -0.166480
C11   C     C_3   0.485225 0.463127 0.468526 -0.158443
C12   C     C_3   0.009847 0.952154 0.584647 -0.166339
C13   C     C_R   0.150052 0.652101 0.094631 -0.108016
C14   C     C_3   0.985209 0.962691 0.468894 -0.158969
C15   C     C_3   0.430841 0.491123 0.561912 -0.139272
C16   C     C_3   0.553028 0.512186 0.512554 -0.133802
C17   C     C_3   0.930760 0.991747 0.561602 -0.138989
C18   C     C_3   0.053365 0.011571 0.512356 -0.133543
C19   C     C_3   0.408040 0.502223 0.448055 0.184097
C20   C     C_3   0.576976 0.501140 0.627154 0.183290
C21   C     C_3   0.908238 0.002196 0.447679 0.184108
C22   C     C_3   0.077026 0.001173 0.627022 0.183276
C23   C     C_3   0.474884 0.551382 0.491161 -0.166609
C24   C     C_R   0.353970 0.153110 0.906509 -0.119567
C25   C     C_3   0.500057 0.540377 0.607156 -0.157975
C26   C     C_3   0.975429 0.051171 0.490206 -0.166439
C27   C     C_3   0.000311 0.040818 0.606261 -0.158365
C28   C     C_2   0.129131 0.762515 0.914945 -0.268368
C29   C     C_2   0.885193 0.767999 0.086874 -0.258087
C30   C     C_2   0.629138 0.262510 0.914938 -0.268400
C31   C     C_2   0.385203 0.267997 0.086897 -0.258093
C32   C     C_2   0.140745 0.741754 0.004790 0.573571
C33   C     C_2   0.874139 0.745220 0.998093 0.561518
C34   C     C_2   0.640741 0.241754 0.004780 0.573600
C35   C     C_R   0.650048 0.152103 0.094628 -0.108056
C36   C     C_2   0.374162 0.245224 0.998118 0.561484
C37   C     C_2   0.693312 0.304153 0.927407 -0.055074
C38   C     C_2   0.328251 0.314938 0.074572 -0.049335
C39   C     C_2   0.193303 0.804159 0.927411 -0.055070
C40   C     C_2   0.828204 0.814922 0.074534 -0.049372
C41   C     C_R   0.927736 0.356334 0.091474 -0.150335
C42   C     C_R   0.085801 0.367402 0.905426 -0.141968
C43   C     C_R   0.427732 0.856335 0.091472 -0.150337
C44   C     C_R   0.585772 0.867377 0.905422 -0.141962
C45   C     C_2   0.786087 0.293742 0.992836 -0.257298
C46   C     C_R   0.849967 0.332759 0.998245 0.151319
C47   C     C_2   0.235078 0.312168 0.997562 -0.234271
C48   C     C_2   0.286079 0.793747 0.992833 -0.257276
C49   C     C_2   0.735025 0.812115 0.997571 -0.234406
C50   C     C_2   0.888554 0.458744 0.364610 -0.103243
C51   C     C_2   0.890667 0.462012 0.463888 -0.120271
C52   C     C_2   0.388556 0.958743 0.364613 -0.103228
C53   C     C_2   0.390671 0.962012 0.463891 -0.120313
C54   C     C_2   0.899602 0.503771 0.322588 -0.193308
C55   C     C_2   0.937150 0.502843 0.536943 -0.200366
C56   C     C_2   0.399603 0.003771 0.322590 -0.193306
C57   C     C_R   0.171094 0.349596 0.997443 0.139909
C58   C     C_2   0.437157 0.002841 0.536947 -0.200358
C59   C     C_R   0.979958 0.547394 0.246005 -0.153651
C60   C     C_R   0.966507 0.547143 0.705720 -0.148191
C61   C     C_R   0.479958 0.047394 0.246005 -0.153676
C62   C     C_R   0.466510 0.047143 0.705721 -0.148194
C63   C     C_R   0.731176 0.455515 0.743436 -0.130102
C64   C     C_R   0.263179 0.455831 0.293296 -0.151937
C65   C     C_R   0.231166 0.955527 0.743462 -0.130399
C66   C     C_R   0.763296 0.955819 0.293069 -0.151718
C67   C     C_R   0.984721 0.455999 0.251734 -0.107837
C68   C     C_R   0.349958 0.832764 0.998242 0.151305
C69   C     C_R   0.961700 0.455661 0.702089 -0.124025
C70   C     C_R   0.484721 0.955999 0.251734 -0.107843
C71   C     C_R   0.461705 0.955661 0.702093 -0.124044
C72   C     C_R   0.730759 0.547208 0.746263 -0.141726
C73   C     C_R   0.264593 0.547671 0.291347 -0.138342
C74   C     C_R   0.230768 0.047215 0.746280 -0.141423
C75   C     C_R   0.764714 0.047663 0.291132 -0.138630
C76   C     C_R   0.834874 0.358205 0.908128 -0.135545
C77   C     C_R   0.179927 0.368866 0.090041 -0.127130
C78   C     C_R   0.334864 0.858210 0.908125 -0.135527
C79   C     C_R   0.671044 0.849550 0.997439 0.139951
C80   C     C_R   0.679887 0.868828 0.090036 -0.127102
C81   C     C_R   0.944518 0.653263 0.088890 -0.151901
C82   C     C_R   0.059174 0.651921 0.911445 -0.140917
C83   C     C_R   0.444522 0.153262 0.088894 -0.151869
C84   C     C_R   0.559173 0.151920 0.911443 -0.140921
C85   C     C_R   0.886309 0.685677 0.997441 -0.051131
C86   C     C_R   0.120372 0.683654 0.003857 -0.054866
C87   C     C_R   0.386317 0.185679 0.997449 -0.051114
C88   C     C_R   0.620368 0.183654 0.003853 -0.054850
C89   C     C_3   0.259635 0.769624 0.183161 0.188674
C90   C     C_R   0.950596 0.501911 0.272892 0.132764
C91   C     C_3   0.267633 0.776736 0.290089 -0.258258
C92   C     C_3   0.369945 0.772368 0.390684 -1.066627
C93   C     C_3   0.770914 0.774732 0.816602 0.192425
C94   C     C_3   0.777604 0.774700 0.718923 -0.258602
C95   C     C_3   0.680459 0.768571 0.609892 -1.052001
C96   C     C_3   0.759616 0.269634 0.183148 0.188673
C97   C     C_3   0.767602 0.276752 0.290068 -0.258230
C98   C     C_3   0.869911 0.272395 0.390671 -1.066616
C99   C     C_3   0.271020 0.274751 0.816625 0.192451
C100  C     C_3   0.277791 0.274700 0.719005 -0.258574
H1    H     H_    0.819565 0.666468 0.822780 0.096887
H2    H     H_    0.509087 0.571611 0.666925 0.113111
H3    H     H_    0.959918 0.091581 0.449333 0.109314
H4    H     H_    0.009443 0.072410 0.665520 0.113020
H5    H     H_    0.096242 0.738998 0.839264 0.096240
H6    H     H_    0.911837 0.744338 0.160776 0.091050
H7    H     H_    0.596259 0.238989 0.839263 0.096243
H8    H     H_    0.411813 0.244326 0.160782 0.091048
H9    H     H_    0.665033 0.339840 0.874320 0.131263
H10   H     H_    0.358544 0.345870 0.139137 0.122797
H11   H     H_    0.165024 0.839848 0.874329 0.131222
H12   H     H_    0.186724 0.665947 0.178805 0.096094
H13   H     H_    0.858494 0.845880 0.139051 0.122859
H14   H     H_    0.814560 0.257236 0.043364 0.119236
H15   H     H_    0.203604 0.278965 0.937976 0.112530
H16   H     H_    0.314552 0.757239 0.043354 0.119233
H17   H     H_    0.703559 0.778891 0.938034 0.112551
H18   H     H_    0.894774 0.418135 0.339588 0.120162
H19   H     H_    0.865710 0.426753 0.483975 0.124343
H20   H     H_    0.394776 0.918134 0.339590 0.120166
H21   H     H_    0.365712 0.926754 0.483978 0.124330
H22   H     H_    0.885709 0.544094 0.341297 0.129157
H23   H     H_    0.319569 0.166471 0.822786 0.096883
H24   H     H_    0.964948 0.537709 0.519733 0.132497
H25   H     H_    0.385711 0.044094 0.341299 0.129157
H26   H     H_    0.464957 0.037707 0.519738 0.132500
H27   H     H_    0.964010 0.341560 0.174770 0.087472
H28   H     H_    0.055495 0.357502 0.820391 0.094113
H29   H     H_    0.464005 0.841561 0.174767 0.087473
H30   H     H_    0.555458 0.857475 0.820386 0.094109
H31   H     H_    0.965809 0.589765 0.252799 0.100488
H32   H     H_    0.954933 0.589304 0.678859 0.093702
H33   H     H_    0.465809 0.089764 0.252800 0.100494
H34   H     H_    0.686718 0.165950 0.178801 0.096097
H35   H     H_    0.454936 0.089304 0.678860 0.093709
H36   H     H_    0.707308 0.413941 0.718410 0.088381
H37   H     H_    0.279631 0.414285 0.323638 0.093692
H38   H     H_    0.207271 0.913959 0.718393 0.088552
H39   H     H_    0.779785 0.914279 0.323441 0.093595
H40   H     H_    0.977915 0.414121 0.267799 0.086282
H41   H     H_    0.946288 0.413843 0.672482 0.084819
H42   H     H_    0.477916 0.914121 0.267800 0.086289
H43   H     H_    0.446296 0.913842 0.672488 0.084822
H44   H     H_    0.708150 0.589471 0.728474 0.100076
H45   H     H_    0.526772 0.411494 0.625163 0.107439
H46   H     H_    0.281442 0.589955 0.317833 0.092150
H47   H     H_    0.208171 0.089480 0.728454 0.099983
H48   H     H_    0.781631 0.089941 0.317645 0.092312
H49   H     H_    0.786902 0.345248 0.823465 0.088981
H50   H     H_    0.235405 0.359716 0.174809 0.090181
H51   H     H_    0.286883 0.845259 0.823459 0.088990
H52   H     H_    0.735340 0.859648 0.174794 0.090146
H53   H     H_    0.993813 0.667840 0.172385 0.091038
H54   H     H_    0.011935 0.666145 0.827660 0.088167
H55   H     H_    0.493819 0.167837 0.172390 0.091035
H56   H     H_    0.476906 0.431829 0.409195 0.110956
H57   H     H_    0.511933 0.166144 0.827657 0.088155
H58   H     H_    0.377497 0.482566 0.578173 0.115321
H59   H     H_    0.605316 0.520776 0.494565 0.117405
H60   H     H_    0.877246 0.983694 0.577810 0.115310
H61   H     H_    0.105837 0.019654 0.494438 0.117446
H62   H     H_    0.301582 0.802790 0.180281 0.126398
H63   H     H_    0.291213 0.729541 0.184661 0.059293
H64   H     H_    0.239516 0.817590 0.290641 0.208617
H65   H     H_    0.224872 0.744913 0.295088 0.188887
H66   H     H_    0.399069 0.731384 0.393290 0.271614
H67   H     H_    0.026191 0.911893 0.626216 0.107608
H68   H     H_    0.373372 0.778053 0.466746 0.271621
H69   H     H_    0.413711 0.804532 0.388374 0.268136
H70   H     H_    0.730660 0.811791 0.809693 0.124891
H71   H     H_    0.730059 0.738309 0.811378 0.054732
H72   H     H_    0.809927 0.813796 0.718510 0.206919
H73   H     H_    0.823624 0.740617 0.727097 0.188751
H74   H     H_    0.647938 0.728965 0.607219 0.268529
H75   H     H_    0.687585 0.769415 0.540733 0.271251
H76   H     H_    0.633568 0.802724 0.599249 0.273095
H77   H     H_    0.801561 0.302800 0.180265 0.126402
H78   H     H_    0.976778 0.931036 0.410065 0.110831
H79   H     H_    0.791202 0.229551 0.184663 0.059262
H80   H     H_    0.739472 0.317604 0.290603 0.208623
H81   H     H_    0.724846 0.244927 0.295070 0.188894
H82   H     H_    0.899050 0.231413 0.393293 0.271625
H83   H     H_    0.873330 0.278083 0.466727 0.271621
H84   H     H_    0.913672 0.304562 0.388357 0.268111
H85   H     H_    0.230769 0.311820 0.809673 0.124859
H86   H     H_    0.230128 0.238340 0.811368 0.054702
H87   H     H_    0.310136 0.313790 0.718611 0.206898
H88   H     H_    0.323825 0.240611 0.727236 0.188760
H89   H     H_    0.459072 0.591980 0.450898 0.109238
H90   H     H_    0.148138 0.228966 0.607240 0.268526
H91   H     H_    0.187863 0.269398 0.540816 0.271248
H92   H     H_    0.133774 0.302725 0.599231 0.273091
N1    N     N_R   0.892320 0.603520 0.941090 -0.034511
N2    N     N_R   0.973240 0.529450 0.794410 -0.041422
N3    N     N_R   0.526760 0.029450 0.205590 -0.043053
N4    N     N_R   0.473240 0.029450 0.794410 -0.041422
N5    N     N_R   0.819350 0.473090 0.793940 -0.039378
N6    N     N_R   0.180650 0.473090 0.206060 -0.036165
N7    N     N_R   0.319350 0.973090 0.793940 -0.039382
N8    N     N_R   0.680650 0.973090 0.206060 -0.036172
N9    N     N_R   0.027860 0.473090 0.206590 -0.045239
N10   N     N_R   0.972140 0.473090 0.793410 -0.043240
N11   N     N_R   0.527860 0.973090 0.206590 -0.045259
N12   N     N_R   0.107680 0.603520 0.058910 -0.037387
N13   N     N_R   0.472140 0.973090 0.793410 -0.043238
N14   N     N_R   0.818250 0.529450 0.792940 -0.040161
N15   N     N_R   0.181750 0.529450 0.207060 -0.038345
N16   N     N_R   0.318250 0.029450 0.792940 -0.040185
N17   N     N_R   0.681750 0.029450 0.207060 -0.038336
N18   N     N_R   0.896320 0.399020 0.944720 -0.040637
N19   N     N_R   0.103680 0.399020 0.055280 -0.042826
N20   N     N_R   0.396320 0.899020 0.944720 -0.040627
N21   N     N_R   0.603680 0.899020 0.055280 -0.042821
N22   N     N_R   0.949790 0.603520 0.054810 -0.030392
N23   N     N_R   0.392320 0.103520 0.941090 -0.034509
N24   N     N_R   0.050210 0.603520 0.945190 -0.031385
N25   N     N_R   0.449790 0.103520 0.054810 -0.030388
N26   N     N_R   0.550210 0.103520 0.945190 -0.031377
N27   N     N_R   0.607680 0.103520 0.058910 -0.037369
N28   N     N_R   0.953790 0.399020 0.058440 -0.039296
N29   N     N_R   0.046210 0.399020 0.941560 -0.042077
N30   N     N_R   0.453790 0.899020 0.058440 -0.039295
N31   N     N_R   0.546210 0.899020 0.941560 -0.042075
N32   N     N_R   0.026760 0.529450 0.205590 -0.043037
Ni1   Ni    Ni4+2 0.934100 0.565890 0.869590 0.212085
Ni2   Ni    Ni4+2 0.065900 0.565890 0.130410 0.212516
Ni3   Ni    Ni4+2 0.434100 0.065890 0.869590 0.212096
Ni4   Ni    Ni4+2 0.565900 0.065890 0.130410 0.212523
Ni5   Ni    Ni4+2 0.068420 0.436630 0.132700 0.209925
Ni6   Ni    Ni4+2 0.931580 0.436630 0.867300 0.207359
Ni7   Ni    Ni4+2 0.568420 0.936630 0.132700 0.209943
Ni8   Ni    Ni4+2 0.431580 0.936630 0.867300 0.207345
O1    O     O_3   0.164105 0.775740 0.092594 -0.633935
O2    O     O_3   0.862776 0.778523 0.915693 -0.632242
O3    O     O_3   0.664088 0.275744 0.092573 -0.633917
O4    O     O_3   0.362855 0.278535 0.915760 -0.632220

loop_
_geom_bond_atom_site_label_1
_geom_bond_atom_site_label_2
_ccdc_geom_bond_type
C6    C63   A    
C83   C87   A    
C21   C26   S    
C93   C94   S    
C64   N6    A    
C30   H7    S    
C31   H8    S    
C41   H27   S    
C19   C23   S    
C18   C26   S    
C62   N4    A    
C95   H76   S    
C60   H32   S    
C12   H67   S    
C46   C76   A    
C97   C98   S    
N6    Ni5   S    
C60   N2    A    
N1    N22   A    
C7    C73   A    
N20   N30   A    
N5    Ni6   S    
C52   C53   S    
N8    N17   A    
C15   C19   S    
C11   C19   S    
C26   C27   S    
C50   C54   D    
N28   Ni5   S    
N2    Ni1   S    
N9    Ni5   S    
C100  H88   S    
C95   H74   S    
C54   C90   S    
C13   H12   S    
C2    C55   S    
N23   N25   A    
N16   Ni3   S    
C83   N25   A    
C24   N23   A    
C2    C60   A    
C25   H2    S    
C15   C25   S    
C83   H55   S    
C20   C25   S    
C44   H30   S    
C40   C49   D    
N2    N10   A    
C29   C33   D    
C27   H4    S    
N4    N13   A    
C81   H53   S    
C42   C57   A    
C72   H44   S    
C51   C55   D    
C11   C16   S    
C89   O1    S    
C98   H83   S    
C17   H60   S    
C95   H75   S    
C9    C66   A    
C33   C85   S    
C94   H72   S    
C65   N7    A    
C3    C100  S    
C98   H84   S    
C49   H17   S    
C66   H39   S    
C99   C100  S    
C10   C20   S    
C43   C68   A    
C13   C86   A    
C51   H19   S    
C41   C46   A    
N8    Ni7   S    
C96   H77   S    
C38   H10   S    
C2    C69   A    
C28   H5    S    
C37   H9    S    
N21   Ni7   S    
C42   H28   S    
C48   H16   S    
C39   H11   S    
C73   N15   A    
N4    Ni3   S    
C32   C86   S    
C69   N10   A    
C50   H18   S    
C4    C56   S    
C16   H59   S    
C1    C85   A    
C5    C58   S    
N5    N14   A    
N22   Ni2   S    
C34   O3    S    
C45   H14   S    
C35   H34   S    
C4    C70   A    
C78   H51   S    
C32   O1    S    
C36   C87   S    
C68   C78   A    
C93   H70   S    
C70   H42   S    
C30   C34   D    
C61   H33   S    
C17   C27   S    
C57   C77   A    
C74   H47   S    
C43   H29   S    
C43   N30   A    
C15   H58   S    
C59   N32   A    
N18   N28   A    
C91   C92   S    
C97   H80   S    
C74   N16   A    
C10   H45   S    
C28   C39   S    
C82   C86   A    
C4    C61   A    
C24   H23   S    
C17   C21   S    
C49   C79   S    
C30   C37   S    
N32   Ni2   S    
C59   C90   A    
C62   H35   S    
C98   H82   S    
C1    N1    A    
N7    Ni8   S    
C67   N9    A    
C3    H91   S    
C26   H3    S    
C47   C57   S    
N19   N29   A    
C35   C88   A    
C92   H68   S    
N15   Ni2   S    
C8    C22   S    
C81   N22   A    
C28   C32   D    
C92   H69   S    
C16   C20   S    
C59   H31   S    
C96   C97   S    
C100  H87   S    
N14   Ni1   S    
C8    C74   A    
C50   C51   S    
N18   Ni6   S    
C45   C46   S    
C6    C72   A    
C44   N31   A    
C34   C88   S    
C56   H25   S    
C48   C68   S    
C67   H40   S    
C38   C47   D    
C47   H15   S    
C84   N26   A    
C11   H56   S    
C82   N24   A    
C65   H38   S    
N3    Ni4   S    
N17   Ni4   S    
C12   C14   S    
N30   Ni7   S    
C58   H26   S    
C16   C23   S    
C40   H13   S    
C22   C27   S    
N27   Ni4   S    
C12   C22   S    
C29   H6    S    
C3    H90   S    
C89   C91   S    
C99   H85   S    
N12   Ni2   S    
C42   N29   A    
C52   H20   S    
C89   H62   S    
C23   H89   S    
N29   Ni6   S    
N31   Ni8   S    
C14   H78   S    
C84   H57   S    
C71   H43   S    
C76   N18   A    
C70   N11   A    
C80   H52   S    
C61   N3    A    
C55   H24   S    
C75   N17   A    
N19   Ni5   S    
N6    N15   A    
C18   C22   S    
C14   C18   S    
C91   H65   S    
C44   C79   A    
C84   C88   A    
C35   N27   A    
C77   H50   S    
C78   N20   A    
C72   N14   A    
C53   C58   D    
C13   N12   A    
C97   H81   S    
C80   N21   A    
C71   N13   A    
C93   O2    S    
C36   O4    S    
C6    C20   S    
N12   N24   A    
C7    C19   S    
N24   Ni1   S    
C31   C38   S    
N10   Ni6   S    
C73   H46   S    
C10   C15   S    
C41   N28   A    
N1    Ni1   S    
C5    C71   A    
C53   H21   S    
C3    H92   S    
C63   H36   S    
C12   C17   S    
N11   Ni7   S    
C99   O4    S    
N21   N31   A    
C9    C21   S    
N26   N27   A    
C1    H1    S    
C76   H49   S    
N20   Ni8   S    
C75   H48   S    
C63   N5    A    
N7    N16   A    
C18   H61   S    
C96   O3    S    
C5    C62   A    
N23   Ni3   S    
C67   C90   A    
C96   H79   S    
C54   H22   S    
C94   C95   S    
C91   H64   S    
C24   C87   A    
C66   N8    A    
C7    C64   A    
C10   C11   S    
C77   N19   A    
C94   H73   S    
C14   C21   S    
C79   C80   A    
C82   H54   S    
C92   H66   S    
C8    C65   A    
C23   C25   S    
N3    N11   A    
C69   H41   S    
C64   H37   S    
C31   C36   D    
N13   Ni8   S    
N26   Ni3   S    
C9    C75   A    
N9    N32   A    
C29   C40   S    
N25   Ni4   S    
C37   C45   D    
C89   H63   S    
C99   H86   S    
C81   C85   A    
C33   O2    S    
C52   C56   D    
C39   C48   D    
C93   H71   S    
