data_mof_unit_45774.cif
_audit_creation_date              2012-12-10T20:39:08-0500
_audit_creation_method            fapswitch 2.2
_symmetry_space_group_name_H-M    P1
_symmetry_Int_Tables_number       1
_space_group_crystal_system       triclinic
_cell_length_a                    18.875481
_cell_length_b                    10.691432
_cell_length_c                    9.853486
_cell_angle_alpha                 90.318768
_cell_angle_beta                  89.903441
_cell_angle_gamma                 89.526656
_cell_volume                      1988.39021125

loop_
_atom_site_label
_atom_site_type_symbol
_atom_type_description
_atom_site_fract_x
_atom_site_fract_y
_atom_site_fract_z
_atom_type_partial_charge
C1    C     C_R   0.502440 0.260022 0.499443 0.917214
C2    C     C_R   0.288844 0.470420 0.501190 -0.056875
C3    C     C_R   0.929674 0.366394 0.506734 0.284088
C4    C     C_R   0.072749 0.361777 0.511089 0.302035
C5    C     C_R   0.817152 0.417127 0.626114 -0.164190
C6    C     C_R   0.746810 0.455606 0.624236 -0.195465
C7    C     C_R   0.711364 0.470492 0.500373 -0.032494
C8    C     C_R   0.747481 0.447002 0.378188 -0.195450
C9    C     C_R   0.818071 0.408726 0.380039 -0.166146
C10   C     C_R   0.853498 0.393687 0.504110 0.088782
C11   C     C_R   0.489040 0.064709 0.615660 0.015102
C12   C     C_R   0.364771 0.497115 0.500259 0.883476
C13   C     C_R   0.510811 0.127946 0.500006 -0.162306
C14   C     C_R   0.543539 0.061833 0.391811 0.195480
C15   C     C_R   0.544023 0.931682 0.395218 -0.286431
C16   C     C_R   0.511556 0.870754 0.503715 -0.120595
C17   C     C_R   0.490213 0.937246 0.618129 0.078642
C18   C     C_3   0.422073 0.929566 0.694563 -0.512266
C19   C     C_3   0.420152 0.071634 0.692111 0.039393
C20   C     C_R   0.463145 0.411594 0.070919 0.229357
C21   C     C_R   0.541377 0.580153 0.072377 -0.133184
C22   C     C_R   0.541347 0.580219 0.928292 -0.137050
C23   C     C_R   0.502105 0.739734 0.500509 0.899535
C24   C     C_R   0.463177 0.411542 0.928244 0.210519
C25   C     C_3   0.385201 0.392611 0.923397 -0.498883
C26   C     C_3   0.385268 0.391669 0.077051 -0.543005
C27   C     C_R   0.635215 0.496268 0.499886 0.846979
C28   C     C_R   0.245455 0.504940 0.612177 0.218194
C29   C     C_R   0.176117 0.461380 0.618084 -0.230500
C30   C     C_R   0.148398 0.388910 0.512163 0.049794
C31   C     C_R   0.191072 0.357030 0.400928 -0.177560
C32   C     C_R   0.260981 0.396374 0.396294 -0.250029
H1    H     H_    0.566093 0.879059 0.310585 0.163314
H2    H     H_    0.380152 0.884476 0.633243 0.200721
H3    H     H_    0.429543 0.890750 0.798013 0.192288
H4    H     H_    0.425558 0.116521 0.793531 0.147816
H5    H     H_    0.573654 0.646550 0.127136 0.141587
H6    H     H_    0.573590 0.646667 0.874136 0.147320
H7    H     H_    0.356812 0.474462 0.880826 0.234794
H8    H     H_    0.371122 0.301315 0.877923 0.199483
H9    H     H_    0.356195 0.472613 0.122299 0.225144
H10   H     H_    0.142771 0.490489 0.702327 0.151858
H11   H     H_    0.371867 0.298967 0.120123 0.189691
H12   H     H_    0.170420 0.301571 0.317838 0.155023
H13   H     H_    0.293709 0.366265 0.311947 0.160035
H14   H     H_    0.843143 0.407259 0.723399 0.149612
H15   H     H_    0.719994 0.471869 0.720080 0.155705
H16   H     H_    0.721011 0.456329 0.281278 0.156382
H17   H     H_    0.844959 0.392337 0.284342 0.149360
N1    N     N_R   0.037501 0.353391 0.391641 -0.173359
N2    N     N_R   0.967116 0.355693 0.389519 -0.179757
N3    N     N_R   0.965058 0.368199 0.626300 -0.181496
N4    N     N_R   0.035306 0.366232 0.628455 -0.179342
N5    N     N_R   0.499530 0.499140 0.142800 -0.099999
N6    N     N_R   0.499530 0.499180 0.857150 -0.104493
O1    O     O_R   0.500010 0.316790 0.614690 -0.618362
O2    O     O_R   0.500000 0.316760 0.385350 -0.591790
O3    O     O_R   0.398140 0.500000 0.614710 -0.581845
O4    O     O_R   0.398130 0.499970 0.385370 -0.627543
O5    O     O_R   0.500000 0.683240 0.614650 -0.610925
O6    O     O_R   0.499990 0.683210 0.385310 -0.623291
O7    O     O_R   0.601870 0.500030 0.614630 -0.624859
O8    O     O_R   0.601860 0.500000 0.385290 -0.618710
Zn1   Zn    Zn3+2 0.500000 0.500020 0.653130 0.955649
Zn2   Zn    Zn3+2 0.500000 0.499980 0.346870 0.947962
N7    N     N_2   0.269843 0.587735 0.715031 -0.304151
H18   H     H_    0.247450 0.571995 0.808954 0.218587
C33   C     C_3   0.265321 0.718095 0.677991 -0.806654
H19   H     H_    0.209020 0.746737 0.664683 0.242050
H20   H     H_    0.294620 0.734730 0.582015 0.232929
H21   H     H_    0.288814 0.776112 0.759848 0.240091
N8    N     N_2   0.362360 0.122209 0.610899 -0.287331
H22   H     H_    0.361731 0.093000 0.510846 0.233784
C34   C     C_3   0.293140 0.118935 0.673857 -0.779031
H23   H     H_    0.255229 0.175056 0.612856 0.251745
H24   H     H_    0.294801 0.159037 0.777824 0.237412
H25   H     H_    0.273911 0.021167 0.678750 0.239136
N9    N     N_2   0.573935 0.124556 0.279171 -0.280421
H26   H     H_    0.625716 0.097549 0.261291 0.219057
C35   C     C_3   0.531752 0.119220 0.156769 -0.754526
H27   H     H_    0.529948 0.021922 0.116698 0.218191
H28   H     H_    0.555679 0.180021 0.078369 0.227552
H29   H     H_    0.476903 0.152786 0.177257 0.247443

loop_
_geom_bond_atom_site_label_1
_geom_bond_atom_site_label_2
_ccdc_geom_bond_type
C8    C9    A    
N7    C33   S    
O8    Zn2   S    
C4    N4    A    
C32   H13   S    
C2    C12   S    
C7    C8    A    
N5    Zn2   S    
C24   N6    A    
C11   C19   S    
C34   H24   S    
C5    C6    A    
C28   C29   A    
C1    O1    A    
C19   H4    S    
C25   H8    S    
C21   N5    A    
C29   H10   S    
N9    C35   S    
C15   C16   A    
C22   H6    S    
C7    C27   S    
C2    C32   A    
C18   C19   S    
O7    Zn1   S    
C33   H19   S    
C12   O4    A    
C20   C24   A    
C16   C17   A    
C34   H25   S    
O1    Zn1   S    
C9    C10   A    
C12   O3    A    
N7    H18   S    
C21   C22   A    
C19   N8    S    
C35   H29   S    
C26   H11   S    
N1    N2    A    
O3    Zn1   S    
C23   O5    A    
C31   H12   S    
C9    H17   S    
C24   C25   S    
N8    C34   S    
C6    H15   S    
C3    N2    A    
N9    H26   S    
N8    H22   S    
C25   C26   S    
C4    N1    A    
C28   N7    S    
C8    H16   S    
C29   C30   A    
C27   O7    A    
C1    O2    A    
C31   C32   A    
N6    Zn1   S    
C17   C18   S    
C18   H2    S    
C6    C7    A    
C27   O8    A    
C20   N5    A    
C16   C23   S    
C1    C13   S    
N3    N4    A    
C18   H3    S    
C11   C17   A    
O4    Zn2   S    
O2    Zn2   S    
C35   H27   S    
C3    N3    A    
C22   N6    A    
C5    H14   S    
O5    Zn1   S    
C5    C10   A    
C3    C10   S    
C25   H7    S    
C11   C13   A    
C30   C31   A    
C20   C26   S    
C33   H21   S    
C35   H28   S    
C14   N9    S    
O6    Zn2   S    
C23   O6    A    
C21   H5    S    
C34   H23   S    
C33   H20   S    
C14   C15   A    
C2    C28   A    
C13   C14   A    
C15   H1    S    
C4    C30   S    
C26   H9    S    
