data_mof_unit_50890.cif
_audit_creation_date              2012-12-10T16:53:29-0500
_audit_creation_method            fapswitch 2.2
_symmetry_space_group_name_H-M    P1
_symmetry_Int_Tables_number       1
_space_group_crystal_system       triclinic
_cell_length_a                    7.835546
_cell_length_b                    8.591175
_cell_length_c                    13.597628
_cell_angle_alpha                 92.728482
_cell_angle_beta                  78.294376
_cell_angle_gamma                 93.488348
_cell_volume                      894.06583599

loop_
_atom_site_label
_atom_site_type_symbol
_atom_type_description
_atom_site_fract_x
_atom_site_fract_y
_atom_site_fract_z
_atom_type_partial_charge
Br1   Br    Br    0.727337 0.026682 0.595876 -0.433877
Br2   Br    Br    0.272661 0.973318 0.404125 -0.433876
C1    C     C_R   0.545048 0.794361 0.497415 0.918303
C2    C     C_1   0.568492 0.519311 0.120623 -0.064033
C3    C     C_2   0.560722 0.956523 0.512793 -0.007907
C4    C     C_2   0.439278 0.043477 0.487208 -0.007907
C5    C     C_3   0.160253 0.328724 0.007844 -0.317083
C6    C     C_3   0.839775 0.671242 0.992155 -0.317063
C7    C     C_3   0.982620 0.309610 0.333346 -0.036740
C8    C     C_3   0.017381 0.690391 0.666653 -0.036739
C9    C     C_R   0.454952 0.205639 0.502585 0.918303
C10   C     C_R   0.469800 0.501208 0.687113 0.888436
C11   C     C_R   0.530200 0.498792 0.312887 0.888436
C12   C     C_1   0.553500 0.509239 0.208621 -0.150306
C13   C     C_1   0.446500 0.490762 0.791379 -0.150309
C14   C     C_2   0.572113 0.527652 0.015724 0.437034
C15   C     C_2   0.427891 0.472351 0.984275 0.437039
C16   C     C_1   0.431510 0.480691 0.879376 -0.064027
H1    H     H_    0.222489 0.226891 0.964361 0.175266
H2    H     H_    0.147855 0.751713 0.652116 0.167013
H3    H     H_    0.016048 0.582028 0.708566 0.140857
H4    H     H_    0.927364 0.769636 0.715732 0.161524
H5    H     H_    0.101075 0.400657 0.959057 0.183783
H6    H     H_    0.053139 0.283033 0.067526 0.185120
H7    H     H_    0.898939 0.599283 0.040933 0.183789
H8    H     H_    0.777566 0.773079 0.035647 0.175268
H9    H     H_    0.946897 0.716927 0.932474 0.185117
H10   H     H_    0.983952 0.417974 0.291435 0.140858
H11   H     H_    0.852145 0.248288 0.347883 0.167014
H12   H     H_    0.072637 0.230366 0.284267 0.161520
N1    N     N_2   0.954190 0.457600 0.473930 0.199646
N2    N     N_2   0.045810 0.542400 0.526070 0.199646
O1    O     O_R   0.388300 0.738660 0.506400 -0.612298
O2    O     O_3   0.719111 0.580812 0.946195 -0.634117
O3    O     O_3   0.043604 0.340236 0.422706 -0.493486
O4    O     O_3   0.956396 0.659764 0.577294 -0.493486
O5    O     O_R   0.611700 0.261340 0.493600 -0.612298
O6    O     O_R   0.679920 0.711490 0.489690 -0.544985
O7    O     O_R   0.320080 0.288510 0.510310 -0.544985
O8    O     O_R   0.333200 0.515510 0.649910 -0.674222
O9    O     O_R   0.666800 0.484490 0.350090 -0.674222
O10   O     O_R   0.624820 0.488340 0.633200 -0.561083
O11   O     O_R   0.375180 0.511660 0.366800 -0.561083
O12   O     O_3   0.280892 0.419193 0.053804 -0.634115
Zn1   Zn    Zn3+2 0.305280 0.518140 0.511160 1.073138
Zn2   Zn    Zn3+2 0.694720 0.481860 0.488840 1.073138

loop_
_geom_bond_atom_site_label_1
_geom_bond_atom_site_label_2
_ccdc_geom_bond_type
C2    C14   S    
C13   C16   T    
C8    O4    S    
O9    Zn2   S    
C10   O8    A    
O1    Zn1   S    
N2    Zn1   S    
N1    N2    D    
C10   C13   S    
C7    H11   S    
O7    Zn1   S    
C11   O11   A    
C11   O9    A    
C15   C16   S    
C15   O12   S    
C6    O2    S    
C11   C12   S    
C8    H4    S    
C9    O7    A    
C6    H7    S    
O11   Zn1   S    
Br2   C4    S    
C7    H12   S    
C5    H5    S    
N2    O4    S    
C5    H1    S    
C8    H3    S    
C2    C12   T    
C3    C4    D    
N1    O3    S    
O6    Zn2   S    
C1    O1    A    
C5    H6    S    
Br1   C3    S    
C6    H8    S    
O8    Zn1   S    
C1    O6    A    
C9    O5    A    
O10   Zn2   S    
C4    C9    S    
C7    O3    S    
C6    H9    S    
C10   O10   A    
C14   O2    S    
O5    Zn2   S    
C5    O12   S    
C7    H10   S    
C8    H2    S    
C14   C15   D    
C1    C3    S    
N1    Zn2   S    
