data_mof_unit_11089.cif
_audit_creation_date              2013-03-05T16:48:17-0500
_audit_creation_method            fapswitch 2.2
_symmetry_space_group_name_H-M    P1
_symmetry_Int_Tables_number       1
_space_group_crystal_system       triclinic
_cell_length_a                    23.484147
_cell_length_b                    8.928086
_cell_length_c                    8.090377
_cell_angle_alpha                 90.007851
_cell_angle_beta                  90.00002
_cell_angle_gamma                 90.0
_cell_volume                      1696.29706508

loop_
_atom_site_label
_atom_site_type_symbol
_atom_site_description
_atom_site_fract_x
_atom_site_fract_y
_atom_site_fract_z
_atom_type_partial_charge
O1    O     O_R   0.500000 0.285350 0.636850 -0.617381
O2    O     O_R   0.500000 0.714650 0.363150 -0.617381
O3    O     O_R   0.500000 0.714650 0.636850 -0.620770
O4    O     O_R   0.500000 0.285350 0.363150 -0.620770
H1    H     H_    0.948065 0.127197 0.422961 0.192740
H2    H     H_    0.051512 0.872868 0.576800 0.192134
H3    H     H_    0.948061 0.872834 0.577038 0.192743
H4    H     H_    0.051516 0.127171 0.423198 0.192137
C1    C     C_R   0.500002 0.217939 0.499993 0.915599
C2    C     C_R   0.500002 0.782060 0.500006 0.915597
O5    O     O_R   0.416160 0.500000 0.636910 -0.564489
O6    O     O_R   0.583840 0.500000 0.363090 -0.565496
O7    O     O_R   0.583840 0.500000 0.636910 -0.565498
O8    O     O_R   0.416160 0.500000 0.363090 -0.564490
C3    C     C_R   0.207623 0.500025 0.499998 -0.193754
C4    C     C_R   0.792083 0.500008 0.500000 -0.184751
C5    C     C_R   0.388842 0.500001 0.500000 1.031909
C6    C     C_R   0.611102 0.500000 0.500000 1.037940
Zn1   Zn    Zn3+2 0.500000 0.500000 0.682780 1.107867
Zn2   Zn    Zn3+2 0.500000 0.500000 0.317220 1.107867
C7    C     C_R   0.296150 0.507892 0.650421 0.507762
C8    C     C_R   0.703611 0.468380 0.646582 0.510545
C9    C     C_R   0.296150 0.492135 0.349578 0.507761
C10   C     C_R   0.703611 0.531624 0.353418 0.510544
C11   C     C_R   0.326401 0.500009 0.499999 -0.570279
C12   C     C_R   0.673440 0.500001 0.500000 -0.563777
C13   C     C_R   0.880617 0.631807 0.526965 0.651950
C14   C     C_R   0.118965 0.368134 0.473592 0.651781
C15   C     C_R   0.880619 0.368218 0.473034 0.651949
C16   C     C_R   0.118963 0.631911 0.526404 0.651788
N1    N     N_R   0.852564 0.500011 0.500000 -0.293250
N2    N     N_R   0.147072 0.500024 0.499998 -0.293991
C17   C     C_R   0.940055 0.365326 0.472402 -0.047819
C18   C     C_R   0.059525 0.634714 0.527434 -0.048242
C19   C     C_R   0.940054 0.634704 0.527596 -0.047820
C20   C     C_R   0.059527 0.365327 0.472562 -0.048238
C21   C     C_R   0.969888 0.500017 0.499998 -0.005068
C22   C     C_R   0.029694 0.500019 0.499998 -0.005724
C23   C     C_R   0.970157 0.231810 0.444873 -0.129092
C24   C     C_R   0.029421 0.768238 0.554981 -0.129808
C25   C     C_R   0.970154 0.768223 0.555124 -0.129089
C26   C     C_R   0.029424 0.231801 0.445016 -0.129804
C27   C     C_1   0.500003 0.065188 0.499991 -0.128600
C28   C     C_1   0.500003 0.934812 0.500009 -0.128601
C29   C     C_R   0.237029 0.507738 0.649728 0.595614
C30   C     C_R   0.762737 0.468560 0.645931 0.596163
C31   C     C_R   0.237029 0.492305 0.350269 0.595617
C32   C     C_R   0.762737 0.531452 0.354069 0.596162
N3    N     N_1   0.500000 0.500000 0.073640 0.028232
N4    N     N_1   0.500000 0.500000 0.926360 0.028232
O9    O     O_2   0.850923 0.759090 0.553081 -0.490763
O10   O     O_2   0.148603 0.240485 0.449142 -0.491839
O11   O     O_2   0.850926 0.240933 0.446918 -0.490764
O12   O     O_2   0.148600 0.759562 0.550856 -0.491835
F1    F     F_    0.208074 0.514624 0.794780 -0.519317
F2    F     F_    0.791748 0.437925 0.787081 -0.529274
F3    F     F_    0.208074 0.485425 0.205216 -0.519317
F4    F     F_    0.791748 0.562088 0.212918 -0.529275
F5    F     F_    0.323394 0.516177 0.798234 -0.518085
F6    F     F_    0.676220 0.435444 0.789921 -0.529049
F7    F     F_    0.323394 0.483841 0.201764 -0.518085
F8    F     F_    0.676219 0.564553 0.210077 -0.529049

loop_
_geom_bond_atom_site_label_1
_geom_bond_atom_site_label_2
_geom_bond_distance
_ccdc_geom_bond_type
C16   N2    1.366692 A    
C27   C28   1.164000 T    
O3    Zn1   1.952156 S    
C21   C22   1.404481 A    
O8    Zn2   2.003582 S    
C31   F3    1.357678 S    
Zn2   N3    1.970654 S    
C14   O10   1.349936 S    
C10   C32   1.388535 A    
C20   C26   1.403759 A    
C6    C12   1.463955 S    
C3    C31   1.396075 A    
C14   C20   1.396103 A    
C5    C11   1.466388 S    
C13   C19   1.396057 A    
C4    C32   1.395617 A    
C20   C22   1.409307 A    
C1    C27   1.363783 S    
C3    N2    1.421970 S    
C15   N1    1.366067 A    
O3    C2    1.260200 A    
C4    N1    1.420354 S    
C32   F4    1.357624 S    
C4    C30   1.395619 A    
C16   O12   1.349936 S    
O8    C5    1.280024 A    
O6    Zn2   2.003579 S    
C17   C23   1.403647 A    
C15   O11   1.349908 S    
O7    C6    1.279373 A    
C18   C24   1.403761 A    
C24   C25   1.391828 A    
C8    C30   1.388535 A    
H4    C26   1.083008 S    
C7    F5    1.358263 S    
C23   C26   1.391828 A    
C7    C29   1.388435 A    
C9    C11   1.410887 A    
C13   N1    1.366067 A    
C8    F6    1.358381 S    
C19   C25   1.403649 A    
Zn1   N4    1.970654 S    
O1    Zn1   1.952057 S    
C9    C31   1.388435 A    
C16   C18   1.396102 A    
C2    C28   1.363783 S    
O4    Zn2   1.952157 S    
C15   C17   1.396057 A    
C14   N2    1.366693 A    
H2    C24   1.083005 S    
O1    C1    1.260149 A    
C29   F1    1.357678 S    
C17   C21   1.409502 A    
N3    N4    1.191550 T    
C8    C12   1.410029 A    
C9    F7    1.358266 S    
C30   F2    1.357622 S    
H1    C23   1.083005 S    
C7    C11   1.410887 A    
O5    Zn1   2.003581 S    
O7    Zn1   2.003579 S    
C10   F8    1.358381 S    
C19   C21   1.409502 A    
O4    C1    1.260200 A    
C18   C22   1.409309 A    
O2    Zn2   1.952056 S    
O2    C2    1.260149 A    
O5    C5    1.280025 A    
C10   C12   1.410027 A    
H3    C25   1.083005 S    
C13   O9    1.349905 S    
C3    C29   1.396075 A    
O6    C6    1.279373 A    
