data_mof_unit_60947.cif
_audit_creation_date              2012-12-10T18:02:15-0500
_audit_creation_method            fapswitch 2.2
_symmetry_space_group_name_H-M    P1
_symmetry_Int_Tables_number       1
_space_group_crystal_system       triclinic
_cell_length_a                    21.598639
_cell_length_b                    21.592694
_cell_length_c                    38.775168
_cell_angle_alpha                 89.99984
_cell_angle_beta                  89.999376
_cell_angle_gamma                 90.01378
_cell_volume                      18083.6832529

loop_
_atom_site_label
_atom_site_type_symbol
_atom_type_description
_atom_site_fract_x
_atom_site_fract_y
_atom_site_fract_z
_atom_type_partial_charge
C1    C     C_R   0.499996 0.879865 0.999989 0.899769
C2    C     C_R   0.879828 0.499993 0.000001 0.892713
C3    C     C_R   0.500004 0.120135 0.999989 0.899742
C4    C     C_R   0.120172 0.500007 0.000001 0.892714
C5    C     C_R   0.999994 0.379836 0.500002 0.892853
C6    C     C_R   0.379826 0.999999 0.500016 0.885835
C7    C     C_R   0.000006 0.620164 0.500002 0.892852
C8    C     C_R   0.620174 0.000001 0.500016 0.885835
C9    C     C_R   0.499879 0.686596 0.000051 -0.015508
C10   C     C_R   0.686505 0.499985 0.999999 -0.013416
C11   C     C_R   0.500122 0.313404 0.000051 -0.015522
C12   C     C_R   0.313495 0.500014 1.000000 -0.013416
C13   C     C_R   0.999994 0.186506 0.500001 -0.014009
C14   C     C_R   0.186499 0.000007 0.500009 -0.012991
C15   C     C_R   0.000006 0.813494 0.500001 -0.014008
C16   C     C_R   0.813501 0.999992 0.500010 -0.012991
C17   C     C_R   0.499972 0.813827 0.000007 -0.015577
C18   C     C_R   0.813734 0.499980 0.999998 0.000528
C19   C     C_R   0.500027 0.186172 0.000007 -0.015632
C20   C     C_R   0.186266 0.500019 0.999998 0.000528
C21   C     C_R   0.999982 0.313743 0.500006 0.000215
C22   C     C_R   0.313727 0.000009 0.500023 0.001274
C23   C     C_R   0.000018 0.686257 0.500006 0.000215
C24   C     C_R   0.686273 0.999991 0.500023 0.001273
C25   C     C_R   0.379617 0.500007 0.000000 0.863207
C26   C     C_R   0.499963 0.620414 0.000008 0.863415
C27   C     C_R   0.620383 0.499993 1.000000 0.863206
C28   C     C_R   0.500037 0.379586 0.000008 0.863414
C29   C     C_R   0.879619 0.999999 0.500001 0.862187
C30   C     C_R   0.999999 0.120382 0.500000 0.862541
C31   C     C_R   0.120381 0.000001 0.500001 0.862187
C32   C     C_R   0.000001 0.879618 0.500000 0.862541
C33   C     C_R   0.500000 1.000000 0.932658 0.989059
C34   C     C_R   1.000000 0.500000 0.932644 0.988776
C35   C     C_R   0.500000 0.000000 0.067219 1.015173
C36   C     C_R   1.000000 0.500000 0.067354 0.989038
C37   C     C_R   0.000000 0.500000 0.432648 0.988775
C38   C     C_R   0.500000 1.000000 0.432520 0.968671
C39   C     C_R   1.000000 0.500000 0.567350 0.988983
C40   C     C_R   0.500000 1.000000 0.567362 0.987591
C41   C     C_R   0.539153 0.959221 0.877088 0.398490
C42   C     C_R   0.960245 0.459784 0.877040 0.399067
C43   C     C_R   0.460849 0.040780 0.877089 0.398490
C44   C     C_R   0.039754 0.540217 0.877039 0.399067
C45   C     C_R   0.486113 0.945184 0.122391 0.393479
C46   C     C_R   0.039913 0.459961 0.122953 0.398940
C47   C     C_R   0.513884 0.054813 0.122393 0.393402
C48   C     C_R   0.960087 0.540039 0.122953 0.398939
C49   C     C_R   0.040114 0.460160 0.377046 0.399078
C50   C     C_R   0.469224 0.952523 0.376512 0.404822
C51   C     C_R   0.959888 0.539840 0.377046 0.399077
C52   C     C_R   0.530771 0.047476 0.376511 0.404819
C53   C     C_R   0.959984 0.460042 0.622948 0.399010
C54   C     C_R   0.539278 0.959334 0.622988 0.399396
C55   C     C_R   0.040013 0.539959 0.622948 0.399008
C56   C     C_R   0.460723 0.040665 0.622988 0.399396
C57   C     C_R   0.537756 0.958472 0.841040 -0.276188
C58   C     C_R   0.959458 0.461178 0.840993 -0.276578
C59   C     C_R   0.462247 0.041530 0.841040 -0.276187
C60   C     C_R   0.040539 0.538824 0.840992 -0.276576
C61   C     C_R   0.487578 0.945188 0.158466 -0.270669
C62   C     C_R   0.040694 0.461356 0.159000 -0.276666
C63   C     C_R   0.512414 0.054808 0.158467 -0.270579
C64   C     C_R   0.959308 0.538644 0.159000 -0.276663
C65   C     C_R   0.038721 0.459377 0.340998 -0.276459
C66   C     C_R   0.468319 0.953746 0.340448 -0.278786
C67   C     C_R   0.961283 0.540624 0.340998 -0.276457
C68   C     C_R   0.531675 0.046252 0.340447 -0.278783
C69   C     C_R   0.961379 0.459262 0.658995 -0.276517
C70   C     C_R   0.540076 0.960721 0.659036 -0.276753
C71   C     C_R   0.038618 0.540740 0.658995 -0.276516
C72   C     C_R   0.459925 0.039279 0.659036 -0.276754
C73   C     C_R   0.500002 0.000001 0.822842 -0.032053
C74   C     C_R   0.999999 0.500001 0.822796 -0.031911
C75   C     C_R   0.499995 0.999998 0.176663 -0.033515
C76   C     C_R   0.000001 0.500000 0.177197 -0.032080
C77   C     C_R   0.000002 0.500001 0.322801 -0.031870
C78   C     C_R   0.499996 0.999999 0.322267 -0.031431
C79   C     C_R   0.999998 0.500001 0.677192 -0.031935
C80   C     C_R   0.500001 1.000000 0.677233 -0.031861
C81   C     C_R   0.500001 0.000000 0.895054 -0.241515
C82   C     C_R   1.000000 0.500000 0.895021 -0.242839
C83   C     C_R   0.499999 0.999999 0.104598 -0.224485
C84   C     C_R   0.000000 0.500000 0.104974 -0.242813
C85   C     C_R   0.000001 0.500000 0.395026 -0.242631
C86   C     C_R   0.499998 1.000000 0.394669 -0.251939
C87   C     C_R   0.999999 0.500000 0.604970 -0.242601
C88   C     C_R   0.500000 1.000000 0.604997 -0.243310
C89   C     C_R   0.500001 0.000000 0.715120 0.342885
C90   C     C_R   0.999998 0.500001 0.715076 0.342818
C91   C     C_R   0.499996 0.999998 0.284382 0.343867
C92   C     C_R   0.000002 0.500001 0.284917 0.342800
C93   C     C_R   0.000002 0.500000 0.215082 0.342659
C94   C     C_R   0.499995 0.999998 0.214544 0.342838
C95   C     C_R   0.999998 0.500001 0.784911 0.342816
C96   C     C_R   0.500002 0.000001 0.784956 0.342795
C97   C     C_R   0.537976 0.782258 0.023224 -0.165259
C98   C     C_R   0.782095 0.459977 0.022155 -0.172393
C99   C     C_R   0.462028 0.217741 0.023227 -0.165245
C100  C     C_R   0.217904 0.540022 0.022156 -0.172391
C101  C     C_R   0.461748 0.782230 0.976905 -0.179589
C102  C     C_R   0.217885 0.460018 0.977839 -0.172132
C103  C     C_R   0.538247 0.217770 0.976902 -0.179588
C104  C     C_R   0.782116 0.539981 0.977839 -0.172130
C105  C     C_R   0.039923 0.282127 0.522195 -0.172163
C106  C     C_R   0.282083 0.959932 0.522137 -0.169217
C107  C     C_R   0.960076 0.717873 0.522195 -0.172162
C108  C     C_R   0.717916 0.040068 0.522137 -0.169216
C109  C     C_R   0.960044 0.282108 0.477817 -0.172057
C110  C     C_R   0.717889 0.959889 0.477917 -0.178073
C111  C     C_R   0.039957 0.717893 0.477817 -0.172056
C112  C     C_R   0.282111 0.040110 0.477917 -0.178071
C113  C     C_R   0.537229 0.718293 0.023603 -0.193847
C114  C     C_R   0.718137 0.460667 0.022536 -0.184069
C115  C     C_R   0.462775 0.281706 0.023606 -0.193799
C116  C     C_R   0.281862 0.539332 0.022537 -0.184071
C117  C     C_R   0.462410 0.718265 0.976563 -0.180325
C118  C     C_R   0.281842 0.460705 0.977460 -0.182657
C119  C     C_R   0.537585 0.281735 0.976560 -0.180326
C120  C     C_R   0.718158 0.539295 0.977459 -0.182660
C121  C     C_R   0.039242 0.218159 0.522570 -0.183340
C122  C     C_R   0.218124 0.960617 0.522509 -0.183300
C123  C     C_R   0.960757 0.781841 0.522571 -0.183340
C124  C     C_R   0.781875 0.039382 0.522510 -0.183301
C125  C     C_R   0.960736 0.218139 0.477436 -0.182915
C126  C     C_R   0.781847 0.960580 0.477528 -0.182587
C127  C     C_R   0.039264 0.781861 0.477436 -0.182915
C128  C     C_R   0.218154 0.039419 0.477527 -0.182588
H1    H     H_    0.565978 0.925053 0.827406 0.169148
H2    H     H_    0.926782 0.432089 0.827356 0.169144
H3    H     H_    0.434025 0.074949 0.827406 0.169148
H4    H     H_    0.073215 0.567912 0.827355 0.169145
H5    H     H_    0.479644 0.902202 0.172143 0.167940
H6    H     H_    0.073485 0.432412 0.172636 0.169275
H7    H     H_    0.520352 0.097794 0.172143 0.167990
H8    H     H_    0.926517 0.567589 0.172637 0.169276
H9    H     H_    0.067725 0.426637 0.327361 0.169140
H10   H     H_    0.442164 0.918746 0.326748 0.168795
H11   H     H_    0.932279 0.573364 0.327361 0.169141
H12   H     H_    0.557829 0.081252 0.326745 0.168797
H13   H     H_    0.932454 0.426438 0.672632 0.169147
H14   H     H_    0.572409 0.931269 0.672674 0.169137
H15   H     H_    0.067542 0.573564 0.672631 0.169147
H16   H     H_    0.427593 0.068731 0.672675 0.169137
H17   H     H_    0.567168 0.807097 0.041270 0.160852
H18   H     H_    0.806863 0.429219 0.039401 0.142868
H19   H     H_    0.432840 0.192902 0.041274 0.160854
H20   H     H_    0.193135 0.570780 0.039401 0.142867
H21   H     H_    0.432435 0.807045 0.958917 0.145323
H22   H     H_    0.193103 0.429259 0.960594 0.143463
H23   H     H_    0.567556 0.192955 0.958912 0.145327
H24   H     H_    0.806899 0.570740 0.960593 0.143463
H25   H     H_    0.070631 0.306919 0.539462 0.143518
H26   H     H_    0.306845 0.929110 0.539350 0.143226
H27   H     H_    0.929368 0.693080 0.539463 0.143518
H28   H     H_    0.693153 0.070889 0.539350 0.143226
H29   H     H_    0.929336 0.306885 0.460550 0.143772
H30   H     H_    0.693106 0.929056 0.460714 0.141129
H31   H     H_    0.070665 0.693115 0.460550 0.143771
H32   H     H_    0.306895 0.070944 0.460713 0.141128
H33   H     H_    0.566337 0.693577 0.041733 0.149680
H34   H     H_    0.693365 0.430062 0.039870 0.144132
H35   H     H_    0.433671 0.306422 0.041738 0.149678
H36   H     H_    0.306633 0.569937 0.039871 0.144131
H37   H     H_    0.433212 0.693527 0.958481 0.146794
H38   H     H_    0.306597 0.430098 0.960126 0.145635
H39   H     H_    0.566780 0.306473 0.958476 0.146799
H40   H     H_    0.693404 0.569901 0.960125 0.145634
H41   H     H_    0.069803 0.193396 0.539925 0.145686
H42   H     H_    0.193347 0.929948 0.539806 0.145396
H43   H     H_    0.930197 0.806603 0.539925 0.145685
H44   H     H_    0.806651 0.070051 0.539807 0.145396
H45   H     H_    0.930181 0.193361 0.460080 0.146130
H46   H     H_    0.806600 0.929906 0.460231 0.145058
H47   H     H_    0.069820 0.806639 0.460080 0.146130
H48   H     H_    0.193401 0.070093 0.460230 0.145058
N1    N     N_R   0.462492 0.038951 0.767169 -0.184908
N2    N     N_R   0.038138 0.538352 0.767123 -0.184892
N3    N     N_R   0.537511 0.961050 0.767168 -0.184907
N4    N     N_R   0.961858 0.461650 0.767124 -0.184892
N5    N     N_R   0.521530 0.049629 0.232327 -0.185082
N6    N     N_R   0.961723 0.538195 0.232869 -0.184838
N7    N     N_R   0.478460 0.950367 0.232328 -0.185079
N8    N     N_R   0.038280 0.461805 0.232869 -0.184837
N9    N     N_R   0.961722 0.538194 0.267130 -0.184846
N10   N     N_R   0.521596 0.049601 0.266596 -0.185103
N11   N     N_R   0.038281 0.461807 0.267129 -0.184846
N12   N     N_R   0.478394 0.950396 0.266597 -0.185106
N13   N     N_R   0.038140 0.538351 0.732863 -0.184890
N14   N     N_R   0.462492 0.038951 0.732908 -0.184909
N15   N     N_R   0.961856 0.461651 0.732864 -0.184890
N16   N     N_R   0.537511 0.961050 0.732908 -0.184909
O1    O     O_R   0.448370 0.908480 0.999910 -0.638482
O2    O     O_R   0.908480 0.551630 0.999910 -0.628691
O3    O     O_R   0.551630 0.091520 0.999910 -0.638475
O4    O     O_R   0.091520 0.448370 0.999910 -0.628690
O5    O     O_R   0.551630 0.908480 0.000090 -0.620913
O6    O     O_R   0.091520 0.551630 0.000090 -0.628838
O7    O     O_R   0.448370 0.091520 0.000090 -0.620910
O8    O     O_R   0.908480 0.448370 0.000090 -0.628837
O9    O     O_R   0.948370 0.408480 0.499910 -0.628723
O10   O     O_R   0.408480 0.051630 0.499910 -0.629365
O11   O     O_R   0.051630 0.591520 0.499910 -0.628723
O12   O     O_R   0.591520 0.948370 0.499910 -0.629364
O13   O     O_R   0.051630 0.408480 0.500090 -0.628769
O14   O     O_R   0.591520 0.051630 0.500090 -0.625008
O15   O     O_R   0.948370 0.591520 0.500090 -0.628769
O16   O     O_R   0.408480 0.948370 0.500090 -0.625007
O17   O     O_R   0.448370 0.000090 0.948970 -0.614233
O18   O     O_R   0.000090 0.551630 0.948970 -0.612999
O19   O     O_R   0.551630 0.999910 0.948970 -0.614231
O20   O     O_R   0.999910 0.448370 0.948970 -0.612998
O21   O     O_R   0.551630 0.000090 0.051030 -0.625789
O22   O     O_R   0.999910 0.551630 0.051030 -0.613290
O23   O     O_R   0.448370 0.999910 0.051030 -0.625727
O24   O     O_R   0.000090 0.448370 0.051030 -0.613287
O25   O     O_R   0.948370 0.500090 0.448970 -0.613043
O26   O     O_R   0.500090 0.051630 0.448970 -0.602511
O27   O     O_R   0.051630 0.499910 0.448970 -0.613041
O28   O     O_R   0.499910 0.948370 0.448970 -0.602510
O29   O     O_R   0.051630 0.500090 0.551030 -0.613250
O30   O     O_R   0.499910 0.051630 0.551030 -0.612559
O31   O     O_R   0.948370 0.499910 0.551030 -0.613249
O32   O     O_R   0.500090 0.948370 0.551030 -0.612559
O33   O     O_R   0.408360 0.500090 0.028640 -0.621892
O34   O     O_R   0.500090 0.591640 0.028640 -0.623796
O35   O     O_R   0.591640 0.499910 0.028640 -0.621892
O36   O     O_R   0.499910 0.408360 0.028640 -0.623795
O37   O     O_R   0.591640 0.500090 0.971360 -0.621577
O38   O     O_R   0.499910 0.591640 0.971360 -0.621587
O39   O     O_R   0.408360 0.499910 0.971360 -0.621577
O40   O     O_R   0.500090 0.408360 0.971360 -0.621588
O41   O     O_R   0.908360 0.000090 0.528640 -0.621663
O42   O     O_R   0.000090 0.091640 0.528640 -0.621667
O43   O     O_R   0.091640 0.999910 0.528640 -0.621663
O44   O     O_R   0.999910 0.908360 0.528640 -0.621667
O45   O     O_R   0.091640 0.000090 0.471360 -0.621693
O46   O     O_R   0.999910 0.091640 0.471360 -0.621677
O47   O     O_R   0.908360 0.999910 0.471360 -0.621693
O48   O     O_R   0.000090 0.908360 0.471360 -0.621678
Zn1   Zn    Zn3+2 0.431020 0.000000 0.000000 0.954616
Zn2   Zn    Zn3+2 0.000000 0.568980 0.000000 0.948345
Zn3   Zn    Zn3+2 0.568980 0.000000 0.000000 0.954593
Zn4   Zn    Zn3+2 0.000000 0.431020 0.000000 0.948346
Zn5   Zn    Zn3+2 0.931020 0.500000 0.500000 0.948403
Zn6   Zn    Zn3+2 0.500000 0.068980 0.500000 0.951224
Zn7   Zn    Zn3+2 0.068980 0.500000 0.500000 0.948403
Zn8   Zn    Zn3+2 0.500000 0.931020 0.500000 0.951224
Zn9   Zn    Zn3+2 0.500000 0.500000 0.038290 0.957637
Zn10  Zn    Zn3+2 0.500000 0.500000 0.961710 0.961762
Zn11  Zn    Zn3+2 1.000000 1.000000 0.538290 0.962226
Zn12  Zn    Zn3+2 1.000000 1.000000 0.461710 0.962252
O49   O     O_3   0.573660 0.915866 0.895051 -0.600691
C129  C     C_3   0.637268 0.929417 0.891302 0.128831
H49   H     H_    0.647216 0.979192 0.896714 0.137398
H50   H     H_    0.653366 0.917696 0.864844 0.132394
C130  C     C_3   0.673872 0.890599 0.916901 -0.800720
H51   H     H_    0.665894 0.840568 0.911937 0.256296
H52   H     H_    0.724068 0.900639 0.914218 0.192730
H53   H     H_    0.659147 0.901709 0.943647 0.264541
O50   O     O_3   0.917808 0.424101 0.894981 -0.599513
C131  C     C_3   0.933000 0.360859 0.891194 0.130776
H54   H     H_    0.983010 0.352219 0.896580 0.136802
H55   H     H_    0.921670 0.344495 0.864732 0.131973
C132  C     C_3   0.895195 0.323181 0.916788 -0.802728
H56   H     H_    0.844981 0.329832 0.911846 0.256143
H57   H     H_    0.906540 0.273261 0.914075 0.192564
H58   H     H_    0.905946 0.338155 0.943538 0.263624
O51   O     O_3   0.426342 0.084134 0.895051 -0.600691
C133  C     C_3   0.362734 0.070584 0.891303 0.128830
H59   H     H_    0.352786 0.020809 0.896715 0.137399
H60   H     H_    0.346636 0.082305 0.864845 0.132393
C134  C     C_3   0.326130 0.109402 0.916902 -0.800716
H61   H     H_    0.334107 0.159433 0.911937 0.256295
H62   H     H_    0.275934 0.099362 0.914219 0.192730
H63   H     H_    0.340854 0.098292 0.943648 0.264542
O52   O     O_3   0.082191 0.575900 0.894979 -0.599512
C135  C     C_3   0.066998 0.639142 0.891193 0.130773
H64   H     H_    0.016988 0.647780 0.896581 0.136804
H65   H     H_    0.078326 0.655507 0.864731 0.131974
C136  C     C_3   0.104803 0.676819 0.916786 -0.802728
H66   H     H_    0.155017 0.670169 0.911842 0.256143
H67   H     H_    0.093458 0.726739 0.914074 0.192564
H68   H     H_    0.094054 0.661845 0.943536 0.263625
O53   O     O_3   0.477049 0.890749 0.104167 -0.617438
C137  C     C_3   0.415216 0.870877 0.108346 0.102722
H69   H     H_    0.381848 0.908971 0.102674 0.143225
H70   H     H_    0.407361 0.853495 0.134996 0.141144
C138  C     C_3   0.402407 0.818088 0.083361 -0.802116
H71   H     H_    0.435455 0.779527 0.087888 0.261534
H72   H     H_    0.354489 0.800716 0.087119 0.200287
H73   H     H_    0.407364 0.834615 0.056403 0.262516
O54   O     O_3   0.082492 0.424475 0.105008 -0.599742
C139  C     C_3   0.067550 0.361165 0.108786 0.129678
H74   H     H_    0.017576 0.352305 0.103396 0.136709
H75   H     H_    0.078940 0.344839 0.135247 0.132533
C140  C     C_3   0.105510 0.323668 0.083190 -0.799926
H76   H     H_    0.155697 0.330542 0.088136 0.256651
H77   H     H_    0.094365 0.273697 0.085896 0.193162
H78   H     H_    0.094705 0.338606 0.056441 0.263434
O55   O     O_3   0.522957 0.109250 0.104173 -0.617425
C141  C     C_3   0.584819 0.129059 0.108319 0.102727
H79   H     H_    0.618139 0.090948 0.102585 0.143262
H80   H     H_    0.592762 0.146359 0.134980 0.141097
C142  C     C_3   0.597607 0.181907 0.083369 -0.801999
H81   H     H_    0.564601 0.220487 0.087957 0.261500
H82   H     H_    0.645551 0.199228 0.087104 0.200268
H83   H     H_    0.592566 0.165460 0.056399 0.262494
O56   O     O_3   0.917508 0.575524 0.105010 -0.599742
C143  C     C_3   0.932451 0.638834 0.108786 0.129674
H84   H     H_    0.982425 0.647693 0.103392 0.136714
H85   H     H_    0.921067 0.655161 0.135247 0.132531
C144  C     C_3   0.894487 0.676330 0.083192 -0.799931
H86   H     H_    0.844302 0.669458 0.088142 0.256650
H87   H     H_    0.905634 0.726302 0.085896 0.193163
H88   H     H_    0.905287 0.661391 0.056443 0.263435
O57   O     O_3   0.075685 0.417644 0.394988 -0.599535
C145  C     C_3   0.138948 0.432708 0.391196 0.130877
H89   H     H_    0.147713 0.482717 0.396574 0.136923
H90   H     H_    0.155274 0.421327 0.364736 0.131876
C146  C     C_3   0.176523 0.394827 0.416794 -0.803196
H91   H     H_    0.169742 0.344610 0.411861 0.256050
H92   H     H_    0.226458 0.406067 0.414077 0.192328
H93   H     H_    0.161587 0.405627 0.443543 0.263824
O58   O     O_3   0.434834 0.908698 0.394203 -0.591763
C147  C     C_3   0.462909 0.850011 0.390408 0.136396
H94   H     H_    0.513449 0.851877 0.396289 0.133765
H95   H     H_    0.456057 0.832016 0.363797 0.129700
C148  C     C_3   0.432967 0.804896 0.415493 -0.803493
H96   H     H_    0.382627 0.801052 0.410045 0.255055
H97   H     H_    0.454512 0.758466 0.412748 0.191907
H98   H     H_    0.439556 0.821321 0.442396 0.259286
O59   O     O_3   0.924317 0.582356 0.394988 -0.599535
C149  C     C_3   0.861055 0.567291 0.391198 0.130879
H99   H     H_    0.852290 0.517283 0.396578 0.136925
H100  H     H_    0.844728 0.578669 0.364737 0.131874
C150  C     C_3   0.823479 0.605175 0.416794 -0.803195
H101  H     H_    0.830258 0.655391 0.411859 0.256049
H102  H     H_    0.773543 0.593933 0.414078 0.192327
H103  H     H_    0.838414 0.594378 0.443544 0.263825
O60   O     O_3   0.565162 0.091302 0.394201 -0.591765
C151  C     C_3   0.537086 0.149988 0.390406 0.136397
H104  H     H_    0.486546 0.148121 0.396290 0.133766
H105  H     H_    0.543933 0.167983 0.363794 0.129701
C152  C     C_3   0.567030 0.195105 0.415489 -0.803496
H106  H     H_    0.617369 0.198949 0.410038 0.255056
H107  H     H_    0.545483 0.241534 0.412745 0.191909
H108  H     H_    0.560445 0.178680 0.442392 0.259286
O61   O     O_3   0.924522 0.417422 0.605003 -0.599649
C153  C     C_3   0.861222 0.432306 0.608788 0.130347
H109  H     H_    0.852339 0.482290 0.603408 0.136825
H110  H     H_    0.844912 0.420878 0.635246 0.132029
C154  C     C_3   0.823748 0.394317 0.583185 -0.802211
H111  H     H_    0.830647 0.344119 0.588119 0.256250
H112  H     H_    0.773784 0.405414 0.585897 0.192454
H113  H     H_    0.838670 0.405161 0.556438 0.263810
O62   O     O_3   0.581294 0.923159 0.605058 -0.598960
C155  C     C_3   0.565352 0.860095 0.608857 0.131179
H114  H     H_    0.515239 0.852023 0.603480 0.136564
H115  H     H_    0.576499 0.843615 0.635319 0.131796
C156  C     C_3   0.602692 0.821973 0.583264 -0.802677
H116  H     H_    0.652985 0.828051 0.588198 0.256153
H117  H     H_    0.590755 0.772187 0.585987 0.192310
H118  H     H_    0.592107 0.837052 0.556512 0.263320
O63   O     O_3   0.075475 0.582579 0.605002 -0.599649
C157  C     C_3   0.138775 0.567695 0.608786 0.130350
H119  H     H_    0.147657 0.517711 0.603406 0.136826
H120  H     H_    0.155085 0.579121 0.635245 0.132027
C158  C     C_3   0.176249 0.605685 0.583183 -0.802208
H121  H     H_    0.169350 0.655883 0.588117 0.256249
H122  H     H_    0.226213 0.594588 0.585894 0.192453
H123  H     H_    0.161329 0.594842 0.556436 0.263809
O64   O     O_3   0.418706 0.076841 0.605059 -0.598960
C159  C     C_3   0.434648 0.139905 0.608858 0.131182
H124  H     H_    0.484760 0.147977 0.603480 0.136563
H125  H     H_    0.423500 0.156384 0.635320 0.131795
C160  C     C_3   0.397307 0.178027 0.583265 -0.802679
H126  H     H_    0.347015 0.171949 0.588199 0.256153
H127  H     H_    0.409245 0.227812 0.585988 0.192310
H128  H     H_    0.407893 0.162947 0.556513 0.263321

loop_
_geom_bond_atom_site_label_1
_geom_bond_atom_site_label_2
_ccdc_geom_bond_type
C91   N12   A    
C51   O59   S    
O62   C155  S    
C148  H97   S    
C38   O26   A    
C39   C87   S    
C53   C69   A    
C60   H4    S    
C150  H101  S    
C92   N11   A    
C61   H5    S    
C15   C32   S    
O59   C149  S    
O6    Zn2   S    
C136  H68   S    
C59   H3    S    
C46   C62   A    
O25   Zn5   S    
C98   C114  A    
C134  H63   S    
C14   C128  A    
C155  C156  S    
C72   H16   S    
C160  H128  S    
C7    O11   A    
C27   O37   A    
O5    Zn3   S    
C56   C72   A    
C3    C19   S    
C147  H94   S    
C46   O54   S    
C107  C123  A    
C11   C115  A    
C59   C73   A    
C137  C138  S    
C158  H123  S    
C65   H9    S    
O28   Zn8   S    
C15   C127  A    
C42   C58   A    
C47   O55   S    
C108  C124  A    
C154  H112  S    
C9    C26   S    
C156  H118  S    
C143  H85   S    
C65   C77   A    
C13   C30   S    
C8    O12   A    
C24   C110  A    
O18   Zn2   S    
N2    N13   A    
C19   C99   A    
C151  H104  S    
O29   Zn7   S    
C50   O58   S    
O55   C141  S    
C26   O38   A    
N6    N9    A    
C1    O1    A    
C49   C85   A    
C54   C70   A    
C23   C107  A    
C147  C148  S    
C18   C104  A    
C152  H108  S    
C29   O41   A    
C34   O20   A    
C46   C84   A    
C52   O60   S    
C91   N10   A    
C133  H60   S    
C68   H12   S    
C94   N7    A    
C119  H39   S    
C150  H103  S    
C120  H40   S    
C71   H15   S    
O36   Zn9   S    
C32   O44   A    
C4    O4    A    
C99   H19   S    
C112  H32   S    
C145  C146  S    
O46   Zn12  S    
C97   H17   S    
O13   Zn7   S    
C151  C152  S    
C70   H14   S    
C32   O48   A    
O22   Zn2   S    
C104  H24   S    
C52   C86   A    
C16   C124  A    
N7    N12   A    
C137  H70   S    
C149  C150  S    
C40   C88   S    
C25   O33   A    
C115  H35   S    
C153  H109  S    
C43   O51   S    
C49   O57   S    
C53   O61   S    
C4    C20   S    
C5    C21   S    
C146  H91   S    
O63   C157  S    
C107  H27   S    
C10   C27   S    
O34   Zn9   S    
C105  H25   S    
C64   H8    S    
O61   C153  S    
C67   C77   A    
C14   C31   S    
C109  H29   S    
C71   C79   A    
C38   C86   S    
C58   H2    S    
C5    O9    A    
O50   C131  S    
C56   C88   A    
C41   O49   S    
C130  H51   S    
C57   C73   A    
C159  H124  S    
C145  H90   S    
C34   O18   A    
C36   O22   A    
C142  H82   S    
C129  H50   S    
C89   N14   A    
C94   N5    A    
C67   H11   S    
O8    Zn4   S    
C6    O16   A    
C43   C59   A    
O35   Zn9   S    
C4    O6    A    
O52   C135  S    
C28   O36   A    
C140  H77   S    
C45   C83   A    
C30   O46   A    
C42   O50   S    
O15   Zn5   S    
C141  H80   S    
C10   C120  A    
C7    O15   A    
O17   Zn1   S    
C149  H99   S    
C129  C130  S    
C122  H42   S    
C52   C68   A    
C31   O43   A    
C159  C160  S    
O16   Zn8   S    
O54   C139  S    
C13   C121  A    
C66   H10   S    
C146  H93   S    
C106  C122  A    
C138  H71   S    
C53   C87   A    
C51   C67   A    
C155  H115  S    
C132  H57   S    
C157  C158  S    
C110  C126  A    
C47   C83   A    
C43   C81   A    
C69   C79   A    
C113  H33   S    
C58   C74   A    
O3    Zn3   S    
N1    N14   A    
O47   Zn12  S    
O1    Zn1   S    
C1    O5    A    
N4    N15   A    
C10   C114  A    
O42   Zn11  S    
C21   C109  A    
N5    N10   A    
C131  H54   S    
C136  H67   S    
C23   C111  A    
C22   C112  A    
N8    N11   A    
C130  H53   S    
C9    C113  A    
C54   C88   A    
C13   C125  A    
C72   C80   A    
C36   O24   A    
C63   C75   A    
C7    C23   S    
C8    C24   S    
C89   N16   A    
C126  H46   S    
C55   C87   A    
C123  H43   S    
C160  H127  S    
C95   N4    A    
O11   Zn7   S    
C16   C29   S    
C135  H64   S    
C147  H95   S    
C34   C82   S    
C35   O23   A    
C158  H122  S    
O24   Zn4   S    
C14   C122  A    
C100  C116  A    
C37   O25   A    
C62   C76   A    
C131  C132  S    
C154  H111  S    
O31   Zn5   S    
C156  H117  S    
O14   Zn6   S    
C44   C82   A    
C47   C63   A    
C139  H74   S    
C151  H105  S    
C114  H34   S    
C69   H13   S    
C6    C22   S    
C138  H73   S    
C45   O53   S    
C148  H96   S    
C80   C89   S    
C111  H31   S    
C157  H119  S    
O32   Zn8   S    
C117  H37   S    
C106  H26   S    
C135  C136  S    
O45   Zn12  S    
C24   C108  A    
C96   N1    A    
C152  H107  S    
C110  H30   S    
C103  H23   S    
C11   C119  A    
O51   C133  S    
C127  H47   S    
C133  C134  S    
C39   O31   A    
C66   C78   A    
C150  H102  S    
C68   C78   A    
O10   Zn6   S    
C128  H48   S    
C70   C80   A    
O19   Zn3   S    
O9    Zn5   S    
C139  C140  S    
C35   C83   S    
C153  C154  S    
O60   C151  S    
C100  H20   S    
C40   O30   A    
C2    O2    A    
O53   C137  S    
C76   C93   S    
C93   N6    A    
C95   N2    A    
C20   C100  A    
C41   C81   A    
C30   O42   A    
C8    O14   A    
C35   O21   A    
C49   C65   A    
C102  H22   S    
C12   C118  A    
O4    Zn4   S    
O48   Zn12  S    
O27   Zn7   S    
C37   O27   A    
C154  H113  S    
O7    Zn1   S    
C57   H1    S    
C143  H84   S    
C25   O39   A    
C1    C17   S    
C101  C117  A    
C41   C57   A    
O30   Zn6   S    
C144  H86   S    
O49   C129  S    
C11   C28   S    
C44   C60   A    
C99   C115  A    
C45   C61   A    
C96   N3    A    
O58   C147  S    
C159  H125  S    
C112  C128  A    
C144  H87   S    
C142  H81   S    
C133  H59   S    
C39   O29   A    
C51   C85   A    
C73   C96   S    
C16   C126  A    
C21   C105  A    
C75   C94   S    
C104  C120  A    
C143  C144  S    
C121  H41   S    
C77   C92   S    
C2    C18   S    
C9    C117  A    
C140  H76   S    
C42   C82   A    
O43   Zn11  S    
C125  H45   S    
O56   C143  S    
C61   C75   A    
C141  C142  S    
C129  H49   S    
C15   C123  A    
O57   C145  S    
C40   O32   A    
C2    O8    A    
O26   Zn6   S    
C37   C85   S    
C3    O3    A    
C6    O10   A    
C137  H69   S    
C93   N8    A    
C149  H100  S    
C20   C102  A    
C27   O35   A    
C60   C74   A    
C17   C101  A    
C48   C64   A    
C134  H62   S    
C33   O17   A    
C79   C90   S    
N3    N16   A    
C146  H92   S    
C124  H44   S    
C3    O7    A    
C55   C71   A    
C132  H56   S    
O37   Zn10  S    
C26   O34   A    
C31   O45   A    
C48   O56   S    
C19   C103  A    
C90   N15   A    
O23   Zn1   S    
C38   O28   A    
O21   Zn3   S    
C92   N9    A    
C144  H88   S    
C131  H55   S    
C140  H78   S    
C98   H18   S    
C136  H66   S    
C22   C106  A    
C118  H38   S    
C48   C84   A    
C130  H52   S    
C63   H7    S    
C153  H110  S    
C145  H89   S    
C56   O64   S    
C54   O62   S    
C44   O52   S    
C142  H83   S    
C134  H61   S    
C64   C76   A    
C105  C121  A    
C50   C66   A    
C160  H126  S    
O12   Zn8   S    
C109  C125  A    
C111  C127  A    
C148  H98   S    
C135  H65   S    
O40   Zn10  S    
O44   Zn11  S    
C97   C113  A    
C158  H121  S    
C28   O40   A    
C141  H79   S    
O33   Zn9   S    
O2    Zn2   S    
C74   C95   S    
C116  H36   S    
C103  C119  A    
C102  C118  A    
C78   C91   S    
C156  H116  S    
C108  H28   S    
C12   C25   S    
C62   H6    S    
O20   Zn4   S    
O64   C159  S    
C55   O63   S    
C139  H75   S    
C33   O19   A    
C17   C97   A    
C36   C84   S    
C101  H21   S    
C138  H72   S    
C155  H114  S    
C132  H58   S    
C157  H120  S    
C50   C86   A    
C5    O13   A    
O41   Zn11  S    
C18   C98   A    
C12   C116  A    
C152  H106  S    
O38   Zn10  S    
O39   Zn10  S    
C33   C81   S    
C29   O47   A    
C90   N13   A    
