data_mof_unit_44265.cif
_audit_creation_date              2012-12-10T17:48:21-0500
_audit_creation_method            fapswitch 2.2
_symmetry_space_group_name_H-M    P1
_symmetry_Int_Tables_number       1
_space_group_crystal_system       triclinic
_cell_length_a                    13.874123
_cell_length_b                    14.734471
_cell_length_c                    14.726806
_cell_angle_alpha                 114.969512
_cell_angle_beta                  106.352905
_cell_angle_gamma                 72.345114
_cell_volume                      2559.23420198

loop_
_atom_site_label
_atom_site_type_symbol
_atom_type_description
_atom_site_fract_x
_atom_site_fract_y
_atom_site_fract_z
_atom_type_partial_charge
C1    C     C_R   0.517849 0.118393 0.688119 0.794883
C2    C     C_R   0.484552 0.881442 0.311991 0.788487
C3    C     C_R   0.534631 0.357309 0.924049 0.089674
C4    C     C_R   0.507763 0.638214 0.080575 0.090182
C5    C     C_R   0.551229 0.317142 0.000637 0.166374
C6    C     C_R   0.505015 0.676824 0.006281 0.163620
C7    C     C_R   0.527447 0.463854 0.951581 0.065150
C8    C     C_R   0.524764 0.530580 0.054722 0.063522
C9    C     C_R   0.542228 0.487260 0.128961 -0.222277
C10   C     C_R   0.525174 0.505477 0.879913 -0.219918
C11   C     C_R   0.556462 0.382439 0.102213 -0.227733
C12   C     C_R   0.515019 0.609843 0.907270 -0.230259
C13   C     C_R   0.327552 0.298940 0.330329 -0.410725
C14   C     C_R   0.668110 0.704355 0.673966 -0.413767
C15   C     C_R   0.355185 0.213513 0.358747 0.667121
C16   C     C_R   0.643872 0.787034 0.642050 0.660297
C17   C     C_R   0.487841 0.285311 0.489453 -0.089626
C18   C     C_R   0.514354 0.713164 0.508628 -0.090420
C19   C     C_R   0.463216 0.373394 0.463516 -0.019264
C20   C     C_R   0.538278 0.625664 0.535433 -0.018390
C21   C     C_R   0.382315 0.377317 0.380758 0.103891
C22   C     C_R   0.616596 0.623612 0.620626 0.105834
C23   C     C_R   0.687037 0.986946 0.504264 0.815917
C24   C     C_R   0.312970 0.013087 0.495811 0.820041
C25   C     C_R   0.515054 0.457207 0.516253 0.095796
C26   C     C_R   0.486693 0.541691 0.482536 0.092070
C27   C     C_R   0.407382 0.539593 0.397558 -0.237240
C28   C     C_R   0.593105 0.460154 0.602331 -0.238002
C29   C     C_R   0.355789 0.459628 0.348710 -0.173444
C30   C     C_R   0.642562 0.541673 0.653159 -0.183476
C31   C     C_1   0.207384 0.020295 0.492725 -0.162215
C32   C     C_1   0.792667 0.979876 0.507718 -0.188061
C33   C     C_2   0.012679 0.032328 0.487047 -0.158083
C34   C     C_2   0.987479 0.968037 0.514091 -0.163312
C35   C     C_1   0.881664 0.973964 0.510830 -0.001156
C36   C     C_1   0.118452 0.026281 0.489990 0.005071
C37   C     C_R   0.531332 0.185022 0.796187 -0.051087
C38   C     C_R   0.484669 0.813700 0.204904 -0.052386
C39   C     C_R   0.561704 0.211804 0.974718 -0.210623
C40   C     C_R   0.493461 0.782317 0.032164 -0.195419
C41   C     C_R   0.552672 0.145933 0.873080 -0.185451
C42   C     C_R   0.485120 0.850208 0.131377 -0.213220
C43   C     C_R   0.522409 0.289792 0.822085 -0.256510
C44   C     C_R   0.492680 0.709020 0.178253 -0.244817
Cu1   Cu    Cu3+1 0.526370 0.916390 0.524860 0.971857
Cu2   Cu    Cu3+1 0.473630 0.083610 0.475140 0.974680
H1    H     H_    0.046037 0.910699 0.538670 0.154935
H2    H     H_    0.954094 0.089641 0.462452 0.157943
H3    H     H_    0.263038 0.304892 0.269849 0.146372
H4    H     H_    0.726195 0.703759 0.740779 0.146913
H5    H     H_    0.382460 0.599227 0.366879 0.131032
H6    H     H_    0.617417 0.400794 0.633350 0.128659
H7    H     H_    0.570144 0.352481 0.161553 0.148298
H8    H     H_    0.514635 0.638318 0.850200 0.152747
H9    H     H_    0.486093 0.684734 0.235275 0.143595
H10   H     H_    0.502483 0.317639 0.760991 0.152791
H11   H     H_    0.480743 0.930708 0.150786 0.142920
H12   H     H_    0.560490 0.064985 0.854701 0.172531
H13   H     H_    0.575877 0.180542 0.033119 0.133159
H14   H     H_    0.492855 0.812055 0.976038 0.134308
H15   H     H_    0.548895 0.531866 0.209346 0.146594
H16   H     H_    0.534900 0.459000 0.802423 0.142425
H17   H     H_    0.294446 0.462117 0.284554 0.143074
H18   H     H_    0.701901 0.540587 0.719094 0.143941
H19   H     H_    0.454246 0.722482 0.446619 0.144244
H20   H     H_    0.549796 0.274672 0.549684 0.144823
N1    N     N_R   0.433980 0.209250 0.437830 -0.209478
N2    N     N_R   0.566020 0.790750 0.562170 -0.207723
O1    O     O_R   0.534760 0.019630 0.662610 -0.536679
O2    O     O_R   0.465240 0.980370 0.337390 -0.564478
O3    O     O_R   0.490220 0.160840 0.620610 -0.598726
O4    O     O_R   0.509780 0.839160 0.379390 -0.595231
O5    O     O_R   0.663260 0.919400 0.523940 -0.557004
O6    O     O_R   0.336740 0.080600 0.476060 -0.522460
O7    O     O_R   0.618720 0.060610 0.481950 -0.583417
O8    O     O_R   0.381280 0.939390 0.518050 -0.587235
O9    O     O_3   0.689284 0.870892 0.697336 -0.593375
C45   C     C_3   0.797954 0.842934 0.709166 0.038055
H21   H     H_    0.822634 0.882883 0.673112 0.177194
H22   H     H_    0.829766 0.759467 0.671750 0.116724
C46   C     C_3   0.844310 0.879528 0.822592 -0.355073
H23   H     H_    0.813905 0.963146 0.858660 0.231607
H24   H     H_    0.821603 0.839376 0.859831 0.211337
C47   C     C_3   0.961374 0.859216 0.839646 -0.913239
H25   H     H_    0.993692 0.775853 0.805555 0.257794
H26   H     H_    0.992412 0.886537 0.922585 0.259163
H27   H     H_    0.985786 0.900697 0.805018 0.257491
O10   O     O_3   0.297461 0.138399 0.315865 -0.583384
C48   C     C_3   0.279916 0.099090 0.208005 0.028603
H28   H     H_    0.305775 0.014549 0.182308 0.175463
H29   H     H_    0.323945 0.125243 0.174190 0.110502
C49   C     C_3   0.164645 0.123313 0.166865 -0.346126
H30   H     H_    0.123145 0.092058 0.197769 0.230881
H31   H     H_    0.135373 0.207508 0.191979 0.212383
C50   C     C_3   0.141995 0.076471 0.050792 -0.917865
H32   H     H_    0.181077 0.108113 0.018061 0.257436
H33   H     H_    0.057889 0.094840 0.023407 0.260052
H34   H     H_    0.168655 0.991840 0.023908 0.257914

loop_
_geom_bond_atom_site_label_1
_geom_bond_atom_site_label_2
_ccdc_geom_bond_type
C7    C10   A    
C29   H17   S    
C40   H14   S    
C30   H18   S    
C27   C29   A    
C50   H32   S    
C44   H9    S    
C47   H27   S    
C4    C8    A    
C46   H23   S    
C50   H34   S    
C7    C8    A    
C39   C41   A    
Cu1   Cu2   S    
C18   H19   S    
C3    C43   A    
C26   C27   A    
C1    O3    A    
Cu1   O8    S    
C9    H15   S    
C19   C21   A    
C47   H26   S    
C41   H12   S    
C5    C11   A    
C3    C7    A    
C6    C12   A    
C45   H22   S    
C18   N2    A    
C33   C36   S    
Cu1   O5    S    
C34   C35   S    
C8    C9    A    
C16   N2    A    
C48   H29   S    
C18   C20   A    
C11   H7    S    
C1    C37   S    
C40   C42   A    
C15   N1    A    
Cu1   O4    S    
C10   H16   S    
C23   O5    A    
C2    O4    A    
C42   H11   S    
Cu2   O7    S    
C46   H24   S    
C27   H5    S    
C17   N1    A    
Cu1   O1    S    
C32   C35   T    
C47   H25   S    
C4    C6    A    
C45   H21   S    
C24   O8    A    
C4    C44   A    
C25   C26   A    
O9    C45   S    
C21   C29   A    
C49   C50   S    
C1    O1    A    
C25   C28   A    
C37   C43   A    
C38   C44   A    
C2    C38   S    
C39   H13   S    
Cu1   N2    S    
C49   H31   S    
C33   C34   D    
C17   H20   S    
C13   C21   A    
C48   C49   S    
C9    C11   A    
Cu2   O3    S    
C10   C12   A    
C13   H3    S    
C20   C22   A    
C13   C15   A    
C14   C16   A    
Cu2   O6    S    
C46   C47   S    
C22   C30   A    
C23   O7    A    
C3    C5    A    
C50   H33   S    
C38   C42   A    
C23   C32   S    
C14   C22   A    
C5    C39   A    
C24   C31   S    
Cu2   N1    S    
C28   H6    S    
C45   C46   S    
C24   O6    A    
C14   H4    S    
C20   C26   A    
C28   C30   A    
C49   H30   S    
C17   C19   A    
C6    C40   A    
C37   C41   A    
C19   C25   A    
Cu2   O2    S    
C43   H10   S    
O10   C48   S    
C33   H2    S    
C31   C36   T    
C16   O9    S    
C34   H1    S    
C48   H28   S    
C2    O2    A    
C12   H8    S    
C15   O10   S    
