data_mof_unit_55726.cif
_audit_creation_date              2012-12-10T19:00:14-0500
_audit_creation_method            fapswitch 2.2
_symmetry_space_group_name_H-M    P1
_symmetry_Int_Tables_number       1
_space_group_crystal_system       triclinic
_cell_length_a                    9.550152
_cell_length_b                    10.829471
_cell_length_c                    13.452703
_cell_angle_alpha                 90.661409
_cell_angle_beta                  71.916045
_cell_angle_gamma                 89.32817
_cell_volume                      1322.3330559

loop_
_atom_site_label
_atom_site_type_symbol
_atom_type_description
_atom_site_fract_x
_atom_site_fract_y
_atom_site_fract_z
_atom_type_partial_charge
C1    C     C_R   0.499990 0.737649 0.497807 0.805583
C2    C     C_R   0.447364 0.525641 0.974355 0.080335
C3    C     C_R   0.469917 0.475486 0.872511 0.031875
C4    C     C_R   0.552612 0.495137 0.025725 -0.016328
C5    C     C_R   0.690909 0.441346 0.968388 -0.069852
C6    C     C_R   0.707788 0.388672 0.869126 0.214982
C7    C     C_R   0.592404 0.397125 0.827468 -0.202593
C8    C     C_R   0.519686 0.506440 0.134044 -0.192281
C9    C     C_R   0.775035 0.467495 0.120657 0.079874
C10   C     C_R   0.373288 0.508410 0.815456 -0.086071
C11   C     C_R   0.370036 0.939259 0.509980 0.088593
C12   C     C_R   0.420676 0.497406 0.700407 0.802776
C13   C     C_R   0.501607 0.870663 0.487784 -0.112535
C14   C     C_R   0.636295 0.933012 0.453599 -0.145991
C15   C     C_R   0.637528 0.061994 0.454800 -0.168494
C16   C     C_R   0.504520 0.129123 0.493272 -0.060545
C17   C     C_R   0.372720 0.065818 0.518427 0.031541
C18   C     C_3   0.242921 0.070744 0.615333 -0.083709
C19   C     C_3   0.230849 0.932495 0.599834 0.001974
C20   C     C_R   0.958932 0.431938 0.427460 0.245134
C21   C     C_R   0.894127 0.569918 0.569779 -0.119675
C22   C     C_R   0.042303 0.568270 0.570993 0.716063
C23   C     C_R   0.501165 0.262415 0.499351 0.822329
C24   C     C_R   0.107168 0.433534 0.425923 0.145603
C25   C     C_3   0.121346 0.296606 0.410662 -0.017918
C26   C     C_3   0.961426 0.295093 0.414459 -0.493272
C27   C     C_R   0.580023 0.499131 0.299129 0.860780
C28   C     C_R   0.804269 0.437262 0.014730 0.619558
C29   C     C_R   0.628176 0.492527 0.183369 -0.197873
C30   C     C_R   0.244497 0.576083 0.864989 -0.103177
C31   C     C_R   0.222345 0.627076 0.963798 -0.099222
C32   C     C_R   0.326065 0.609697 0.016359 0.152638
Cu1   Cu    Cu3+1 0.359330 0.500020 0.500010 1.045306
Cu2   Cu    Cu3+1 0.640670 0.499980 0.499990 0.981534
H1    H     H_    0.741879 0.108294 0.428866 0.164228
H2    H     H_    0.148940 0.125447 0.606704 0.180762
H3    H     H_    0.241480 0.874853 0.665033 0.179506
H4    H     H_    0.812465 0.625312 0.627258 0.183875
H5    H     H_    0.140214 0.249282 0.477795 0.159297
H6    H     H_    0.943784 0.265247 0.340101 0.235136
H7    H     H_    0.890591 0.249130 0.485456 0.199598
H8    H     H_    0.406214 0.518785 0.181138 0.218462
H9    H     H_    0.168168 0.600939 0.823200 0.220590
H10   H     H_    0.129174 0.689247 0.995987 0.184041
H11   H     H_    0.602424 0.344372 0.756790 0.185004
H12   H     H_    0.740295 0.882559 0.429106 0.189929
N1    N     N_R   0.852320 0.499070 0.499340 -0.224468
N2    N     N_R   0.148230 0.499110 0.499340 -0.257596
O1    O     O_R   0.381190 0.680360 0.500000 -0.532317
O2    O     O_R   0.618780 0.680320 0.499990 -0.579406
O3    O     O_R   0.323230 0.500000 0.650990 -0.514249
O4    O     O_R   0.560820 0.499960 0.650980 -0.597892
O5    O     O_R   0.381220 0.319680 0.500010 -0.583353
O6    O     O_R   0.618810 0.319640 0.500000 -0.592176
O7    O     O_R   0.439180 0.500040 0.349020 -0.570271
O8    O     O_R   0.676770 0.500000 0.349010 -0.554092
I1    I     I_    0.961406 0.468834 0.174870 -0.248868
I2    I     I_    0.300203 0.115978 0.753873 -0.257493
I3    I     I_    0.047733 0.894417 0.544187 -0.299405
F1    F     F_    0.077805 0.632864 0.646328 -0.652958
I4    I     I_    0.271351 0.242692 0.261608 -0.258070
I5    I     I_    0.893165 0.282591 0.777554 -0.234170
F2    F     F_    0.944626 0.406880 0.957730 -0.613304
I6    I     I_    0.303395 0.742897 0.139427 -0.287280

loop_
_geom_bond_atom_site_label_1
_geom_bond_atom_site_label_2
_ccdc_geom_bond_type
Cu1   O7    S    
C2    C4    A    
Cu2   O8    S    
C6    C7    A    
Cu1   O3    S    
C5    C28   A    
C1    O2    A    
C10   C30   A    
C27   O8    A    
Cu2   O4    S    
C31   C32   A    
C9    C29   A    
Cu1   Cu2   S    
C4    C8    A    
C26   H6    S    
C6    I5    S    
C2    C3    A    
C14   H12   S    
C3    C10   A    
C25   I4    S    
C13   C14   A    
C25   H5    S    
Cu1   O5    S    
C11   C13   A    
Cu2   O6    S    
C11   C19   S    
C30   C31   A    
C20   C26   S    
C8    C29   A    
C7    H11   S    
C2    C32   A    
C15   H1    S    
C12   O4    A    
C8    H8    S    
C22   N2    A    
C23   O5    A    
C16   C23   S    
C3    C7    A    
C22   F1    S    
C5    C6    A    
C10   C12   S    
C16   C17   A    
C27   O7    A    
C30   H9    S    
Cu2   O2    S    
C20   N1    A    
C27   C29   S    
C31   H10   S    
C26   H7    S    
Cu1   O1    S    
C15   C16   A    
C24   N2    A    
C28   F2    S    
C12   O3    A    
C1    C13   S    
C24   C25   S    
C32   I6    S    
C23   O6    A    
C17   C18   S    
C18   C19   S    
Cu1   N2    S    
C9    I1    S    
C14   C15   A    
C11   C17   A    
Cu2   N1    S    
C19   H3    S    
C19   I3    S    
C25   C26   S    
C21   C22   A    
C18   H2    S    
C18   I2    S    
C21   H4    S    
C20   C24   A    
C9    C28   A    
C4    C5    A    
C21   N1    A    
C1    O1    A    
