data_mof_unit_45817.cif
_audit_creation_date              2013-03-05T16:30:58-0500
_audit_creation_method            fapswitch 2.2
_symmetry_space_group_name_H-M    P1
_symmetry_Int_Tables_number       1
_space_group_crystal_system       triclinic
_cell_length_a                    12.982367
_cell_length_b                    10.836646
_cell_length_c                    9.578361
_cell_angle_alpha                 90.876948
_cell_angle_beta                  96.74563
_cell_angle_gamma                 90.577028
_cell_volume                      1337.95399128

loop_
_atom_site_label
_atom_site_type_symbol
_atom_site_description
_atom_site_fract_x
_atom_site_fract_y
_atom_site_fract_z
_atom_type_partial_charge
O1    O     O_R   0.500000 0.319640 0.618810 -0.578671
O2    O     O_R   0.500010 0.319680 0.381230 -0.540632
C1    C     C_R   0.498158 0.262607 0.498843 0.838986
O3    O     O_R   0.348990 0.499960 0.599490 -0.564794
O4    O     O_R   0.349000 0.500000 0.361910 -0.537840
C2    C     C_R   0.300803 0.500706 0.473462 0.871066
Cu1   Cu    Cu3+1 0.499990 0.499980 0.640670 1.007888
Cu2   Cu    Cu3+1 0.500010 0.500020 0.359330 1.034522
O5    O     O_R   0.499990 0.680320 0.618770 -0.553284
O6    O     O_R   0.500000 0.680360 0.381190 -0.609135
O7    O     O_R   0.651000 0.500000 0.638090 -0.588222
O8    O     O_R   0.651010 0.500040 0.400510 -0.553311
C3    C     C_R   0.498874 0.737582 0.500503 0.825069
C4    C     C_R   0.699083 0.499540 0.526684 0.848192
C5    C     C_R   0.811599 0.504458 0.541932 -0.140390
C6    C     C_R   0.188080 0.495721 0.458914 -0.153458
C7    C     C_R   0.031042 0.389896 0.361362 -0.127717
C8    C     C_R   0.136766 0.409709 0.364819 -0.195395
C9    C     C_R   0.133082 0.564224 0.551396 0.296089
C10   C     C_R   0.025604 0.543960 0.549078 0.013976
C11   C     C_R   0.973988 0.456455 0.452184 -0.000630
C12   C     C_R   0.866554 0.436472 0.449189 0.300358
C13   C     C_R   0.862815 0.589018 0.638043 -0.273840
C14   C     C_R   0.968549 0.609569 0.640968 -0.116040
H1    H     H_    0.819952 0.643742 0.706584 0.172466
H2    H     H_    0.995287 0.319921 0.289211 0.209382
H3    H     H_    0.004384 0.678825 0.713995 0.201629
H4    H     H_    0.179360 0.352848 0.298501 0.234753
C15   C     C_R   0.494788 0.066648 0.622920 0.027892
C16   C     C_R   0.489100 0.129665 0.496786 -0.101869
C17   C     C_R   0.470838 0.062033 0.369800 -0.148114
H5    H     H_    0.460632 0.107901 0.269727 0.195209
C18   C     C_R   0.470754 0.933168 0.371157 -0.211147
H6    H     H_    0.459682 0.883141 0.271664 0.171295
C19   C     C_R   0.490628 0.870770 0.499399 -0.061493
C20   C     C_R   0.498552 0.939950 0.624303 0.108481
C21   C     C_3   0.572872 0.941857 0.757490 -0.019979
C22   C     C_3   0.567294 0.082882 0.755388 0.025391
H7    H     H_    0.537549 0.900801 0.846518 0.138759
H8    H     H_    0.639863 0.133618 0.739737 0.171057
C23   C     C_R   0.588398 0.526994 0.088212 0.265470
N1    N     N_R   0.500660 0.500930 0.148010 -0.261584
C24   C     C_R   0.416694 0.456225 0.058283 0.387179
C25   C     C_R   0.416729 0.458655 0.910308 -0.050015
H9    H     H_    0.349563 0.424523 0.842898 0.194654
N2    N     N_R   0.500660 0.500890 0.852110 -0.222974
C26   C     C_R   0.588862 0.525377 0.941338 0.243384
C27   C     C_3   0.652829 0.640417 0.947859 -0.487306
C28   C     C_3   0.651371 0.642786 0.106232 -0.473307
H10   H     H_    0.731212 0.624218 0.916138 0.211721
H11   H     H_    0.609693 0.716753 0.894391 0.220754
H12   H     H_    0.728976 0.627843 0.165541 0.227469
H13   H     H_    0.607637 0.721703 0.144434 0.197968
N3    N     N_R   0.813019 0.347593 0.352994 0.108329
O9    O     O_R   0.807055 0.364525 0.218090 -0.388497
O10   O     O_R   0.760104 0.257978 0.400295 -0.395246
N4    N     N_2   0.676780 0.894876 0.745676 -0.446213
H14   H     H_    0.725471 0.905715 0.838281 0.264413
C29   C     C_3   0.728245 0.918604 0.621833 -0.621123
H15   H     H_    0.811209 0.893051 0.642815 0.222358
H16   H     H_    0.724494 0.017325 0.593241 0.241015
H17   H     H_    0.693910 0.860575 0.531838 0.219004
N5    N     N_2   0.514822 0.134948 0.868172 -0.420117
H18   H     H_    0.444984 0.093444 0.882530 0.271525
C30   C     C_3   0.580862 0.160802 0.997788 -0.601343
H19   H     H_    0.536125 0.210878 0.072180 0.239305
H20   H     H_    0.647595 0.220348 0.977853 0.250976
H21   H     H_    0.609680 0.073321 0.046343 0.217482
N6    N     N_R   0.328845 0.401584 0.110474 0.126868
O11   O     O_R   0.339004 0.295633 0.172036 -0.405242
O12   O     O_R   0.236392 0.437500 0.061722 -0.350373
N7    N     N_R   0.186665 0.653391 0.647060 0.107805
O13   O     O_R   0.239462 0.742813 0.599185 -0.370987
O14   O     O_R   0.193329 0.636488 0.782015 -0.339846

loop_
_geom_bond_atom_site_label_1
_geom_bond_atom_site_label_2
_geom_bond_distance
_ccdc_geom_bond_type
N5    C30   1.445460 S    
C23   N1    1.362719 A    
C9    C10   1.407839 A    
C14   H3    1.081386 S    
Cu1   Cu2   2.694813 S    
C12   N3    1.438252 S    
Cu1   O7    1.963523 S    
C15   C20   1.374554 A    
C21   C22   1.531013 S    
C7    H2    1.081481 S    
C20   C21   1.506126 S    
Cu2   N1    2.025281 S    
C3    C19   1.448459 S    
C16   C17   1.405076 A    
O7    C4    1.297975 A    
N4    C29   1.453166 S    
N6    O12   1.301333 A    
O5    C3    1.298594 A    
N2    C26   1.367139 A    
C27   H11   1.102328 S    
C10   C14   1.404792 A    
C30   H20   1.111210 S    
C15   C22   1.495384 S    
C26   C27   1.487367 S    
C13   C14   1.385371 A    
C17   C18   1.396715 A    
C30   H21   1.111182 S    
C5    C13   1.395490 A    
C29   H15   1.110866 S    
C24   N6    1.424995 S    
C11   C12   1.406190 A    
C9    N7    1.437652 S    
O3    Cu1   1.953674 S    
C23   C28   1.487361 S    
C25   N2    1.359390 A    
C18   H6    1.083133 S    
C5    C12   1.407253 A    
N3    O10   1.301316 A    
C29   H16   1.108489 S    
Cu1   N2    2.024119 S    
C8    H4    1.079979 S    
N7    O14   1.301252 A    
C7    C11   1.403053 A    
O1    C1    1.294012 A    
C19   C20   1.394987 A    
C1    C16   1.443905 S    
C24   C25   1.418066 A    
C15   C16   1.391672 A    
C17   H5    1.081427 S    
Cu2   O8    1.953674 S    
C28   H12   1.111590 S    
C7    C8    1.383568 A    
C23   C26   1.407369 A    
C6    C8    1.394840 A    
O3    C2    1.292899 A    
C27   C28   1.519119 S    
O8    C4    1.293516 A    
N1    C24   1.384963 A    
C25   H9    1.080727 S    
C22   N5    1.453055 S    
Cu1   O5    1.968696 S    
N3    O9    1.301301 A    
C29   H17   1.106652 S    
O1    Cu1   1.962280 S    
O2    Cu2   1.968696 S    
N7    O13   1.301220 A    
O6    C3    1.293522 A    
O4    Cu2   1.963520 S    
O2    C1    1.295984 A    
C21   H7    1.111207 S    
C22   H8    1.112474 S    
N4    H14   1.031378 S    
O4    C2    1.300052 A    
C6    C9    1.408792 A    
C28   H13   1.112038 S    
C27   H10   1.110505 S    
C18   C19   1.409654 A    
C13   H1    1.082989 S    
N6    O11   1.299559 A    
C2    C6    1.454031 S    
N5    H18   1.032582 S    
C10   C11   1.422581 A    
Cu2   O6    1.962278 S    
C30   H19   1.109624 S    
C4    C5    1.451190 S    
C21   N4    1.462757 S    
