data_mof_unit_25763.cif
_audit_creation_date              2013-03-05T16:11:03-0500
_audit_creation_method            fapswitch 2.2
_symmetry_space_group_name_H-M    P1
_symmetry_Int_Tables_number       1
_space_group_crystal_system       triclinic
_cell_length_a                    10.766154
_cell_length_b                    9.429018
_cell_length_c                    10.632027
_cell_angle_alpha                 89.776171
_cell_angle_beta                  89.992801
_cell_angle_gamma                 90.210729
_cell_volume                      1079.28680558

loop_
_atom_site_label
_atom_site_type_symbol
_atom_site_description
_atom_site_fract_x
_atom_site_fract_y
_atom_site_fract_z
_atom_type_partial_charge
O1    O     O_R   0.317570 0.620260 0.500070 -0.562823
O2    O     O_R   0.317570 0.379740 0.500070 -0.576883
C1    C     C_R   0.259769 0.499996 0.498264 0.950029
O3    O     O_R   0.499850 0.620240 0.316900 -0.513704
O4    O     O_R   0.499850 0.379760 0.316900 -0.534613
C2    C     C_R   0.500172 0.500360 0.259441 0.923170
Cu1   Cu    Cu3+1 0.499860 0.642410 0.500060 1.033073
Cu2   Cu    Cu3+1 0.499860 0.357590 0.500060 1.034764
O5    O     O_R   0.682190 0.620260 0.500030 -0.586141
O6    O     O_R   0.682190 0.379740 0.500030 -0.555610
O7    O     O_R   0.499910 0.620280 0.683200 -0.605973
O8    O     O_R   0.499910 0.379720 0.683200 -0.592942
C3    C     C_R   0.739842 0.500361 0.497525 0.927545
C4    C     C_R   0.500252 0.499649 0.740609 0.910584
C5    C     C_3   0.498819 0.633058 0.038885 0.643327
C6    C     C_3   0.401436 0.431706 0.041445 0.633857
C7    C     C_3   0.396954 0.564846 0.957118 -0.285816
H1    H     H_    0.312290 0.617573 0.920372 0.236644
C8    C     C_3   0.500606 0.498890 0.877177 -0.207578
C9    C     C_3   0.602347 0.569542 0.956932 -0.156975
C10   C     C_3   0.503077 0.364360 0.959553 -0.142815
C11   C     C_3   0.604345 0.435432 0.042041 -0.200176
C12   C     C_3   0.501174 0.501102 0.122782 -0.245204
H2    H     H_    0.684482 0.627208 0.919260 0.196048
H3    H     H_    0.503649 0.253532 0.924659 0.196420
H4    H     H_    0.688816 0.382962 0.079565 0.236374
C13   C     C_3   0.072252 0.653983 0.473471 0.376722
C14   C     C_3   0.071859 0.445798 0.625862 0.394906
H5    H     H_    0.112275 0.694870 0.383737 0.166471
H6    H     H_    0.101535 0.333892 0.639165 0.178497
C15   C     C_3   0.929157 0.654874 0.466959 0.039916
C16   C     C_3   0.928168 0.457675 0.628985 0.049369
H7    H     H_    0.894990 0.726256 0.542684 0.174350
H8    H     H_    0.903778 0.544978 0.694922 0.178628
H9    H     H_    0.890000 0.419263 0.300170 0.238766
H10   H     H_    0.896619 0.287143 0.415916 0.253857
C17   C     C_3   0.071288 0.402371 0.390804 0.969403
C18   C     C_3   0.121717 0.500593 0.497412 -0.363768
C19   C     C_3   0.877699 0.501360 0.495576 -0.376695
C20   C     C_3   0.928140 0.396862 0.394909 -0.375005
C21   C     C_3   0.617896 0.084438 0.451283 0.553719
C22   C     C_3   0.617397 0.917053 0.450181 0.625739
H11   H     H_    0.697108 0.119448 0.510527 0.094114
H12   H     H_    0.697546 0.880342 0.507383 0.033211
H13   H     H_    0.562616 0.121615 0.692948 0.203481
H14   H     H_    0.563882 0.878199 0.692445 0.181232
C23   C     C_3   0.485923 0.083162 0.631627 -0.363279
C24   C     C_3   0.486481 0.915781 0.631672 -0.343145
C25   C     C_3   0.397030 0.083435 0.426192 -0.156603
C26   C     C_3   0.396669 0.916315 0.426588 -0.211030
N1    N     N_3   0.500250 0.143650 0.502780 -0.234624
N2    N     N_3   0.500250 0.856350 0.502780 -0.237052
H15   H     H_    0.306558 0.120142 0.463678 0.231211
H16   H     H_    0.306097 0.878966 0.464350 0.219683
H17   H     H_    0.402894 0.123157 0.327788 0.243523
H18   H     H_    0.401758 0.876920 0.328337 0.241603
H19   H     H_    0.397909 0.121513 0.674330 0.220785
H20   H     H_    0.398977 0.875749 0.675033 0.245951
F1    F     F_    0.639480 0.137101 0.331298 -0.587858
F2    F     F_    0.635783 0.868287 0.328861 -0.515702
F3    F     F_    0.497082 0.771342 0.081653 -0.578425
F4    F     F_    0.298723 0.360397 0.087937 -0.552825
F5    F     F_    0.110560 0.745219 0.568241 -0.597740
F6    F     F_    0.122770 0.522745 0.724326 -0.599147
N3    N     N_R   0.888117 0.717754 0.346679 0.163835
O9    O     O_R   0.814602 0.651407 0.269391 -0.299099
O10   O     O_R   0.918161 0.848635 0.321420 -0.249694
N4    N     N_R   0.871485 0.326797 0.678678 0.135623
O11   O     O_R   0.899909 0.203204 0.633068 -0.350173
O12   O     O_R   0.797935 0.333088 0.775611 -0.348113
F7    F     F_    0.109785 0.453242 0.274511 -0.598015
F8    F     F_    0.115839 0.265412 0.404372 -0.631185

loop_
_geom_bond_atom_site_label_1
_geom_bond_atom_site_label_2
_geom_bond_distance
_ccdc_geom_bond_type
C6    C10   1.538818 S    
C13   H5    1.113695 S    
C21   C22   1.578352 S    
C8    C9    1.536853 S    
Cu1   Cu2   2.685572 S    
Cu1   O7    1.957489 S    
C26   H16   1.110091 S    
C6    F4    1.382411 S    
C8    C10   1.538968 S    
Cu1   N2    2.017553 S    
C17   C20   1.542449 S    
O4    C2    1.288740 A    
O7    C4    1.288766 A    
C13   C18   1.563028 S    
Cu1   O5    1.974836 S    
C16   C19   1.572910 S    
O5    C3    1.292076 A    
H10   C20   1.109463 S    
C9    H2    1.110272 S    
C1    C18   1.486343 S    
C6    C7    1.540716 S    
N3    O10   1.301591 A    
C26   N2    1.490237 S    
C15   H7    1.114679 S    
C16   N4    1.470966 S    
C5    C12   1.528383 S    
C10   C11   1.551252 S    
C21   H11   1.110277 S    
C22   H12   1.111288 S    
O3    Cu1   1.959362 S    
H13   C23   1.112686 S    
C5    C9    1.539144 S    
H14   C24   1.112657 S    
C13   C15   1.542203 S    
C14   C16   1.551816 S    
C21   F1    1.386392 S    
O3    C2    1.286980 A    
C22   F2    1.385515 S    
C19   C20   1.556700 S    
C15   N3    1.475902 S    
N4    O11   1.301483 A    
C23   N1    1.489603 S    
C25   N1    1.489814 S    
C25   H17   1.111587 S    
C26   H18   1.111468 S    
O1    C1    1.291706 A    
C16   H8    1.115390 S    
C17   C18   1.562656 S    
C23   H19   1.112870 S    
C23   C24   1.578269 S    
C14   C18   1.553199 S    
Cu2   O8    1.959109 S    
C7    H1    1.110202 S    
C5    F3    1.382759 S    
Cu2   N1    2.017358 S    
C13   F5    1.389130 S    
C14   F6    1.387773 S    
Cu2   O6    1.973308 S    
C9    C11   1.552278 S    
N3    O9    1.301366 A    
C6    C12   1.525949 S    
C17   F7    1.387230 S    
C5    C7    1.539995 S    
C10   H3    1.110295 S    
O1    Cu1   1.972879 S    
C4    C8    1.451989 S    
O2    Cu2   1.974406 S    
O8    C4    1.287118 A    
O6    C3    1.293854 A    
O4    Cu2   1.957738 S    
C24   H20   1.112862 S    
C14   H6    1.112107 S    
O2    C1    1.295518 A    
C25   H15   1.109434 S    
C2    C12   1.452993 S    
C7    C8    1.537353 S    
C15   C19   1.576491 S    
H9    C20   1.107644 S    
C3    C19   1.484335 S    
C24   N2    1.490134 S    
N4    O12   1.301258 A    
C25   C26   1.575758 S    
C11   H4    1.110337 S    
C17   F8    1.386243 S    
C11   C12   1.537230 S    
C21   N1    1.491025 S    
C22   N2    1.490988 S    
