data_mof_unit_21240.cif
_audit_creation_date              2012-12-11T14:43:31-0500
_audit_creation_method            fapswitch 2.2
_symmetry_space_group_name_H-M    P1
_symmetry_Int_Tables_number       1
_space_group_crystal_system       triclinic
_cell_length_a                    20.889495
_cell_length_b                    7.101062
_cell_length_c                    16.33399
_cell_angle_alpha                 89.999561
_cell_angle_beta                  92.609732
_cell_angle_gamma                 89.999726
_cell_volume                      2420.43190423

loop_
_atom_site_label
_atom_site_type_symbol
_atom_type_description
_atom_site_fract_x
_atom_site_fract_y
_atom_site_fract_z
_atom_type_partial_charge
O1    O     O_R   0.564840 0.505290 0.579830 -0.528712
O2    O     O_R   0.435160 0.005290 0.420170 -0.528682
O3    O     O_R   0.556720 0.179930 0.409350 -0.530807
O4    O     O_R   0.443280 0.679930 0.590650 -0.530840
C1    C     C_R   0.570378 0.344578 0.381027 0.775848
C2    C     C_R   0.429625 0.844577 0.618977 0.775876
O5    O     O_R   0.572280 0.175810 0.578530 -0.530311
O6    O     O_R   0.427720 0.675810 0.421470 -0.530319
O7    O     O_R   0.450830 0.001920 0.590540 -0.544369
O8    O     O_R   0.549170 0.501920 0.409460 -0.544378
C3    C     C_R   0.591256 0.344379 0.603216 0.742229
C4    C     C_R   0.408745 0.844380 0.396782 0.742266
O9    O     O_3   0.460130 0.338030 0.503750 -0.358277
O10   O     O_3   0.539870 0.838030 0.496250 -0.358268
V1    V     V_3+5 0.507400 0.064560 0.499310 1.558472
V2    V     V_3+5 0.492600 0.564560 0.500690 1.558407
C5    C     C_R   0.139889 0.918023 0.172367 -0.153283
C6    C     C_R   0.860112 0.418030 0.827632 -0.153286
C7    C     C_R   0.352987 0.849500 0.336492 -0.104104
C8    C     C_R   0.647016 0.349495 0.663505 -0.104108
C9    C     C_R   0.303446 0.725105 0.210353 -0.126453
C10   C     C_R   0.696563 0.225075 0.789637 -0.126461
C11   C     C_R   0.354227 0.729906 0.268444 -0.197144
C12   C     C_R   0.645782 0.229878 0.731546 -0.197117
C13   C     C_R   0.297896 0.962619 0.347530 0.279794
C14   C     C_R   0.702103 0.462632 0.652471 0.279788
C15   C     C_R   0.242015 0.939058 0.293951 -0.033850
C16   C     C_R   0.757985 0.439070 0.706049 -0.033852
C17   C     C_R   0.247477 0.828165 0.222014 0.083366
C18   C     C_R   0.752527 0.328156 0.777981 0.083366
C19   C     C_R   0.196961 0.819832 0.162125 -0.260608
C20   C     C_R   0.803044 0.319821 0.837869 -0.260603
C21   C     C_R   0.131024 0.012103 0.246904 0.208549
C22   C     C_R   0.868974 0.512130 0.753098 0.208549
C23   C     C_R   0.180611 0.017097 0.308899 0.311406
C24   C     C_R   0.819387 0.517128 0.691103 0.311404
H1    H     H_    0.202653 0.740450 0.106181 0.125484
H2    H     H_    0.797354 0.240422 0.893811 0.125489
H3    H     H_    0.307466 0.636742 0.156716 0.117473
H4    H     H_    0.692546 0.136694 0.843270 0.117471
H5    H     H_    0.395917 0.643788 0.258711 0.118513
H6    H     H_    0.604096 0.143741 0.741276 0.118526
C25   C     C_R   0.378996 0.854706 0.838080 -0.185858
C26   C     C_R   0.621002 0.354724 0.161923 -0.185803
H7    H     H_    0.298401 0.830904 0.958101 0.116217
H8    H     H_    0.701595 0.330936 0.041900 0.116215
H9    H     H_    0.401437 0.850465 0.899274 0.120317
H10   H     H_    0.598558 0.350485 0.100730 0.120341
C27   C     C_R   0.388891 0.852529 0.690719 -0.119940
C28   C     C_R   0.611110 0.352541 0.309285 -0.119981
C29   C     C_R   0.080360 0.968530 0.733595 -0.103023
C30   C     C_R   0.919641 0.468517 0.266405 -0.103017
C31   C     C_R   0.116567 0.996714 0.665406 -0.053393
C32   C     C_R   0.883435 0.496704 0.334594 -0.053391
C33   C     C_R   0.182529 0.967345 0.670251 -0.079426
C34   C     C_R   0.817473 0.467347 0.329749 -0.079429
C35   C     C_R   0.213925 0.899336 0.742699 0.082484
C36   C     C_R   0.786075 0.399346 0.257302 0.082486
C37   C     C_R   0.177107 0.884137 0.814278 0.059608
C38   C     C_R   0.822892 0.384147 0.185722 0.059607
C39   C     C_R   0.281835 0.866953 0.748613 0.023156
C40   C     C_R   0.718165 0.366969 0.251389 0.023159
C41   C     C_R   0.312079 0.856230 0.828068 0.078282
C42   C     C_R   0.687919 0.356251 0.171934 0.078260
C43   C     C_R   0.275412 0.845495 0.897570 -0.170015
C44   C     C_R   0.724585 0.345521 0.102431 -0.170019
C45   C     C_R   0.208916 0.851986 0.890548 -0.177560
C46   C     C_R   0.791082 0.352007 0.109452 -0.177554
C47   C     C_R   0.321244 0.843179 0.679839 0.162344
C48   C     C_R   0.678758 0.343191 0.320164 0.162352
C49   C     C_R   0.417709 0.861063 0.770515 0.088896
C50   C     C_R   0.582289 0.361079 0.229490 0.088890
C51   C     C_R   0.109698 0.914493 0.808619 -0.090219
C52   C     C_R   0.890301 0.414492 0.191380 -0.090220
H11   H     H_    0.029450 0.998334 0.728873 0.166576
H12   H     H_    0.970551 0.498311 0.271126 0.166574
H13   H     H_    0.208709 0.011603 0.618297 0.204811
H14   H     H_    0.791293 0.511607 0.381704 0.204808
H15   H     H_    0.093643 0.048353 0.609009 0.189563
H16   H     H_    0.906360 0.548335 0.390992 0.189560
H17   H     H_    0.182791 0.841357 0.946113 0.094391
H18   H     H_    0.817206 0.341380 0.053886 0.094389
O11   O     O_R   0.950790 0.256670 0.090520 -0.520513
O12   O     O_R   0.049210 0.756670 0.909480 -0.520513
O13   O     O_R   0.927720 0.590370 0.921470 -0.527779
O14   O     O_R   0.072280 0.090370 0.078530 -0.527779
C53   C     C_R   0.910665 0.422027 0.894483 0.755367
C54   C     C_R   0.089335 0.922025 0.105516 0.755369
O15   O     O_R   0.943270 0.586180 0.090640 -0.542187
O16   O     O_R   0.056730 0.086180 0.909360 -0.542189
O17   O     O_R   0.064850 0.759970 0.079840 -0.537277
O18   O     O_R   0.935150 0.259970 0.920160 -0.537278
C55   C     C_R   0.930252 0.418114 0.118953 0.705603
C56   C     C_R   0.069747 0.918114 0.881047 0.705608
O19   O     O_3   0.039850 0.428050 0.996240 -0.373624
O20   O     O_3   0.960150 0.928050 0.003760 -0.373623
V3    V     V_3+5 0.992610 0.701540 0.000700 1.504901
V4    V     V_3+5 0.007390 0.201540 0.999300 1.504898
Br1   Br    Br    0.287282 0.747360 0.575481 -0.465196
Br2   Br    Br    0.712722 0.247366 0.424522 -0.465198
Br3   Br    Br    0.048435 0.122017 0.266190 -0.482143
Br4   Br    Br    0.951560 0.622066 0.733815 -0.482147
Br5   Br    Br    0.156145 0.090510 0.417176 -0.362778
Br6   Br    Br    0.843850 0.590574 0.582829 -0.362770
Br7   Br    Br    0.305754 0.166639 0.425951 -0.416491
Br8   Br    Br    0.694240 0.666667 0.574057 -0.416493
C57   C     C_3   0.489777 0.863522 0.785705 -0.366183
C58   C     C_3   0.516603 0.663927 0.792871 -0.732900
H19   H     H_    0.495950 0.589545 0.845379 0.220487
H20   H     H_    0.505332 0.583187 0.735818 0.225590
H21   H     H_    0.569498 0.669886 0.803086 0.216550
H22   H     H_    0.513351 0.939047 0.735859 0.164273
H23   H     H_    0.502583 0.941693 0.843128 0.173889
C59   C     C_3   0.510219 0.363497 0.214300 -0.366099
C60   C     C_3   0.483429 0.163884 0.206953 -0.733089
H24   H     H_    0.504081 0.089822 0.154378 0.220514
H25   H     H_    0.494726 0.082897 0.263914 0.225582
H26   H     H_    0.430539 0.169763 0.196759 0.216568
H27   H     H_    0.486619 0.438724 0.264208 0.164288
H28   H     H_    0.497408 0.441937 0.156949 0.173876

loop_
_geom_bond_atom_site_label_1
_geom_bond_atom_site_label_2
_ccdc_geom_bond_type
C36   C40   A    
C44   C46   A    
C41   C43   A    
C49   C57   S    
C15   C17   A    
C5    C54   S    
C12   H6    S    
C57   H22   S    
C31   C33   A    
O1    C3    A    
C27   C49   A    
O2    C4    A    
C14   Br8   S    
C2    O7    A    
C59   C60   S    
O19   V4    S    
C13   Br7   S    
C26   C42   A    
O5    C3    A    
C22   Br4   S    
C21   Br3   S    
O12   V3    S    
C31   H15   S    
C29   H11   S    
H8    C44   S    
C23   Br5   S    
C33   H13   S    
O14   C54   A    
C35   C37   A    
C43   C45   A    
C36   C38   A    
C60   H24   S    
O11   C55   A    
C50   C59   S    
C34   H14   S    
C58   H19   S    
C40   C48   A    
C38   C52   A    
C39   C41   A    
C28   C50   A    
C57   H23   S    
C40   C42   A    
C37   C45   A    
C8    C12   A    
C48   Br2   S    
C60   H25   S    
O11   V4    S    
O20   V4    S    
C57   C58   S    
C20   H2    S    
C37   C51   A    
C59   H27   S    
O5    V1    S    
O6    V2    S    
C27   C47   A    
C53   O18   A    
O15   C55   A    
C52   C55   S    
C5    C21   A    
C51   C56   S    
C7    C13   A    
C30   C32   A    
O16   C56   A    
C32   H16   S    
O13   C53   A    
C32   C34   A    
C3    C8    S    
O18   V4    S    
O4    C2    A    
C15   C23   A    
C9    C17   A    
C19   H1    S    
O15   V3    S    
C29   C31   A    
C42   C44   A    
O4    V2    S    
C7    C11   A    
C9    H3    S    
C54   O17   A    
O6    C4    A    
C60   H26   S    
C10   H4    S    
O20   V3    S    
O1    V2    S    
O12   C56   A    
O17   V3    S    
O2    V1    S    
C6    C22   A    
C38   C46   A    
C47   Br1   S    
C45   H17   S    
C9    C11   A    
H7    C43   S    
C5    C19   A    
C10   C12   A    
C1    C28   S    
C6    C20   A    
O3    C1    A    
O3    V1    S    
C39   C47   A    
C25   C49   A    
C10   C18   A    
C14   C16   A    
C29   C51   A    
C30   H12   S    
O19   V3    S    
C35   C39   A    
C13   C15   A    
C30   C52   A    
C6    C53   S    
C11   H5    S    
C58   H21   S    
C24   Br6   S    
C46   H18   S    
C33   C35   A    
O7    V1    S    
C1    O8    A    
C17   C19   A    
O8    V2    S    
C18   C20   A    
C58   H20   S    
C8    C14   A    
C4    C7    S    
C16   C18   A    
C21   C23   A    
C34   C36   A    
C26   C50   A    
C22   C24   A    
C2    C27   S    
C28   C48   A    
O14   V4    S    
O13   V3    S    
C16   C24   A    
C25   C41   A    
O9    V2    S    
O10   V1    S    
C25   H9    S    
O16   V4    S    
C59   H28   S    
C26   H10   S    
