data_mof_unit_59864.cif
_audit_creation_date              2012-12-10T17:22:24-0500
_audit_creation_method            fapswitch 2.2
_symmetry_space_group_name_H-M    P1
_symmetry_Int_Tables_number       1
_space_group_crystal_system       triclinic
_cell_length_a                    18.280562
_cell_length_b                    19.298374
_cell_length_c                    18.613746
_cell_angle_alpha                 109.974756
_cell_angle_beta                  106.800647
_cell_angle_gamma                 109.577968
_cell_volume                      5176.01475458

loop_
_atom_site_label
_atom_site_type_symbol
_atom_type_description
_atom_site_fract_x
_atom_site_fract_y
_atom_site_fract_z
_atom_type_partial_charge
C1    C     C_R   0.376531 0.382441 0.499879 0.993971
C2    C     C_3   0.808101 0.499110 0.807690 -0.127451
C3    C     C_3   0.853092 0.544015 0.761613 0.018656
C4    C     C_3   0.763107 0.548490 0.850416 0.319204
C5    C     C_R   0.342870 0.416144 0.656172 -0.005016
C6    C     C_R   0.362884 0.416911 0.735576 0.525783
C7    C     C_R   0.320896 0.342445 0.736635 0.008885
C8    C     C_R   0.258444 0.269488 0.659757 -0.303936
C9    C     C_R   0.244971 0.265258 0.579107 0.058065
C10   C     C_R   0.296296 0.336926 0.577618 0.042647
C11   C     C_R   0.177088 0.194511 0.500249 -0.062677
C12   C     C_R   0.617776 0.496828 0.619851 1.115400
C13   C     C_R   0.158681 0.198904 0.421439 -0.056173
C14   C     C_R   0.227562 0.256905 0.418262 0.048639
C15   C     C_R   0.299050 0.325068 0.498040 -0.109532
C16   C     C_R   0.076604 0.145340 0.343818 0.375046
C17   C     C_R   0.078544 0.121469 0.264239 0.433491
C18   C     C_R   0.150394 0.172077 0.261225 -0.333018
C19   C     C_R   0.218263 0.245353 0.335086 0.019741
C20   C     C_R   0.202550 0.455812 0.371045 -0.041629
C21   C     C_R   0.114252 0.410287 0.350425 0.394339
C22   C     C_R   0.050755 0.392763 0.275554 -0.278838
C23   C     C_R   0.613513 0.617810 0.490954 1.022546
C24   C     C_R   0.073894 0.443961 0.240414 0.412149
C25   C     C_R   0.159898 0.475338 0.245964 -0.071670
C26   C     C_R   0.225922 0.477459 0.311223 -0.028340
C27   C     C_R   0.179452 0.495281 0.184103 -0.179916
C28   C     C_R   0.254905 0.498989 0.176559 0.032546
C29   C     C_R   0.324792 0.510573 0.245236 0.029169
C30   C     C_R   0.310574 0.500377 0.313782 -0.126893
C31   C     C_R   0.259812 0.486958 0.098811 -0.180992
C32   C     C_R   0.335733 0.496987 0.092399 -0.182211
C33   C     C_R   0.409689 0.521416 0.163667 0.121662
C34   C     C_R   0.378621 0.500086 0.379497 0.911432
C35   C     C_R   0.405519 0.530119 0.240507 0.100326
C36   C     C_R   0.584607 0.754976 0.483532 -0.300680
C37   C     C_R   0.575161 0.825945 0.495016 0.050538
C38   C     C_R   0.645224 0.899989 0.514414 0.463157
C39   C     C_R   0.725503 0.901248 0.522030 -0.078703
C40   C     C_R   0.734155 0.826727 0.506378 0.035533
C41   C     C_R   0.662744 0.754087 0.489352 0.012001
C42   C     C_R   0.812148 0.822080 0.510825 -0.140395
C43   C     C_R   0.815575 0.746274 0.498140 -0.013473
C44   C     C_R   0.736382 0.672008 0.456037 0.081495
C45   C     C_3   0.651221 0.396967 0.669781 0.573132
C46   C     C_R   0.667912 0.679143 0.472769 -0.150250
C47   C     C_R   0.893430 0.739721 0.522955 0.056400
C48   C     C_R   0.890123 0.661750 0.479748 0.354502
C49   C     C_R   0.810442 0.592967 0.414261 -0.368196
C50   C     C_R   0.732718 0.595586 0.404500 0.085256
C51   C     C_R   0.000081 0.381760 0.877486 0.843600
C52   C     C_R   0.876287 0.499013 0.875675 0.968864
C53   C     C_R   0.996430 0.618189 0.119204 1.000016
C54   C     C_R   0.116961 0.500957 0.119738 0.913290
C55   C     C_R   0.997707 0.877897 0.381269 0.953786
C56   C     C_3   0.735099 0.403045 0.734320 -0.281168
C57   C     C_R   0.118858 0.120757 0.499620 0.906955
C58   C     C_R   0.996346 0.116428 0.619518 0.868967
C59   C     C_R   0.879653 0.884386 0.504930 0.917780
C60   C     C_R   0.039177 0.401154 0.740674 -0.236831
C61   C     C_R   0.071873 0.415966 0.685495 0.394028
C62   C     C_R   0.083410 0.354542 0.632013 -0.135003
C63   C     C_R   0.058630 0.277629 0.631039 -0.182289
C64   C     C_R   0.026702 0.262324 0.688070 0.053319
C65   C     C_R   0.024148 0.327808 0.748566 0.028075
C66   C     C_R   0.000748 0.184446 0.688020 -0.147499
C67   C     C_3   0.776506 0.530124 0.679758 0.299833
C68   C     C_R   0.994829 0.177999 0.760832 0.040044
C69   C     C_R   0.009224 0.250535 0.829120 0.050162
C70   C     C_R   0.010910 0.319438 0.816998 -0.145580
C71   C     C_R   0.978617 0.104229 0.770821 0.095797
C72   C     C_R   0.989047 0.108757 0.850810 0.117920
C73   C     C_R   0.014516 0.184723 0.920182 -0.176824
C74   C     C_R   0.023974 0.254203 0.909576 -0.167147
C75   C     C_R   0.163047 0.763580 0.273825 0.130035
C76   C     C_R   0.237146 0.839492 0.341727 -0.082252
C77   C     C_R   0.227709 0.909335 0.383460 0.286565
C78   C     C_3   0.703839 0.556214 0.778333 -0.171293
C79   C     C_R   0.145221 0.903066 0.351522 0.301844
C80   C     C_R   0.071268 0.822109 0.306677 -0.129397
C81   C     C_R   0.076807 0.753552 0.255666 0.058457
C82   C     C_R   0.994038 0.808845 0.314727 -0.106270
C83   C     C_R   0.918835 0.727790 0.267756 0.041392
C84   C     C_R   0.917990 0.662339 0.202235 0.006436
C85   C     C_R   0.996447 0.678736 0.192132 -0.079479
C86   C     C_R   0.842912 0.709025 0.281930 0.086625
C87   C     C_R   0.780073 0.625933 0.246928 -0.208320
C88   C     C_R   0.779605 0.562615 0.184317 -0.137259
C89   C     C_3   0.684275 0.493200 0.684646 -0.341165
C90   C     C_R   0.838339 0.582711 0.152078 0.201312
H1    H     H_    0.148451 0.161038 0.199386 0.200891
H2    H     H_    0.220143 0.218741 0.666864 0.196321
H3    H     H_    0.983198 0.361605 0.262443 0.225188
H4    H     H_    0.204059 0.466740 0.040705 0.157335
H5    H     H_    0.337681 0.487804 0.032346 0.181659
H6    H     H_    0.807481 0.534515 0.375829 0.195472
H7    H     H_    0.527659 0.698708 0.465809 0.176235
H8    H     H_    0.025536 0.189930 0.982640 0.158825
H9    H     H_    0.029307 0.449454 0.778479 0.188311
H10   H     H_    0.767665 0.381619 0.696826 0.198308
H11   H     H_    0.111630 0.366203 0.591220 0.241649
H12   H     H_    0.068830 0.232159 0.588077 0.169222
H13   H     H_    0.045151 0.311776 0.966168 0.149629
H14   H     H_    0.722485 0.500903 0.148812 0.154389
H15   H     H_    0.723618 0.611665 0.258468 0.152666
H16   H     H_    0.742310 0.618030 0.787304 0.254966
O1    O     O_R   0.408690 0.356690 0.448570 -0.568085
O2    O     O_R   0.049540 0.460090 0.906170 -0.648232
O3    O     O_R   0.853530 0.448360 0.905250 -0.646808
O4    O     O_R   0.956970 0.551730 0.905180 -0.586187
O5    O     O_R   0.945170 0.540000 0.088470 -0.601156
O6    O     O_R   0.048600 0.643370 0.088400 -0.576510
O7    O     O_R   0.037740 0.448360 0.089460 -0.589031
O8    O     O_R   0.141170 0.551730 0.089390 -0.635493
O9    O     O_R   0.948510 0.908450 0.356890 -0.544564
O10   O     O_R   0.052500 0.908420 0.460860 -0.625944
O11   O     O_R   0.039610 0.091640 0.448030 -0.559427
O12   O     O_R   0.408090 0.460090 0.551440 -0.675805
O13   O     O_R   0.143600 0.091610 0.551990 -0.598181
O14   O     O_R   0.947500 0.091600 0.539170 -0.601864
O15   O     O_R   0.051490 0.091570 0.643140 -0.636476
O16   O     O_R   0.856400 0.908420 0.448030 -0.619565
O17   O     O_R   0.960390 0.908390 0.552000 -0.619799
O18   O     O_R   0.592400 0.448300 0.540670 -0.539798
O19   O     O_R   0.591800 0.551700 0.643540 -0.573240
O20   O     O_R   0.591910 0.539910 0.448560 -0.603944
O21   O     O_R   0.591310 0.643310 0.551430 -0.595191
O22   O     O_R   0.408200 0.448300 0.356460 -0.644209
O23   O     O_R   0.407600 0.551700 0.459330 -0.624668
O24   O     O_R   0.946100 0.356720 0.906240 -0.600026
Zn1   Zn    Zn3+2 0.500400 0.430960 0.431310 1.051793
Zn2   Zn    Zn3+2 0.499600 0.569040 0.568690 1.039611
Zn3   Zn    Zn3+2 0.928290 0.431030 0.997370 1.053922
Zn4   Zn    Zn3+2 0.066410 0.569060 0.997270 1.054114
Zn5   Zn    Zn3+2 0.930570 0.000030 0.430590 1.106209
Zn6   Zn    Zn3+2 0.069430 0.999990 0.569430 1.011042
S1    S     S_3+6 0.609869 0.310575 0.557252 0.079237
O25   O     O_2   0.638764 0.331910 0.496413 -0.294524
O26   O     O_2   0.632471 0.244104 0.563571 -0.276143
O27   O     O_3   0.500229 0.264590 0.503958 -0.427210
H17   H     H_    0.481918 0.209769 0.455489 0.401712
S2    S     S_3+6 0.835020 0.655416 0.946836 -0.022264
O28   O     O_2   0.925713 0.670134 0.991164 -0.298337
O29   O     O_2   0.841098 0.725074 0.925640 -0.246418
O30   O     O_3   0.794652 0.667950 0.018256 -0.585901
H18   H     H_    0.841723 0.720467 0.071205 0.407766
S3    S     S_3+6 0.802521 0.625345 0.667495 -0.017189
O31   O     O_2   0.776169 0.685417 0.714065 -0.264240
O32   O     O_2   0.898028 0.672949 0.693309 -0.328880
O33   O     O_3   0.749194 0.591404 0.563184 -0.554504
H19   H     H_    0.786695 0.576649 0.539249 0.357877
N1    N     N_3   0.915247 0.633727 0.825192 -0.317251
H20   H     H_    0.969783 0.656890 0.815215 0.257760
H21   H     H_    0.888172 0.673069 0.826116 0.290143
N2    N     N_3   0.339327 0.489409 0.656169 -0.401961
H22   H     H_    0.399907 0.535440 0.671040 0.267864
H23   H     H_    0.290804 0.473577 0.598290 0.224617
S4    S     S_3+6 0.428939 0.512482 0.834708 0.022376
O34   O     O_2   0.481782 0.583489 0.824145 -0.306665
O35   O     O_2   0.370758 0.534538 0.869963 -0.295690
O36   O     O_3   0.497133 0.498838 0.904536 -0.553643
H24   H     H_    0.530267 0.553312 0.958506 0.386560
N3    N     N_3   0.334574 0.342587 0.816505 -0.370567
H25   H     H_    0.353966 0.297524 0.817124 0.207025
H26   H     H_    0.275041 0.324191 0.818999 0.188072
S5    S     S_3+6 0.979568 0.149354 0.342116 0.139980
O37   O     O_2   0.996114 0.207445 0.429926 -0.255037
O38   O     O_2   0.949303 0.180383 0.281571 -0.208894
O39   O     O_3   0.899653 0.053000 0.307812 -0.481009
H27   H     H_    0.850369 0.061613 0.312329 0.365533
S6    S     S_3+6 0.987756 0.039813 0.164559 0.127002
O40   O     O_2   0.019976 0.997773 0.106556 -0.248104
O41   O     O_2   0.925572 0.975063 0.175604 -0.174410
O42   O     O_3   0.935496 0.081928 0.118653 -0.530914
H28   H     H_    0.887972 0.033934 0.062315 0.386457
S7    S     S_3+6 0.552396 0.353615 0.685451 0.031500
O43   O     O_2   0.486862 0.372621 0.638444 -0.351051
O44   O     O_2   0.513919 0.259404 0.644682 -0.169484
O45   O     O_3   0.558293 0.381510 0.783596 -0.595622
H29   H     H_    0.497462 0.351766 0.773661 0.401594
N4    N     N_3   0.270549 0.309001 0.322120 -0.418832
H30   H     H_    0.299156 0.283875 0.286652 0.221941
H31   H     H_    0.229291 0.322792 0.284230 0.180740
N5    N     N_3   0.490089 0.537576 0.158782 -0.482194
H32   H     H_    0.479878 0.483021 0.109546 0.201736
H33   H     H_    0.506163 0.585018 0.141882 0.207782
N6    N     N_3   0.266348 0.483117 0.453912 -0.393352
H34   H     H_    0.257509 0.430167 0.460526 0.202687
H35   H     H_    0.258492 0.524745 0.500441 0.252041
S8    S     S_3+6 0.082160 0.394896 0.427032 0.079468
O46   O     O_2   0.124182 0.350605 0.460737 -0.343992
O47   O     O_2   0.112871 0.479450 0.500000 -0.187547
O48   O     O_3   0.973169 0.338536 0.385220 -0.447161
H36   H     H_    0.951794 0.379974 0.389889 0.389695
S9    S     S_3+6 0.013659 0.498697 0.241740 0.033956
O49   O     O_2   0.065363 0.582840 0.252107 -0.345699
O50   O     O_2   0.928577 0.446602 0.161008 -0.314623
O51   O     O_3   0.991011 0.513704 0.325331 -0.467176
H37   H     H_    0.945618 0.531149 0.313726 0.400774
N7    N     N_3   0.484923 0.563324 0.314020 -0.484363
H38   H     H_    0.509387 0.521588 0.299106 0.239185
H39   H     H_    0.528568 0.620499 0.322848 0.191646
N8    N     N_3   0.714350 0.342229 0.766026 -0.382770
H40   H     H_    0.679588 0.280768 0.714991 0.278566
H41   H     H_    0.677252 0.348626 0.798225 0.275906
N9    N     N_3   0.493255 0.821717 0.486783 -0.354671
H42   H     H_    0.479374 0.805608 0.531331 0.211360
H43   H     H_    0.444891 0.773464 0.425285 0.189669
S10   S     S_3+6 0.634032 0.992191 0.531546 0.048895
O52   O     O_2   0.692711 0.058563 0.624018 -0.289617
O53   O     O_2   0.660685 0.024791 0.475488 -0.288560
O54   O     O_3   0.531380 0.974197 0.509087 -0.492662
H44   H     H_    0.533479 0.028884 0.519551 0.433637
N10   N     N_3   0.798812 0.979155 0.549392 -0.429916
H45   H     H_    0.784909 0.997934 0.503035 0.265253
H46   H     H_    0.810014 0.025060 0.607377 0.231145
N11   N     N_3   0.969202 0.805864 0.601527 -0.387771
H47   H     H_    0.024266 0.818979 0.590974 0.242289
H48   H     H_    0.976130 0.785905 0.647452 0.268762
S11   S     S_3+6 0.983010 0.647163 0.506734 0.067808
O55   O     O_2   0.038144 0.684201 0.469698 -0.237949
O56   O     O_2   0.036648 0.689652 0.602388 -0.235840
O57   O     O_3   0.952245 0.543977 0.465905 -0.478177
H49   H     H_    0.917802 0.524125 0.493973 0.358229
N12   N     N_3   0.651917 0.521943 0.339607 -0.443897
H50   H     H_    0.651984 0.506051 0.280097 0.171598
H51   H     H_    0.648983 0.472111 0.351505 0.223147
S12   S     S_3+6 0.103073 0.513585 0.687246 0.089208
O58   O     O_2   0.032846 0.503660 0.612114 -0.198057
O59   O     O_2   0.115488 0.579432 0.768792 -0.309420
O60   O     O_3   0.196845 0.544744 0.679734 -0.463260
H52   H     H_    0.239552 0.549057 0.730333 0.371731
N13   N     N_3   0.950724 0.024188 0.701071 -0.438801
H53   H     H_    0.891580 0.980412 0.691773 0.192554
H54   H     H_    0.996708 0.004623 0.718618 0.237177
N14   N     N_3   0.975349 0.035571 0.861050 -0.434930
H55   H     H_    0.996188 0.051667 0.925809 0.219822
H56   H     H_    0.908115 0.994983 0.829769 0.210618
N15   N     N_3   0.177339 0.695834 0.231194 -0.374866
H57   H     H_    0.212220 0.684152 0.276885 0.222727
H58   H     H_    0.216315 0.715248 0.203024 0.221999
N16   N     N_3   0.321479 0.844573 0.364261 -0.437996
H59   H     H_    0.346849 0.852834 0.426274 0.262737
H60   H     H_    0.362722 0.895888 0.362238 0.273312
S13   S     S_3+6 0.317298 0.003732 0.474310 0.092644
O61   O     O_2   0.375992 0.050150 0.445508 -0.219236
O62   O     O_2   0.285990 0.059001 0.520015 -0.214730
O63   O     O_3   0.374935 0.982357 0.543890 -0.514829
H61   H     H_    0.332597 0.950554 0.559039 0.353835
S14   S     S_3+6 0.137147 0.973010 0.312029 0.049690
O64   O     O_2   0.135074 0.939289 0.225294 -0.253226
O65   O     O_2   0.054207 0.976148 0.301042 -0.284105
O66   O     O_3   0.222059 0.070880 0.376455 -0.521798
H62   H     H_    0.240797 0.088717 0.337964 0.381819
N17   N     N_3   0.768953 0.469140 0.600327 -0.360644
H63   H     H_    0.777356 0.420066 0.605339 0.226321
H64   H     H_    0.817490 0.495872 0.584411 0.198899
N18   N     N_3   0.820676 0.771876 0.318616 -0.425389
H65   H     H_    0.771482 0.748752 0.335389 0.172518
H66   H     H_    0.793380 0.784560 0.270192 0.227281
N19   N     N_3   0.799885 0.533713 0.061216 -0.443834
H67   H     H_    0.795090 0.474214 0.044199 0.223322
H68   H     H_    0.834017 0.565490 0.036641 0.233235
N20   N     N_3   0.904659 0.505862 0.732228 -0.484393
H69   H     H_    0.928618 0.532485 0.698114 0.245848
H70   H     H_    0.962460 0.523878 0.782404 0.238763
N21   N     N_3   0.628766 0.561923 0.788922 -0.358329
H71   H     H_    0.651006 0.612637 0.848906 0.271132
H72   H     H_    0.584867 0.508603 0.784836 0.300506
N22   N     N_3   0.707956 0.497336 0.875436 -0.384168
H73   H     H_    0.738483 0.473437 0.908122 0.200690
H74   H     H_    0.684824 0.529376 0.912513 0.278709

loop_
_geom_bond_atom_site_label_1
_geom_bond_atom_site_label_2
_ccdc_geom_bond_type
C8    C9    A    
C66   C68   A    
S6    O40   D    
N17   H64   S    
S8    O46   D    
N2    H23   S    
C11   C13   A    
C37   N9    S    
C75   N15   S    
O57   H49   S    
S3    O31   D    
N8    H40   S    
C60   H9    S    
C19   N4    S    
C13   C16   A    
S12   O59   D    
O36   H24   S    
C27   C54   S    
S11   O55   D    
C7    C8    A    
S5    O38   D    
C56   N8    S    
N4    H30   S    
N5    H32   S    
O2    Zn4   S    
C78   N21   S    
C47   N11   S    
C3    N1    S    
C37   C38   A    
O9    Zn5   S    
C18   H1    S    
O20   Zn1   S    
C57   O11   A    
C36   C37   A    
S3    O32   D    
C10   C15   A    
C4    S2    S    
C5    C6    A    
O42   H28   S    
N9    H43   S    
N8    H41   S    
C55   O10   A    
S14   O65   D    
C65   C70   A    
N14   H56   S    
C54   O7    A    
C67   C89   S    
S10   O54   S    
N14   H55   S    
C17   C18   A    
C18   C19   A    
C73   C74   A    
C49   C50   A    
C90   N19   S    
O21   Zn2   S    
C86   N18   S    
S8    O48   S    
N12   H51   S    
C68   C69   A    
N3    H25   S    
C84   C85   A    
C58   C66   S    
S7    O45   S    
N15   H57   S    
C45   C56   S    
C16   S5    S    
N7    H38   S    
N9    H42   S    
C87   H15   S    
C47   C48   A    
N16   H60   S    
C41   C46   A    
S7    O43   D    
O51   H37   S    
C1    C15   S    
C51   C70   S    
C45   C89   S    
C9    C10   A    
C77   S13   S    
O23   Zn2   S    
S4    O36   S    
C57   O13   A    
C62   H11   S    
C53   O5    A    
S14   O66   S    
S7    O44   D    
O15   Zn6   S    
C23   C46   S    
O7    Zn3   S    
C13   C14   A    
C59   O17   A    
S2    O30   S    
C36   C41   A    
C69   C70   A    
C84   C90   A    
C33   N5    S    
C63   H12   S    
S11   O56   D    
S12   O58   D    
C6    S4    S    
C51   O24   A    
C44   C46   A    
C35   N7    S    
S10   O52   D    
N4    H31   S    
C78   C89   S    
C4    N22   S    
C73   H8    S    
S6    O42   S    
C61   S12   S    
S2    O28   D    
C30   C34   S    
O3    Zn3   S    
O39   H27   S    
C12   C89   S    
S3    O33   S    
C38   C39   A    
C24   C25   A    
C34   O23   A    
C72   C73   A    
O1    Zn1   S    
C45   S7    S    
O6    Zn4   S    
C39   C40   A    
N19   H68   S    
S13   O61   D    
N10   H45   S    
C16   C17   A    
C12   O19   A    
S4    O35   D    
C24   S9    S    
S14   O64   D    
C5    N2    S    
C7    N3    S    
C72   N14   S    
O18   Zn1   S    
C60   C61   A    
C64   C66   A    
N18   H66   S    
C75   C76   A    
C28   C31   A    
C4    C78   S    
C29   C30   A    
O66   H62   S    
S1    O26   D    
N16   H59   S    
C2    C4    S    
C83   C84   A    
C12   O18   A    
C52   O4    A    
C48   C49   A    
C32   H5    S    
C62   C63   A    
C58   O14   A    
N12   H50   S    
O8    Zn4   S    
C77   C79   A    
C69   C74   A    
N15   H58   S    
C25   C26   A    
C76   C77   A    
C55   C82   S    
C51   O2    A    
N13   H54   S    
C36   H7    S    
C2    C52   S    
C1    O1    A    
C23   O20   A    
C8    H2    S    
C49   H6    S    
C53   O6    A    
N7    H39   S    
C40   C41   A    
N11   H47   S    
C88   C90   A    
C60   C65   A    
C82   C83   A    
C67   N17   S    
C9    C11   A    
C43   C44   A    
C67   S3    S    
S4    O34   D    
C79   S14   S    
C22   C24   A    
C79   C80   A    
O4    Zn4   S    
O24   Zn3   S    
N11   H48   S    
C42   C43   A    
C56   H10   S    
N17   H63   S    
O11   Zn5   S    
O22   Zn1   S    
S12   O60   S    
O30   H18   S    
O60   H52   S    
S2    O29   D    
O63   H61   S    
C23   O21   A    
C45   S1    S    
C48   S11   S    
C44   C50   A    
C28   C29   A    
C58   O15   A    
S8    O47   D    
C39   N10   S    
N3    H26   S    
C86   C87   A    
C14   C19   A    
C31   C32   A    
C3    C67   S    
C14   C15   A    
S5    O39   S    
N1    H21   S    
C80   C81   A    
C20   C26   A    
C42   C59   S    
C53   C85   S    
N21   H71   S    
C17   S6    S    
C34   O22   A    
C26   C30   A    
C6    C7    A    
O10   Zn6   S    
C76   N16   S    
C75   C81   A    
O45   H29   S    
S9    O49   D    
C31   H4    S    
S1    O25   D    
C29   C35   A    
O13   Zn6   S    
O33   H19   S    
O17   Zn6   S    
C78   H16   S    
O14   Zn5   S    
C32   C33   A    
S9    O51   S    
S13   O62   D    
C2    C3    S    
N20   H69   S    
N10   H46   S    
N6    H34   S    
C11   C57   S    
C64   C65   A    
C20   N6    S    
O5    Zn3   S    
N21   H72   S    
O19   Zn2   S    
C21   S8    S    
N19   H67   S    
S5    O37   D    
C55   O9    A    
C52   O3    A    
C59   O16   A    
C68   C71   A    
O27   H17   S    
S1    O27   S    
C54   O8    A    
C40   C42   A    
C33   C35   A    
C80   C82   A    
N5    H33   S    
N18   H65   S    
N22   H74   S    
C1    O12   A    
C71   N13   S    
C38   S10   S    
C61   C62   A    
O16   Zn5   S    
N6    H35   S    
C22   H3    S    
O12   Zn2   S    
C63   C64   A    
S6    O41   D    
C5    C10   A    
C83   C86   A    
C71   C72   A    
C20   C21   A    
C87   C88   A    
N20   H70   S    
O48   H36   S    
S13   O63   S    
N2    H22   S    
C3    N20   S    
S10   O53   D    
N22   H73   S    
C50   N12   S    
C2    C56   S    
N1    H20   S    
S9    O50   D    
C21   C22   A    
C43   C47   A    
C88   H14   S    
S11   O57   S    
C81   C85   A    
N13   H53   S    
O54   H44   S    
C74   H13   S    
C27   C28   A    
C25   C27   A    
