data_mof_unit_53180.cif
_audit_creation_date              2012-12-10T20:47:09-0500
_audit_creation_method            fapswitch 2.2
_symmetry_space_group_name_H-M    P1
_symmetry_Int_Tables_number       1
_space_group_crystal_system       triclinic
_cell_length_a                    10.690941
_cell_length_b                    8.934442
_cell_length_c                    8.107495
_cell_angle_alpha                 89.978792
_cell_angle_beta                  90.000824
_cell_angle_gamma                 90.000685
_cell_volume                      774.408348716

loop_
_atom_site_label
_atom_site_type_symbol
_atom_type_description
_atom_site_fract_x
_atom_site_fract_y
_atom_site_fract_z
_atom_type_partial_charge
Br1   Br    Br    0.243575 0.309895 0.898168 -0.428640
Br2   Br    Br    0.756457 0.309979 0.898216 -0.428668
C1    C     C_R   0.500000 0.217992 0.500004 0.910996
C2    C     C_R   0.065524 0.445089 0.670604 -0.088856
C3    C     C_R   0.129140 0.438335 0.516224 -0.056856
C4    C     C_R   0.870863 0.438364 0.516225 -0.056836
C5    C     C_R   0.064589 0.396139 0.374256 -0.097459
C6    C     C_R   0.935406 0.396154 0.374256 -0.097466
C7    C     C_1   0.500000 0.065201 0.500040 -0.118131
C8    C     C_1   0.500000 0.934818 0.499976 -0.141993
C9    C     C_R   0.500000 0.781989 0.499961 0.946911
C10   C     C_R   0.260004 0.480837 0.502528 0.897399
C11   C     C_R   0.739997 0.480851 0.502530 0.897389
C12   C     C_R   0.126315 0.460091 0.825901 0.141450
C13   C     C_R   0.873702 0.460172 0.825899 0.141428
C14   C     C_R   0.064895 0.535954 0.952182 0.476863
C15   C     C_R   0.935158 0.536009 0.952173 0.476893
C16   C     C_R   0.934485 0.445120 0.670604 -0.088859
F1    F     F_    0.129142 0.587410 0.084599 -0.619076
F2    F     F_    0.870936 0.587493 0.084594 -0.619062
H1    H     H_    0.113996 0.370304 0.261481 0.213907
H2    H     H_    0.885994 0.370330 0.261480 0.213905
N1    N     N_1   0.500000 0.500000 0.073640 0.050463
N2    N     N_1   0.500000 0.500000 0.926360 0.056174
O1    O     O_R   0.500000 0.285350 0.636850 -0.577939
O2    O     O_R   0.500000 0.714650 0.636850 -0.610799
O3    O     O_R   0.500000 0.285360 0.363100 -0.621263
O4    O     O_R   0.500000 0.714640 0.363100 -0.598980
O5    O     O_R   0.316770 0.500000 0.636900 -0.605009
O6    O     O_R   0.683230 0.500000 0.636900 -0.604997
O7    O     O_R   0.316780 0.500000 0.363150 -0.575651
O8    O     O_R   0.683220 0.500000 0.363150 -0.575694
Zn1   Zn    Zn3+2 0.500000 0.500000 0.682780 1.085873
Zn2   Zn    Zn3+2 0.500000 0.500000 0.317220 1.102583

loop_
_geom_bond_atom_site_label_1
_geom_bond_atom_site_label_2
_ccdc_geom_bond_type
C13   C16   A    
C6    H2    S    
N1    N2    T    
C1    C7    S    
C10   O5    A    
C7    C8    T    
C11   O8    A    
N2    Zn1   S    
O6    Zn1   S    
N1    Zn2   S    
C2    C16   A    
C1    O3    A    
O7    Zn2   S    
O4    Zn2   S    
C5    C6    A    
C10   O7    A    
C4    C11   S    
Br2   C13   S    
C9    O4    A    
C14   F1    S    
O3    Zn2   S    
C2    C12   A    
C4    C16   A    
C12   C14   A    
C8    C9    S    
O5    Zn1   S    
C11   O6    A    
C1    O1    A    
C15   F2    S    
C3    C10   S    
C3    C5    A    
C13   C15   A    
C2    C3    A    
C4    C6    A    
Br1   C12   S    
O2    Zn1   S    
C9    O2    A    
C5    H1    S    
O1    Zn1   S    
C14   C15   A    
O8    Zn2   S    
