data_mof_unit_27637.cif
_audit_creation_date              2012-12-10T18:47:46-0500
_audit_creation_method            fapswitch 2.2
_symmetry_space_group_name_H-M    P1
_symmetry_Int_Tables_number       1
_space_group_crystal_system       triclinic
_cell_length_a                    9.85962
_cell_length_b                    10.702171
_cell_length_c                    15.533221
_cell_angle_alpha                 90.104347
_cell_angle_beta                  68.348636
_cell_angle_gamma                 90.0555
_cell_volume                      1523.41087323

loop_
_atom_site_label
_atom_site_type_symbol
_atom_type_description
_atom_site_fract_x
_atom_site_fract_y
_atom_site_fract_z
_atom_type_partial_charge
C1    C     C_R   0.499993 0.740051 0.500153 0.856436
C2    C     C_R   0.397219 0.935839 0.474369 -0.188966
C3    C     C_R   0.499409 0.127541 0.500686 -0.014080
C4    C     C_R   0.499732 0.872526 0.500513 -0.012704
C5    C     C_R   0.935053 0.391452 0.488081 -0.065884
C6    C     C_R   0.064707 0.608456 0.512321 -0.060735
C7    C     C_R   0.078250 0.391371 0.488662 0.012555
C8    C     C_R   0.921095 0.608391 0.512432 -0.054724
C9    C     C_R   0.409483 0.499313 0.675503 0.944761
C10   C     C_R   0.590471 0.494101 0.324229 0.918203
C11   C     C_R   0.355514 0.511859 0.775548 -0.160126
C12   C     C_R   0.499774 0.259968 0.500228 0.923521
C13   C     C_R   0.645844 0.485716 0.223046 -0.189663
C14   C     C_R   0.198027 0.619006 0.913074 -0.208716
C15   C     C_R   0.844881 0.497884 0.073890 -0.180302
C16   C     C_R   0.232032 0.585230 0.821002 -0.261527
C17   C     C_R   0.795673 0.497830 0.170459 -0.237431
C18   C     C_R   0.443823 0.469765 0.822615 0.365928
C19   C     C_R   0.547094 0.470830 0.177520 0.374158
C20   C     C_R   0.426424 0.525330 0.908021 -0.035265
C21   C     C_R   0.593149 0.505078 0.084263 -0.034406
C22   C     C_R   0.294082 0.588798 0.957403 0.129306
C23   C     C_R   0.356972 0.590501 0.093274 -0.133541
C24   C     C_R   0.743811 0.503502 0.030016 0.121517
C25   C     C_R   0.535000 0.519416 0.946708 0.106698
C26   C     C_R   0.492911 0.535127 0.042672 0.107908
C27   C     C_R   0.685259 0.510636 0.892098 -0.118175
C28   C     C_R   0.260969 0.621835 0.049903 -0.204788
C29   C     C_R   0.789193 0.507551 0.933504 -0.199368
C30   C     C_R   0.601738 0.936216 0.527094 -0.183087
C31   C     C_R   0.397044 0.063844 0.474474 -0.151305
C32   C     C_R   0.601549 0.064277 0.527216 -0.139312
H1    H     H_    0.159948 0.669471 0.089057 0.150638
H2    H     H_    0.318306 0.112577 0.453236 0.173731
H3    H     H_    0.680024 0.113440 0.548637 0.158219
H4    H     H_    0.318591 0.886766 0.453053 0.155605
H5    H     H_    0.887091 0.304408 0.478133 0.127203
H6    H     H_    0.112644 0.695489 0.522320 0.125036
H7    H     H_    0.137534 0.304331 0.478863 0.139001
H8    H     H_    0.861583 0.695349 0.522596 0.123755
H9    H     H_    0.158612 0.408809 0.282829 0.368598
H10   H     H_    0.751124 0.270817 0.684699 0.370298
H11   H     H_    0.904118 0.505982 0.890284 0.157260
H12   H     H_    0.874626 0.503802 0.203704 0.185885
H13   H     H_    0.163641 0.618138 0.784892 0.175661
H14   H     H_    0.100369 0.673247 0.948222 0.154170
H15   H     H_    0.960778 0.497506 0.034143 0.164944
H16   H     H_    0.329393 0.618062 0.164680 0.186512
H17   H     H_    0.723393 0.515418 0.817526 0.195044
H18   H     H_    0.680349 0.887409 0.548410 0.148290
N1    N     N_R   0.142780 0.500030 0.500020 -0.064819
N2    N     N_R   0.857220 0.499970 0.499980 -0.067332
O1    O     O_R   0.385370 0.683250 0.500010 -0.641060
O2    O     O_2   0.417067 0.274639 0.286403 -0.307427
O3    O     O_3   0.243051 0.456246 0.285845 -0.586004
O4    O     O_2   0.557407 0.261135 0.868257 -0.252701
O5    O     O_2   0.461973 0.243124 0.744118 -0.321904
O6    O     O_3   0.710388 0.354479 0.707189 -0.579741
O7    O     O_R   0.614630 0.316750 0.499990 -0.626289
O8    O     O_R   0.614700 0.683220 0.500000 -0.639601
O9    O     O_R   0.385300 0.316780 0.500000 -0.620236
O10   O     O_R   0.319830 0.500020 0.632250 -0.625643
O11   O     O_R   0.680170 0.499980 0.367750 -0.628162
O12   O     O_R   0.549160 0.499990 0.632240 -0.558725
O13   O     O_R   0.450840 0.500010 0.367760 -0.529802
O14   O     O_2   0.362184 0.305749 0.146953 -0.273818
S1    S     S_3+6 0.390658 0.371443 0.224333 0.023493
S2    S     S_3+6 0.543030 0.326836 0.786572 0.019069
Zn1   Zn    Zn3+2 0.346870 0.500020 0.500000 1.007761
Zn2   Zn    Zn3+2 0.653130 0.499980 0.500000 0.986205

loop_
_geom_bond_atom_site_label_1
_geom_bond_atom_site_label_2
_ccdc_geom_bond_type
C16   H13   S    
O3    S1    S    
C21   C26   A    
C6    H6    S    
C11   C18   A    
C19   S1    S    
C23   H16   S    
C5    H5    S    
C6    N1    A    
C27   C29   A    
C9    O12   A    
C5    C7    A    
C11   C16   A    
C8    N2    A    
C2    C4    A    
C10   O11   A    
O11   Zn2   S    
C13   C17   A    
C1    C4    S    
O1    Zn1   S    
C14   C22   A    
O14   S1    D    
C30   H18   S    
C31   H2    S    
C7    N1    A    
C5    N2    A    
C22   C28   A    
C23   C28   A    
C29   H11   S    
C3    C31   A    
C12   O9    A    
C9    C11   S    
H10   O6    S    
O8    Zn2   S    
O13   Zn1   S    
C6    C8    A    
O6    S2    S    
C15   C24   A    
C19   C21   A    
C20   C22   A    
C28   H1    S    
O12   Zn2   S    
O9    Zn1   S    
C12   O7    A    
C3    C32   A    
C1    O8    A    
C14   C16   A    
C21   C24   A    
C25   C27   A    
C20   C25   A    
C13   C19   A    
O7    Zn2   S    
C18   S2    S    
C9    O10   A    
C30   C32   A    
C32   H3    S    
C24   C29   A    
N2    Zn2   S    
C18   C20   A    
C14   H14   S    
C23   C26   A    
C2    H4    S    
C15   C17   A    
C1    O1    A    
C15   H15   S    
H9    O3    S    
C7    H7    S    
O2    S1    D    
C8    H8    S    
N1    Zn1   S    
C17   H12   S    
C25   C26   A    
O4    S2    D    
O5    S2    D    
C3    C12   S    
C4    C30   A    
C27   H17   S    
O10   Zn1   S    
C10   O13   A    
C2    C31   A    
C10   C13   S    
