data_mof_unit_50270.cif
_audit_creation_date              2012-12-11T16:19:10-0500
_audit_creation_method            fapswitch 2.2
_symmetry_space_group_name_H-M    P1
_symmetry_Int_Tables_number       1
_space_group_crystal_system       monoclinic
_cell_length_a                    7.023645
_cell_length_b                    31.261852
_cell_length_c                    34.915448
_cell_angle_alpha                 90.0
_cell_angle_beta                  89.999983
_cell_angle_gamma                 90.0
_cell_volume                      7666.4600027

loop_
_atom_site_label
_atom_site_type_symbol
_atom_type_description
_atom_site_fract_x
_atom_site_fract_y
_atom_site_fract_z
_atom_type_partial_charge
O1    O     O_R   0.417270 0.211480 0.210950 -0.536821
O2    O     O_R   0.582730 0.788520 0.789050 -0.536098
O3    O     O_R   0.582730 0.788520 0.710950 -0.536821
O4    O     O_R   0.417270 0.211480 0.289050 -0.536098
O5    O     O_R   0.917270 0.288520 0.289050 -0.536821
O6    O     O_R   0.082730 0.711480 0.710950 -0.536098
O7    O     O_R   0.082730 0.711480 0.789050 -0.536821
O8    O     O_R   0.917270 0.288520 0.210950 -0.536098
O9    O     O_R   0.746940 0.206370 0.288750 -0.538373
O10   O     O_R   0.253060 0.793630 0.711250 -0.541251
O11   O     O_R   0.253060 0.793630 0.788750 -0.538373
O12   O     O_R   0.746940 0.206370 0.211250 -0.541251
O13   O     O_R   0.246940 0.293630 0.211250 -0.538373
O14   O     O_R   0.753060 0.706370 0.788750 -0.541251
O15   O     O_R   0.753060 0.706370 0.711250 -0.538373
O16   O     O_R   0.246940 0.293630 0.288750 -0.541251
C1    C     C_R   0.578334 0.195840 0.301651 0.708674
C2    C     C_R   0.422555 0.804535 0.698517 0.707323
C3    C     C_R   0.421666 0.804160 0.801651 0.708674
C4    C     C_R   0.577445 0.195465 0.198517 0.707323
C5    C     C_R   0.078334 0.304160 0.198349 0.708673
C6    C     C_R   0.922555 0.695465 0.801483 0.707323
C7    C     C_R   0.921666 0.695840 0.698349 0.708674
C8    C     C_R   0.077445 0.304534 0.301483 0.707323
O17   O     O_3   0.583760 0.276950 0.250000 -0.369220
O18   O     O_3   0.416240 0.723050 0.750000 -0.369220
O19   O     O_3   0.083760 0.223050 0.250000 -0.369220
O20   O     O_3   0.916240 0.776950 0.750000 -0.369220
V1    V     V_3+5 0.858600 0.245000 0.250000 1.404521
V2    V     V_3+5 0.141400 0.755000 0.750000 1.404521
V3    V     V_3+5 0.358600 0.255000 0.250000 1.404521
V4    V     V_3+5 0.641400 0.745000 0.750000 1.404521
C9    C     C_R   0.867659 0.584152 0.541013 0.550218
C10   C     C_R   0.964285 0.411389 0.460157 0.566903
C11   C     C_R   0.132341 0.415848 0.041013 0.550218
C12   C     C_R   0.035715 0.588611 0.960157 0.566904
C13   C     C_R   0.367659 0.915848 0.958987 0.550218
C14   C     C_R   0.464285 0.088611 0.039843 0.566904
C15   C     C_R   0.632341 0.084152 0.458987 0.550218
C16   C     C_R   0.535715 0.911389 0.539843 0.566903
N1    N     N_R   0.920843 0.571061 0.576786 -0.536212
N2    N     N_R   0.955649 0.426369 0.423435 -0.536578
N3    N     N_R   0.079157 0.428939 0.076786 -0.536212
N4    N     N_R   0.044351 0.573631 0.923435 -0.536578
N5    N     N_R   0.420842 0.928939 0.923214 -0.536212
N6    N     N_R   0.455649 0.073631 0.076565 -0.536578
N7    N     N_R   0.579157 0.071061 0.423213 -0.536212
N8    N     N_R   0.544351 0.926369 0.576565 -0.536578
C17   C     C_R   0.962896 0.529022 0.584045 0.542778
C18   C     C_R   0.912878 0.468424 0.416185 0.530150
C19   C     C_R   0.037104 0.470978 0.084045 0.542778
C20   C     C_R   0.087122 0.531576 0.916185 0.530150
C21   C     C_R   0.462896 0.970978 0.915954 0.542778
C22   C     C_R   0.412878 0.031576 0.083815 0.530150
C23   C     C_R   0.537104 0.029022 0.415954 0.542778
C24   C     C_R   0.587122 0.968424 0.583815 0.530150
C25   C     C_R   0.962517 0.498034 0.553996 -0.050845
C26   C     C_R   0.887567 0.498172 0.446793 -0.039214
C27   C     C_R   0.037483 0.501966 0.053996 -0.050845
C28   C     C_R   0.112433 0.501827 0.946793 -0.039214
C29   C     C_R   0.462517 0.001966 0.946004 -0.050845
C30   C     C_R   0.387567 0.001827 0.053207 -0.039214
C31   C     C_R   0.537483 0.998034 0.446004 -0.050845
C32   C     C_R   0.612433 0.998172 0.553207 -0.039214
C33   C     C_R   0.916267 0.512189 0.516371 -0.043396
C34   C     C_R   0.920435 0.483460 0.484787 -0.038886
C35   C     C_R   0.083732 0.487811 0.016372 -0.043396
C36   C     C_R   0.079565 0.516540 0.984787 -0.038886
C37   C     C_R   0.416268 0.987811 0.983628 -0.043396
C38   C     C_R   0.420435 0.016540 0.015213 -0.038886
C39   C     C_R   0.583733 0.012189 0.483628 -0.043396
C40   C     C_R   0.579565 0.983460 0.515213 -0.038886
C41   C     C_R   0.868765 0.555339 0.510098 -0.053542
C42   C     C_R   0.957577 0.439866 0.491281 -0.062024
C43   C     C_R   0.131235 0.444661 0.010098 -0.053542
C44   C     C_R   0.042423 0.560133 0.991281 -0.062023
C45   C     C_R   0.368765 0.944661 0.989902 -0.053542
C46   C     C_R   0.457577 0.060133 0.008719 -0.062023
C47   C     C_R   0.631235 0.055339 0.489902 -0.053542
C48   C     C_R   0.542423 0.939866 0.508719 -0.062024
C49   C     C_R   0.008336 0.453840 0.559532 0.070241
C50   C     C_R   0.833131 0.541824 0.441372 0.063963
C51   C     C_R   0.991664 0.546160 0.059532 0.070241
C52   C     C_R   0.166869 0.458176 0.941372 0.063963
C53   C     C_R   0.508336 0.046159 0.940467 0.070241
C54   C     C_R   0.333131 0.958176 0.058627 0.063963
C55   C     C_R   0.491664 0.953840 0.440467 0.070241
C56   C     C_R   0.666869 0.041824 0.558628 0.063963
C57   C     C_R   0.997456 0.425575 0.528375 -0.179979
C58   C     C_R   0.824680 0.569318 0.473077 -0.186000
C59   C     C_R   0.002543 0.574425 0.028376 -0.179979
C60   C     C_R   0.175320 0.430681 0.973077 -0.186000
C61   C     C_R   0.497457 0.074425 0.971624 -0.179979
C62   C     C_R   0.324680 0.930682 0.026923 -0.186001
C63   C     C_R   0.502544 0.925575 0.471624 -0.179979
C64   C     C_R   0.675320 0.069318 0.526923 -0.186001
O21   O     O_2   0.813849 0.625121 0.535343 -0.543573
O22   O     O_2   0.983120 0.369011 0.466517 -0.535641
O23   O     O_2   0.186151 0.374879 0.035343 -0.543573
O24   O     O_2   0.016879 0.630988 0.966517 -0.535641
O25   O     O_2   0.313849 0.874879 0.964657 -0.543573
O26   O     O_2   0.483121 0.130988 0.033483 -0.535641
O27   O     O_2   0.686151 0.125121 0.464657 -0.543573
O28   O     O_2   0.516880 0.869011 0.533483 -0.535641
O29   O     O_2   0.005271 0.517832 0.620271 -0.545895
O30   O     O_2   0.902138 0.481203 0.379441 -0.550573
O31   O     O_2   0.994729 0.482168 0.120271 -0.545895
O32   O     O_2   0.097862 0.518797 0.879441 -0.550573
O33   O     O_2   0.505271 0.982168 0.879729 -0.545895
O34   O     O_2   0.402138 0.018797 0.120559 -0.550573
O35   O     O_2   0.494729 0.017832 0.379729 -0.545895
O36   O     O_2   0.597862 0.981203 0.620559 -0.550573
H1    H     H_    0.031675 0.392139 0.532835 0.166343
H2    H     H_    0.785839 0.602488 0.468504 0.165225
H3    H     H_    0.968325 0.607861 0.032835 0.166343
H4    H     H_    0.214161 0.397512 0.968504 0.165225
H5    H     H_    0.531675 0.107861 0.967164 0.166343
H6    H     H_    0.285839 0.897512 0.031496 0.165225
H7    H     H_    0.468326 0.892139 0.467164 0.166343
H8    H     H_    0.714161 0.102488 0.531496 0.165225
C65   C     C_R   0.851339 0.386859 0.366282 -0.128371
C66   C     C_R   0.794162 0.599958 0.637198 -0.148803
C67   C     C_R   0.148661 0.613141 0.866282 -0.128371
C68   C     C_R   0.205838 0.400042 0.137198 -0.148803
C69   C     C_R   0.351339 0.113141 0.133717 -0.128371
C70   C     C_R   0.294162 0.900042 0.862802 -0.148803
C71   C     C_R   0.648661 0.886859 0.633718 -0.128371
C72   C     C_R   0.705838 0.099958 0.362802 -0.148804
H9    H     H_    0.713359 0.401070 0.368984 0.121958
H10   H     H_    0.687545 0.574936 0.637104 0.128882
H11   H     H_    0.286641 0.598929 0.868984 0.121958
H12   H     H_    0.312454 0.425064 0.137104 0.128882
H13   H     H_    0.213359 0.098929 0.131016 0.121958
H14   H     H_    0.187546 0.925064 0.862896 0.128882
H15   H     H_    0.786641 0.901070 0.631016 0.121958
H16   H     H_    0.812454 0.074936 0.362896 0.128882
C73   C     C_R   0.880709 0.357576 0.337003 -0.204466
C74   C     C_R   0.791468 0.630508 0.666348 -0.201870
C75   C     C_R   0.119291 0.642424 0.837003 -0.204466
C76   C     C_R   0.208532 0.369492 0.166348 -0.201870
C77   C     C_R   0.380709 0.142424 0.162997 -0.204466
C78   C     C_R   0.291468 0.869492 0.833652 -0.201870
C79   C     C_R   0.619291 0.857576 0.662997 -0.204466
C80   C     C_R   0.708532 0.130508 0.333652 -0.201870
H17   H     H_    0.761308 0.350002 0.318572 0.141955
H18   H     H_    0.682036 0.628526 0.688136 0.138154
H19   H     H_    0.238692 0.649998 0.818572 0.141955
H20   H     H_    0.317964 0.371474 0.188136 0.138153
H21   H     H_    0.261308 0.149998 0.181428 0.141955
H22   H     H_    0.182036 0.871474 0.811864 0.138153
H23   H     H_    0.738692 0.850002 0.681428 0.141955
H24   H     H_    0.817963 0.128526 0.311864 0.138154
C81   C     C_R   0.059002 0.338180 0.331597 -0.072440
C82   C     C_R   0.929255 0.662960 0.667686 -0.068830
C83   C     C_R   0.940998 0.661820 0.831597 -0.072440
C84   C     C_R   0.070745 0.337040 0.167685 -0.068830
C85   C     C_R   0.559002 0.161820 0.168403 -0.072440
C86   C     C_R   0.429255 0.837040 0.832314 -0.068830
C87   C     C_R   0.440998 0.838180 0.668403 -0.072440
C88   C     C_R   0.570745 0.162960 0.332314 -0.068830
C89   C     C_R   0.210931 0.350670 0.355552 -0.219365
C90   C     C_R   0.071378 0.664012 0.639312 -0.217915
C91   C     C_R   0.789069 0.649330 0.855552 -0.219365
C92   C     C_R   0.928622 0.335988 0.139312 -0.217915
C93   C     C_R   0.710931 0.149330 0.144448 -0.219365
C94   C     C_R   0.571378 0.835988 0.860688 -0.217915
C95   C     C_R   0.289069 0.850670 0.644448 -0.219365
C96   C     C_R   0.428622 0.164012 0.360688 -0.217915
H25   H     H_    0.350303 0.336580 0.351369 0.125203
H26   H     H_    0.178945 0.688835 0.640328 0.125692
H27   H     H_    0.649697 0.663420 0.851369 0.125203
H28   H     H_    0.821056 0.311165 0.140327 0.125692
H29   H     H_    0.850303 0.163420 0.148631 0.125203
H30   H     H_    0.678944 0.811165 0.859672 0.125692
H31   H     H_    0.149697 0.836580 0.648631 0.125203
H32   H     H_    0.321055 0.188835 0.359672 0.125692
C97   C     C_R   0.181765 0.380499 0.385659 0.109090
C98   C     C_R   0.072531 0.634043 0.609030 0.112022
C99   C     C_R   0.818234 0.619501 0.885659 0.109090
C100  C     C_R   0.927469 0.365957 0.109030 0.112022
C101  C     C_R   0.681765 0.119501 0.114341 0.109090
C102  C     C_R   0.572531 0.865956 0.890969 0.112021
C103  C     C_R   0.318235 0.880499 0.614341 0.109090
C104  C     C_R   0.427469 0.134043 0.390970 0.112022
C105  C     C_R   0.996698 0.397590 0.391819 0.376611
C106  C     C_R   0.929604 0.601954 0.607708 0.374148
C107  C     C_R   0.003302 0.602410 0.891819 0.376611
C108  C     C_R   0.070396 0.398045 0.107708 0.374148
C109  C     C_R   0.496698 0.102410 0.108181 0.376611
C110  C     C_R   0.429604 0.898045 0.892292 0.374148
C111  C     C_R   0.503302 0.897590 0.608181 0.376611
C112  C     C_R   0.570396 0.101955 0.392292 0.374148
C113  C     C_3   0.081360 0.435064 0.596887 -0.303793
C114  C     C_3   0.291119 0.447196 0.603296 -0.266007
C115  C     C_3   0.361429 0.432083 0.642341 -0.740440
H33   H     H_    0.278069 0.447603 0.665534 0.246065
H34   H     H_    0.347464 0.396794 0.644779 0.221711
H35   H     H_    0.513728 0.440803 0.645843 0.218211
H36   H     H_    0.379842 0.432111 0.580632 0.183747
H37   H     H_    0.311891 0.482332 0.601241 0.219898
H38   H     H_    0.988698 0.443993 0.621295 0.215014
H39   H     H_    0.073174 0.399527 0.596228 0.146872
C116  C     C_3   0.777011 0.561063 0.403112 -0.309422
C117  C     C_3   0.952398 0.577934 0.381663 -0.259295
C118  C     C_3   0.899876 0.593119 0.341514 -0.742843
H40   H     H_    0.841925 0.566124 0.324419 0.246586
H41   H     H_    0.792056 0.619059 0.343058 0.221403
H42   H     H_    0.028745 0.605647 0.326902 0.214403
H43   H     H_    0.014500 0.605187 0.397872 0.179036
H44   H     H_    0.063545 0.552797 0.379380 0.224626
H45   H     H_    0.692407 0.538219 0.385783 0.210862
H46   H     H_    0.677769 0.588350 0.407662 0.144811
C119  C     C_3   0.918640 0.564936 0.096887 -0.303793
C120  C     C_3   0.708882 0.552804 0.103296 -0.266007
C121  C     C_3   0.638572 0.567917 0.142341 -0.740440
H47   H     H_    0.721932 0.552397 0.165534 0.246065
H48   H     H_    0.652537 0.603206 0.144779 0.221711
H49   H     H_    0.486273 0.559197 0.145843 0.218211
H50   H     H_    0.620158 0.567889 0.080632 0.183747
H51   H     H_    0.688109 0.517668 0.101241 0.219898
H52   H     H_    0.011302 0.556007 0.121295 0.215014
H53   H     H_    0.926826 0.600473 0.096228 0.146872
C122  C     C_3   0.222989 0.438937 0.903112 -0.309422
C123  C     C_3   0.047602 0.422066 0.881663 -0.259295
C124  C     C_3   0.100123 0.406881 0.841514 -0.742842
H54   H     H_    0.158075 0.433876 0.824419 0.246586
H55   H     H_    0.207943 0.380940 0.843058 0.221403
H56   H     H_    0.971254 0.394353 0.826902 0.214402
H57   H     H_    0.985500 0.394812 0.897872 0.179036
H58   H     H_    0.936455 0.447203 0.879380 0.224626
H59   H     H_    0.307592 0.461781 0.885783 0.210862
H60   H     H_    0.322231 0.411650 0.907662 0.144811
C125  C     C_3   0.581361 0.064936 0.903113 -0.303794
C126  C     C_3   0.791119 0.052803 0.896703 -0.266007
C127  C     C_3   0.861429 0.067917 0.857659 -0.740441
H61   H     H_    0.778069 0.052397 0.834466 0.246065
H62   H     H_    0.847465 0.103206 0.855221 0.221711
H63   H     H_    0.013728 0.059196 0.854156 0.218212
H64   H     H_    0.879843 0.067889 0.919368 0.183747
H65   H     H_    0.811891 0.017668 0.898759 0.219898
H66   H     H_    0.488698 0.056007 0.878704 0.215014
H67   H     H_    0.573175 0.100473 0.903772 0.146872
C128  C     C_3   0.277011 0.938937 0.096887 -0.309422
C129  C     C_3   0.452398 0.922066 0.118337 -0.259294
C130  C     C_3   0.399876 0.906881 0.158486 -0.742842
H68   H     H_    0.341925 0.933876 0.175581 0.246586
H69   H     H_    0.292056 0.880940 0.156942 0.221402
H70   H     H_    0.528745 0.894353 0.173098 0.214402
H71   H     H_    0.514500 0.894812 0.102128 0.179035
H72   H     H_    0.563545 0.947203 0.120620 0.224626
H73   H     H_    0.192407 0.961781 0.114217 0.210862
H74   H     H_    0.177769 0.911650 0.092338 0.144811
C131  C     C_3   0.418640 0.935064 0.403113 -0.303794
C132  C     C_3   0.208882 0.947196 0.396703 -0.266007
C133  C     C_3   0.138572 0.932083 0.357659 -0.740440
H75   H     H_    0.221932 0.947603 0.334466 0.246065
H76   H     H_    0.152537 0.896794 0.355221 0.221711
H77   H     H_    0.986273 0.940803 0.354156 0.218211
H78   H     H_    0.120158 0.932111 0.419368 0.183747
H79   H     H_    0.188109 0.982331 0.398759 0.219898
H80   H     H_    0.511302 0.943993 0.378704 0.215014
H81   H     H_    0.426826 0.899527 0.403772 0.146872
C134  C     C_3   0.722989 0.061063 0.596888 -0.309422
C135  C     C_3   0.547603 0.077934 0.618337 -0.259295
C136  C     C_3   0.600124 0.093119 0.658486 -0.742843
H82   H     H_    0.658075 0.066124 0.675581 0.246586
H83   H     H_    0.707945 0.119059 0.656941 0.221403
H84   H     H_    0.471255 0.105647 0.673098 0.214403
H85   H     H_    0.485501 0.105188 0.602128 0.179036
H86   H     H_    0.436455 0.052797 0.620620 0.224626
H87   H     H_    0.807593 0.038219 0.614217 0.210862
H88   H     H_    0.822232 0.088350 0.592338 0.144811
C137  C     C_3   0.346274 0.392955 0.411490 -0.347020
C138  C     C_3   0.392329 0.441337 0.409687 -0.315690
C139  C     C_3   0.444104 0.459149 0.449020 -0.748832
H89   H     H_    0.322300 0.456408 0.468958 0.230706
H90   H     H_    0.566135 0.441247 0.461180 0.234249
H91   H     H_    0.481480 0.493505 0.446470 0.218910
H92   H     H_    0.511617 0.447465 0.389801 0.199771
H93   H     H_    0.272582 0.460272 0.398109 0.217914
H94   H     H_    0.312362 0.383061 0.441190 0.219945
H95   H     H_    0.475572 0.374391 0.404112 0.155775
C140  C     C_3   0.225553 0.637031 0.578475 -0.336178
C141  C     C_3   0.363638 0.598706 0.579556 -0.306490
C142  C     C_3   0.388576 0.577686 0.540377 -0.711660
H96   H     H_    0.251342 0.565472 0.529459 0.219420
H97   H     H_    0.446976 0.601006 0.519473 0.250800
H98   H     H_    0.487553 0.550157 0.542900 0.207637
H99   H     H_    0.504665 0.610421 0.588986 0.211443
H100  H     H_    0.317447 0.573989 0.600462 0.206633
H101  H     H_    0.158302 0.640491 0.549931 0.218045
H102  H     H_    0.310017 0.666826 0.582329 0.159306
C143  C     C_3   0.653725 0.607045 0.911490 -0.347020
C144  C     C_3   0.607671 0.558663 0.909687 -0.315690
C145  C     C_3   0.555896 0.540851 0.949020 -0.748832
H103  H     H_    0.677699 0.543592 0.968958 0.230706
H104  H     H_    0.433865 0.558753 0.961180 0.234249
H105  H     H_    0.518520 0.506494 0.946469 0.218911
H106  H     H_    0.488382 0.552535 0.889801 0.199771
H107  H     H_    0.727418 0.539728 0.898109 0.217914
H108  H     H_    0.687638 0.616939 0.941190 0.219944
H109  H     H_    0.524428 0.625609 0.904112 0.155775
C146  C     C_3   0.774447 0.362969 0.078475 -0.336178
C147  C     C_3   0.636362 0.401294 0.079556 -0.306490
C148  C     C_3   0.611424 0.422314 0.040377 -0.711660
H110  H     H_    0.748658 0.434528 0.029460 0.219420
H111  H     H_    0.553024 0.398994 0.019473 0.250800
H112  H     H_    0.512447 0.449843 0.042900 0.207637
H113  H     H_    0.495335 0.389579 0.088986 0.211443
H114  H     H_    0.682553 0.426011 0.100462 0.206633
H115  H     H_    0.841698 0.359509 0.049931 0.218045
H116  H     H_    0.689984 0.333174 0.082329 0.159306
C149  C     C_3   0.846275 0.107045 0.088510 -0.347020
C150  C     C_3   0.892329 0.058663 0.090313 -0.315690
C151  C     C_3   0.944104 0.040851 0.050980 -0.748830
H117  H     H_    0.822301 0.043592 0.031041 0.230705
H118  H     H_    0.066135 0.058753 0.038820 0.234248
H119  H     H_    0.981480 0.006494 0.053530 0.218910
H120  H     H_    0.011618 0.052535 0.110199 0.199771
H121  H     H_    0.772582 0.039727 0.101891 0.217914
H122  H     H_    0.812362 0.116939 0.058810 0.219945
H123  H     H_    0.975572 0.125609 0.095888 0.155775
C152  C     C_3   0.725553 0.862969 0.921525 -0.336177
C153  C     C_3   0.863638 0.901293 0.920444 -0.306490
C154  C     C_3   0.888576 0.922314 0.959623 -0.711660
H124  H     H_    0.751342 0.934527 0.970540 0.219420
H125  H     H_    0.946976 0.898994 0.980527 0.250800
H126  H     H_    0.987553 0.949843 0.957100 0.207637
H127  H     H_    0.004665 0.889579 0.911014 0.211443
H128  H     H_    0.817447 0.926011 0.899538 0.206633
H129  H     H_    0.658302 0.859509 0.950069 0.218045
H130  H     H_    0.810016 0.833174 0.917671 0.159305
C155  C     C_3   0.153726 0.892955 0.588510 -0.347020
C156  C     C_3   0.107671 0.941337 0.590313 -0.315690
C157  C     C_3   0.055896 0.959149 0.550980 -0.748832
H131  H     H_    0.177700 0.956408 0.531042 0.230705
H132  H     H_    0.933865 0.941247 0.538820 0.234249
H133  H     H_    0.018520 0.993505 0.553530 0.218910
H134  H     H_    0.988383 0.947465 0.610199 0.199771
H135  H     H_    0.227418 0.960272 0.601891 0.217914
H136  H     H_    0.187638 0.883061 0.558810 0.219945
H137  H     H_    0.024428 0.874391 0.595888 0.155775
C158  C     C_3   0.274447 0.137031 0.421525 -0.336178
C159  C     C_3   0.136362 0.098706 0.420444 -0.306489
C160  C     C_3   0.111423 0.077686 0.459623 -0.711659
H138  H     H_    0.248658 0.065472 0.470540 0.219420
H139  H     H_    0.053024 0.101006 0.480527 0.250800
H140  H     H_    0.012447 0.050157 0.457100 0.207637
H141  H     H_    0.995335 0.110421 0.411013 0.211443
H142  H     H_    0.182553 0.073989 0.399538 0.206633
H143  H     H_    0.341698 0.140491 0.450069 0.218045
H144  H     H_    0.189983 0.166826 0.417671 0.159306

loop_
_geom_bond_atom_site_label_1
_geom_bond_atom_site_label_2
_ccdc_geom_bond_type
C133  H76   S    
C135  H85   S    
C122  C123  S    
C10   N2    A    
O15   V4    S    
C155  C156  S    
O16   V3    S    
C147  H114  S    
C53   C125  S    
C146  H115  S    
C141  C142  S    
C26   C50   A    
C21   O33   S    
C124  H56   S    
C113  H38   S    
C129  C130  S    
C30   C38   A    
C138  C139  S    
C1    C88   S    
C2    C87   S    
C156  H134  S    
C153  C154  S    
C80   C88   A    
C115  H35   S    
C65   H9    S    
C74   C82   A    
C79   H23   S    
C141  H100  S    
C130  H68   S    
C78   C86   A    
N1    C17   A    
C68   C76   A    
O17   V1    S    
C57   H1    S    
C94   H30   S    
O19   V3    S    
C152  C153  S    
O20   V4    S    
C25   C33   A    
C157  H132  S    
C14   C46   A    
C63   H7    S    
C150  C151  S    
C81   C89   A    
C121  H47   S    
C119  H53   S    
O10   V2    S    
C146  C147  S    
C144  H106  S    
C158  H144  S    
O12   C4    A    
C73   C81   A    
C71   C79   A    
C160  H140  S    
C15   O27   S    
C72   C80   A    
C29   C53   A    
C76   C84   A    
C9    C41   A    
O6    V2    S    
C31   C39   A    
C12   N4    A    
C89   C97   A    
C122  H60   S    
C15   N7    A    
C131  H80   S    
C16   N8    A    
C159  H141  S    
O1    C4    A    
C23   O35   S    
O2    C3    A    
C27   C51   A    
C52   C122  S    
C140  H102  S    
O7    C6    A    
C51   C59   A    
C137  H94   S    
C47   C64   A    
C142  H97   S    
C120  H51   S    
C123  H57   S    
C144  C145  S    
C132  H78   S    
O10   C2    A    
C87   C95   A    
C9    O21   S    
C58   H2    S    
C37   C38   A    
C49   C113  S    
C115  H33   S    
C98   C106  A    
C70   H14   S    
C19   O31   S    
C113  C114  S    
C130  H70   S    
C102  C110  A    
O17   V3    S    
O18   V4    S    
O12   V1    S    
O19   V1    S    
C37   C45   A    
C94   C102  A    
C39   C47   A    
C145  H104  S    
C30   C54   A    
O8    V1    S    
C41   C58   A    
C131  C132  S    
C66   C106  A    
C34   C42   A    
C67   C75   A    
C45   C62   A    
O1    V3    S    
C17   C25   A    
C22   O34   S    
O2    V4    S    
C65   C73   A    
N7    C112  S    
C154  H125  S    
N8    C111  S    
C20   C28   A    
C27   C35   A    
C21   C29   A    
C114  H37   S    
C69   C77   A    
C135  C136  S    
C148  H111  S    
C23   C31   A    
C24   C32   A    
C11   N3    A    
C125  C126  S    
C89   H25   S    
N4    C20   A    
C134  H87   S    
N5    C21   A    
C116  H45   S    
O3    V4    S    
C61   H5    S    
O8    C5    A    
C6    C83   S    
C118  H41   S    
C128  H73   S    
C129  H71   S    
C138  H92   S    
C139  H91   S    
C121  H49   S    
C85   C93   A    
C68   C108  A    
C156  C157  S    
C83   C91   A    
C153  H127  S    
C71   C111  A    
C157  H131  S    
C72   C112  A    
C143  C144  S    
C75   C83   A    
C126  H65   S    
C48   C63   A    
C136  H83   S    
N2    C18   A    
N2    C105  S    
C155  H137  S    
O18   V2    S    
C91   C99   A    
C127  H63   S    
C92   H28   S    
C35   C43   A    
N6    C109  S    
C143  H108  S    
C95   H31   S    
O9    C1    A    
C150  H120  S    
C96   H32   S    
C101  C149  S    
C147  C148  S    
C151  H119  S    
C135  H86   S    
C3    C86   S    
C82   C90   A    
C36   C44   A    
C119  H52   S    
O14   C6    A    
C39   C40   A    
C40   C48   A    
C13   O25   S    
C62   H6    S    
C74   H18   S    
C124  H55   S    
N1    C106  S    
C90   C98   A    
C44   C59   A    
C156  H135  S    
C125  H67   S    
C152  H129  S    
C117  C118  S    
C140  C141  S    
C152  H130  S    
C52   C60   A    
C115  H34   S    
C56   C64   A    
C139  H89   S    
C149  H123  S    
C116  C117  S    
C123  C124  S    
C97   C137  S    
C134  C135  S    
C119  C120  S    
C88   C96   A    
O11   C3    A    
C73   H17   S    
C71   H15   S    
C72   H16   S    
C50   C116  S    
C99   C107  A    
C69   H13   S    
C128  C129  S    
C97   C105  A    
C100  C108  A    
C101  C109  A    
O11   V2    S    
C54   C128  S    
C158  H143  S    
C117  H43   S    
C127  H61   S    
C104  C112  A    
C160  H139  S    
C91   H27   S    
C92   C100  A    
C49   C57   A    
C114  C115  S    
C133  H77   S    
C151  H117  S    
O7    V2    S    
C122  H59   S    
C147  H113  S    
C103  C155  S    
C159  H142  S    
C35   C36   A    
C18   C26   A    
C66   C74   A    
C145  H103  S    
C17   O29   S    
C22   C30   A    
C140  H101  S    
C13   C45   A    
C70   C78   A    
C113  H39   S    
C15   C47   A    
C132  C133  S    
C123  H58   S    
C90   H26   S    
C132  H79   S    
C98   C140  S    
C11   C43   A    
N6    C22   A    
C12   O24   S    
C10   C42   A    
O4    C1    A    
C141  H99   S    
C4    C85   S    
C130  H69   S    
C99   C143  S    
C126  C127  S    
C137  H95   S    
C8    C81   S    
C86   C94   A    
C102  C152  S    
C67   H11   S    
O13   V3    S    
O14   V4    S    
C157  H133  S    
C79   C87   A    
C50   C58   A    
C9    N1    A    
C78   H22   S    
N3    C19   A    
C149  C150  S    
N3    C108  S    
C10   O22   S    
C59   H3    S    
C154  H124  S    
O4    V3    S    
C55   C131  S    
C28   C36   A    
C80   H24   S    
C148  H110  S    
C7    C82   S    
C18   O30   S    
C93   H29   S    
C32   C56   A    
C146  H116  S    
C131  H81   S    
C158  C159  S    
C38   C46   A    
C76   H20   S    
C77   H21   S    
C118  H40   S    
C100  C146  S    
C75   H19   S    
C142  H96   S    
C129  H72   S    
C138  H93   S    
C42   C57   A    
C139  H90   S    
C142  H98   S    
C120  H50   S    
C121  H48   S    
C46   C61   A    
C153  H128  S    
C33   C41   A    
O3    C2    A    
C70   C110  A    
C54   C62   A    
C26   C34   A    
C95   C103  A    
C96   C104  A    
C16   C48   A    
C12   C44   A    
C136  H82   S    
O9    V1    S    
O15   C7    A    
C155  H136  S    
O16   C8    A    
C127  H62   S    
C53   C61   A    
C11   O23   S    
C51   C119  S    
C68   H12   S    
C145  H105  S    
O5    V1    S    
C150  H121  S    
C151  H118  S    
C14   N6    A    
O13   C5    A    
C120  C121  S    
N4    C107  S    
C55   C63   A    
C154  H126  S    
C144  H107  S    
C16   O28   S    
C60   H4    S    
N5    C110  S    
C114  H36   S    
C148  H112  S    
C124  H54   S    
C159  C160  S    
C84   C92   A    
C43   C60   A    
C77   C85   A    
C125  H66   S    
C134  H88   S    
C25   C49   A    
C116  H46   S    
C19   C27   A    
C133  H75   S    
N7    C23   A    
C118  H42   S    
C29   C37   A    
N8    C24   A    
C104  C158  S    
C128  H74   S    
C31   C55   A    
C64   H8    S    
C149  H122  S    
C103  C111  A    
C93   C101  A    
O20   V2    S    
C160  H138  S    
C14   O26   S    
C28   C52   A    
O5    C8    A    
O6    C7    A    
C5    C84   S    
C24   O36   S    
C126  H64   S    
C32   C40   A    
C67   C107  A    
C136  H84   S    
C65   C105  A    
C20   O32   S    
C33   C34   A    
C117  H44   S    
C69   C109  A    
C143  H109  S    
C13   N5    A    
C66   H10   S    
C56   C134  S    
C137  C138  S    
