data_mof_unit_14113.cif
_audit_creation_date              2013-03-05T15:53:04-0500
_audit_creation_method            fapswitch 2.2
_symmetry_space_group_name_H-M    P1
_symmetry_Int_Tables_number       1
_space_group_crystal_system       triclinic
_cell_length_a                    6.95266
_cell_length_b                    20.455143
_cell_length_c                    24.446193
_cell_angle_alpha                 89.573809
_cell_angle_beta                  90.520212
_cell_angle_gamma                 89.265539
_cell_volume                      3476.15207267

loop_
_atom_site_label
_atom_site_type_symbol
_atom_site_description
_atom_site_fract_x
_atom_site_fract_y
_atom_site_fract_z
_atom_type_partial_charge
O1    O     O_R   0.507320 0.423560 0.460500 -0.591688
O2    O     O_R   0.170760 0.556250 0.437010 -0.590625
O3    O     O_R   0.004030 0.576440 0.539500 -0.589549
C1    C     C_R   0.338454 0.576271 0.421035 0.974182
O4    O     O_R   0.177370 0.422820 0.454110 -0.596533
O5    O     O_R   0.010680 0.442050 0.556720 -0.590892
C2    C     C_R   0.346732 0.398982 0.443474 0.921030
O6    O     O_R   0.500680 0.557950 0.443280 -0.588161
O7    O     O_3   0.340380 0.506470 0.533650 -0.267400
V1    V     V_3+5 0.064130 0.498800 0.493760 1.161597
O8    O     O_R   0.681160 0.443750 0.562990 -0.584438
C3    C     C_R   0.851129 0.423738 0.578875 0.963905
O9    O     O_R   0.674560 0.577180 0.545890 -0.591500
C4    C     C_R   0.842660 0.600961 0.556601 0.923935
V2    V     V_3+5 0.564560 0.501200 0.506240 1.169477
O10   O     O_3   0.838180 0.493530 0.466350 -0.272712
C5    C     C_R   0.978979 0.837368 0.912409 -0.157720
C6    C     C_R   0.849635 0.660373 0.590414 -0.137266
C7    C     C_R   0.067299 0.722363 0.907964 0.351838
C8    C     C_R   0.048941 0.780372 0.937376 -0.229058
C9    C     C_R   0.924442 0.836719 0.857048 -0.238827
C10   C     C_R   0.948537 0.779519 0.824754 0.096686
C11   C     C_R   0.024362 0.722267 0.851081 -0.017398
C12   C     C_R   0.906678 0.777865 0.766964 0.089744
C13   C     C_R   0.936431 0.718665 0.736778 0.059789
C14   C     C_R   0.029855 0.666127 0.763882 -0.187199
C15   C     C_R   0.069287 0.667427 0.819532 -0.124901
C16   C     C_R   0.843940 0.834133 0.737863 -0.202270
C17   C     C_R   0.816922 0.833295 0.681598 -0.232587
C18   C     C_R   0.837932 0.775576 0.652169 0.165758
C19   C     C_R   0.886477 0.715957 0.679437 0.090278
C20   C     C_R   0.807099 0.777429 0.595439 -0.178051
C21   C     C_R   0.817346 0.720656 0.564806 -0.180436
C22   C     C_R   0.877304 0.656937 0.647964 -0.060860
H1    H     H_    0.144034 0.625491 0.837120 0.188327
H2    H     H_    0.793269 0.723466 0.520984 0.113077
H3    H     H_    0.775555 0.878473 0.660908 0.130677
H4    H     H_    0.088472 0.781028 0.980372 0.166347
H5    H     H_    0.870559 0.882270 0.840293 0.107487
H6    H     H_    0.086364 0.624490 0.742400 0.158768
H7    H     H_    0.820308 0.880713 0.756976 0.129582
H8    H     H_    0.773975 0.823216 0.574590 0.116805
C23   C     C_3   0.772886 0.292547 0.761103 0.388078
C24   C     C_3   0.953438 0.282585 0.797150 -0.201754
H9    H     H_    0.985968 0.309277 0.835438 0.171565
H10   H     H_    0.214791 0.308571 0.739050 0.195104
C25   C     C_1   0.960053 0.121955 0.875517 -0.296401
C26   C     C_1   0.864149 0.378430 0.624733 -0.272591
C27   C     C_3   0.743796 0.218382 0.756746 -0.263956
C28   C     C_3   0.927918 0.208037 0.791714 0.169006
C29   C     C_3   0.868647 0.218469 0.704209 -0.210411
C30   C     C_3   0.893909 0.293127 0.709189 0.053919
C31   C     C_3   0.052605 0.207254 0.739820 -0.124773
C32   C     C_3   0.077364 0.282405 0.744433 -0.158386
C33   C     C_1   0.946574 0.160585 0.837641 0.020296
C34   C     C_1   0.876923 0.340140 0.662858 0.087595
H11   H     H_    0.169718 0.171505 0.731191 0.117622
H12   H     H_    0.834451 0.192095 0.665884 0.135904
H13   H     H_    0.605163 0.192862 0.762105 0.141049
C35   C     C_3   0.518580 0.720662 0.211853 0.361475
C36   C     C_3   0.321634 0.694821 0.230744 -0.244902
H14   H     H_    0.245973 0.651462 0.214614 0.177196
C37   C     C_1   0.347163 0.621620 0.375028 -0.303715
C38   C     C_1   0.477254 0.877895 0.124611 -0.267790
C39   C     C_3   0.585807 0.730527 0.271696 -0.292656
C40   C     C_3   0.385889 0.706737 0.290860 0.153655
C41   C     C_3   0.501250 0.800757 0.267981 0.023227
C42   C     C_3   0.440767 0.791381 0.207950 0.020373
C43   C     C_3   0.303792 0.777789 0.288840 -0.191484
C44   C     C_3   0.246328 0.766350 0.228427 -0.000488
C45   C     C_1   0.361395 0.659874 0.336946 0.033333
C46   C     C_1   0.463669 0.839125 0.162334 0.087156
H15   H     H_    0.213978 0.802164 0.320187 0.119912
H16   H     H_    0.727044 0.715894 0.289790 0.143579
C47   C     C_R   0.472169 0.162942 0.087352 -0.122814
C48   C     C_R   0.357087 0.338718 0.410489 -0.184188
C49   C     C_R   0.541571 0.278409 0.092810 -0.187262
C50   C     C_R   0.527990 0.221339 0.061827 0.027900
C51   C     C_R   0.428097 0.162435 0.143421 -0.272258
C52   C     C_R   0.445624 0.219708 0.175818 0.114795
C53   C     C_R   0.503496 0.277837 0.149068 0.152313
C54   C     C_R   0.413346 0.221088 0.233858 0.065527
C55   C     C_R   0.429630 0.281386 0.263343 0.063242
C56   C     C_R   0.499594 0.336194 0.234791 -0.180001
C57   C     C_R   0.531504 0.334761 0.178888 -0.207224
C58   C     C_R   0.374620 0.163682 0.263803 -0.195441
C59   C     C_R   0.358015 0.164499 0.320272 -0.219119
C60   C     C_R   0.366431 0.222929 0.349187 0.135351
C61   C     C_R   0.390058 0.283311 0.321189 0.090931
C62   C     C_R   0.349245 0.220717 0.406216 -0.189117
C63   C     C_R   0.349835 0.277602 0.436990 0.017130
C64   C     C_R   0.368960 0.342074 0.352563 -0.066113
H17   H     H_    0.584200 0.378488 0.158989 0.160553
H18   H     H_    0.335899 0.118572 0.341606 0.127192
H19   H     H_    0.586174 0.323327 0.073106 0.138501
H20   H     H_    0.384960 0.116258 0.160508 0.108261
H21   H     H_    0.543436 0.380092 0.255069 0.158834
H22   H     H_    0.364302 0.116369 0.245110 0.127175
H23   H     H_    0.335991 0.174143 0.427262 0.123993
O11   O     O_R   0.323550 0.942140 0.056770 -0.590333
O12   O     O_R   0.647080 0.077200 0.045890 -0.587853
O13   O     O_R   0.813610 0.057920 0.943260 -0.588251
C65   C     C_R   0.478034 0.101254 0.056376 0.935647
O14   O     O_R   0.653470 0.943760 0.063000 -0.586800
O15   O     O_R   0.820050 0.923540 0.960490 -0.585486
C66   C     C_R   0.485794 0.923663 0.078908 0.980770
O16   O     O_R   0.317110 0.076520 0.039540 -0.594120
O17   O     O_3   0.483830 0.993580 0.966380 -0.272828
V3    V     V_3+5 0.760140 0.001190 0.006240 1.180265
O18   O     O_R   0.149510 0.922740 0.954070 -0.591994
C67   C     C_R   0.981661 0.898718 0.943642 0.960713
O19   O     O_R   0.143120 0.056170 0.936970 -0.593809
C68   C     C_R   0.973174 0.076327 0.921169 0.978676
V4    V     V_3+5 0.259690 0.998700 0.993700 1.173759
O20   O     O_3   0.986130 0.006420 0.033620 -0.274526
N1    N     N_R   0.618371 0.338466 0.774149 0.228792
O21   O     O_R   0.525585 0.332077 0.819783 -0.401545
O22   O     O_R   0.571915 0.385746 0.740524 -0.409760
N2    N     N_R   0.636310 0.688015 0.171052 0.239085
O23   O     O_R   0.696542 0.628359 0.179686 -0.375738
O24   O     O_R   0.682590 0.718119 0.126120 -0.379936
N3    N     N_3   0.061711 0.786402 0.204828 -0.198444
H24   H     H_    0.955899 0.760113 0.225074 0.134412
H25   H     H_    0.059726 0.771016 0.164164 0.170933
N4    N     N_3   0.873335 0.594016 0.674234 -0.208600
H26   H     H_    0.983943 0.564919 0.658339 0.105488
H27   H     H_    0.742073 0.572045 0.665057 0.130143
N5    N     N_3   0.601025 0.857963 0.288208 -0.209954
H28   H     H_    0.619842 0.851685 0.330387 0.105987
H29   H     H_    0.508628 0.898199 0.282598 0.104257
N6    N     N_3   0.338577 0.404247 0.326099 -0.213982
H30   H     H_    0.443186 0.436575 0.340064 0.095826
H31   H     H_    0.203361 0.422567 0.337089 0.122852
N7    N     N_3   0.336953 0.272173 0.495338 -0.215864
H32   H     H_    0.213898 0.297577 0.508002 0.106962
H33   H     H_    0.457366 0.294423 0.512694 0.105530
N8    N     N_3   0.574031 0.221933 0.004588 -0.205525
H34   H     H_    0.446761 0.213599 0.982765 0.112763
H35   H     H_    0.621648 0.268078 0.992512 0.135613
N9    N     N_R   0.130448 0.664162 0.936566 0.237264
O25   O     O_R   0.261530 0.667698 0.974737 -0.339954
O26   O     O_R   0.034335 0.610331 0.931520 -0.348554

loop_
_geom_bond_atom_site_label_1
_geom_bond_atom_site_label_2
_geom_bond_distance
_ccdc_geom_bond_type
C36   C44   1.548121 S    
C13   C19   1.442738 A    
C59   C60   1.394698 A    
C4    C6    1.475892 S    
O2    C1    1.302962 A    
C7    C8    1.397055 A    
C1    O6    1.297429 A    
N5    H28   1.044962 S    
C21   H2    1.083781 S    
C27   C29   1.556679 S    
O14   C66   1.302862 A    
V4    O20   2.150136 S    
C49   C50   1.400006 A    
N1    O21   1.300326 A    
C41   C43   1.546338 S    
N8    H35   1.045644 S    
C1    C37   1.454739 S    
C14   C15   1.385852 A    
C56   H21   1.075104 S    
C16   C17   1.386803 A    
N9    O26   1.301388 A    
O5    C3    1.297209 A    
O14   V3    1.967778 S    
C23   C30   1.529118 S    
C40   C43   1.554897 S    
O12   V3    1.994929 S    
V2    O10   2.150100 S    
C59   H18   1.084470 S    
C16   H7    1.075709 S    
C5    C8    1.392083 A    
O17   V3    2.154125 S    
C35   N2    1.456540 S    
C25   C68   1.451005 S    
O17   V4    1.703319 S    
O18   C67   1.295945 A    
C57   H17   1.084471 S    
C36   C40   1.554014 S    
C40   C45   1.486204 S    
C7    N9    1.437929 S    
C39   C41   1.546930 S    
C43   H15   1.110034 S    
O1    V2    1.991334 S    
C11   C15   1.399637 A    
O7    V1    2.154186 S    
O18   V4    1.994755 S    
C3    C26   1.450656 S    
O15   C67   1.298788 A    
O12   C65   1.296799 A    
O9    C4    1.296943 A    
C47   C65   1.476745 S    
C36   H14   1.110062 S    
O8    V2    1.973258 S    
C5    C67   1.474022 S    
O19   V4    1.973075 S    
O19   C68   1.300834 A    
C47   C50   1.404289 A    
C30   C32   1.545117 S    
N2    O24   1.300274 A    
N9    O25   1.301453 A    
C55   C61   1.443803 A    
C28   C31   1.543084 S    
C29   C30   1.545012 S    
C64   N6    1.434898 S    
O11   V4    1.964871 S    
C12   C13   1.436451 A    
C52   C54   1.438933 A    
O4    C2    1.297933 A    
C31   H11   1.110110 S    
C58   C59   1.386515 A    
C23   C27   1.537388 S    
N7    H33   1.046056 S    
C15   H1    1.081583 S    
C13   C14   1.406967 A    
C54   C58   1.409315 A    
C49   H19   1.084361 S    
C5    C9    1.402361 A    
C39   H16   1.110017 S    
C41   C42   1.536970 S    
C35   C36   1.547270 S    
C29   C31   1.554223 S    
C7    C11   1.419627 A    
C23   C24   1.537705 S    
O16   V4    1.995933 S    
C17   C18   1.393907 A    
N4    H27   1.045697 S    
C23   N1    1.457009 S    
C8    H4    1.084216 S    
C44   N3    1.455399 S    
C55   C56   1.410402 A    
C9    H5    1.076508 S    
C49   C53   1.402905 A    
C42   C46   1.487835 S    
H10   C32   1.109545 S    
C19   C22   1.438201 A    
C29   H12   1.110024 S    
C56   C57   1.386947 A    
C61   C64   1.437285 A    
C38   C66   1.454411 S    
C6    C22   1.419324 A    
N7    H32   1.045784 S    
O3    C4    1.297053 A    
C48   C64   1.420430 A    
C60   C62   1.400781 A    
C35   C39   1.547183 S    
C39   C40   1.553721 S    
O6    V2    1.965069 S    
O9    V2    1.994827 S    
N4    H26   1.045840 S    
C10   C12   1.440542 A    
N3    H25   1.044974 S    
N6    H30   1.045940 S    
O2    V1    1.967744 S    
C50   N8    1.438253 S    
C62   H23   1.084717 S    
C24   H9    1.110089 S    
C25   C33   1.214973 T    
C24   C28   1.544009 S    
C26   C34   1.214849 T    
O15   V3    1.991257 S    
O1    C2    1.296791 A    
C12   C16   1.410823 A    
C37   C45   1.217202 T    
C52   C53   1.417327 A    
N6    H31   1.045685 S    
N5    H29   1.045009 S    
O5    V1    1.961993 S    
N2    O23   1.300172 A    
C31   C32   1.553851 S    
C2    C48   1.479369 S    
N8    H34   1.045615 S    
O11   C66   1.297352 A    
C28   C33   1.482364 S    
C27   H13   1.110351 S    
C20   C21   1.387897 A    
O7    V2    1.704620 S    
O4    V1    1.994939 S    
O13   C68   1.297196 A    
V1    O10   1.707282 S    
C41   N5    1.455409 S    
C18   C20   1.401542 A    
C14   H6    1.075802 S    
C62   C63   1.390330 A    
C18   C19   1.420834 A    
C63   N7    1.433575 S    
C22   N4    1.434786 S    
N1    O22   1.300271 A    
C38   C46   1.216923 T    
C43   C44   1.546709 S    
C58   H22   1.076263 S    
C6    C21   1.393444 A    
V3    O20   1.707192 S    
C48   C63   1.405423 A    
C51   C52   1.424888 A    
C24   C32   1.556708 S    
C51   H20   1.077164 S    
C60   C61   1.419736 A    
C35   C42   1.539910 S    
C42   C44   1.538348 S    
C27   C28   1.544275 S    
C17   H3    1.084493 S    
O3    V1    1.991226 S    
C20   H8    1.084067 S    
C10   C11   1.424910 A    
O13   V3    1.962164 S    
C65   O16   1.298630 A    
C54   C55   1.438388 A    
N3    H24   1.043138 S    
C9    C10   1.425291 A    
C47   C51   1.407214 A    
C53   C57   1.393189 A    
C30   C34   1.483239 S    
O8    C3    1.300677 A    
