data_mof_unit_32510.cif
_audit_creation_date              2013-03-05T15:43:10-0500
_audit_creation_method            fapswitch 2.2
_symmetry_space_group_name_H-M    P1
_symmetry_Int_Tables_number       1
_space_group_crystal_system       triclinic
_cell_length_a                    12.930761
_cell_length_b                    10.633521
_cell_length_c                    10.059901
_cell_angle_alpha                 92.851772
_cell_angle_beta                  98.083146
_cell_angle_gamma                 91.058768
_cell_volume                      1367.33930211

loop_
_atom_site_label
_atom_site_type_symbol
_atom_site_description
_atom_site_fract_x
_atom_site_fract_y
_atom_site_fract_z
_atom_type_partial_charge
O1    O     O_R   0.499980 0.319060 0.613040 -0.613953
O2    O     O_R   0.500020 0.319100 0.386900 -0.553962
C1    C     C_R   0.498537 0.262222 0.496378 0.878820
O3    O     O_R   0.346340 0.499960 0.594380 -0.571059
O4    O     O_R   0.346380 0.500000 0.368250 -0.546541
C2    C     C_R   0.298179 0.491950 0.471926 1.014502
Zn1   Zn    Zn3+2 0.499980 0.499970 0.650990 1.115020
Zn2   Zn    Zn3+2 0.500020 0.500030 0.349010 1.178477
O5    O     O_R   0.499980 0.680900 0.613100 -0.568906
O6    O     O_R   0.500020 0.680940 0.386960 -0.596216
O7    O     O_R   0.653620 0.500000 0.631750 -0.610415
O8    O     O_R   0.653660 0.500040 0.405620 -0.574775
C3    C     C_R   0.510794 0.736975 0.505504 1.009466
C4    C     C_R   0.701802 0.496701 0.526751 0.923483
C5    C     C_R   0.814214 0.486884 0.542825 -0.207090
C6    C     C_R   0.185266 0.475218 0.453234 -0.338296
C7    C     C_R   0.023997 0.364198 0.357406 0.251659
C8    C     C_R   0.132357 0.379176 0.363730 0.270609
C9    C     C_R   0.131353 0.546154 0.542133 0.368907
C10   C     C_R   0.029502 0.508102 0.556085 -0.121028
C11   C     C_R   0.971617 0.432830 0.450224 -0.188758
C12   C     C_R   0.862390 0.431123 0.438258 0.320547
C13   C     C_R   0.873842 0.536468 0.660617 -0.225289
C14   C     C_R   0.981863 0.546723 0.669153 0.385608
H1    H     H_    0.836211 0.570261 0.744730 0.238361
C15   C     C_2   0.576871 0.932828 0.430127 0.339341
C16   C     C_2   0.535563 0.868714 0.521898 -0.311597
H2    H     H_    0.513848 0.916969 0.611425 0.188064
C17   C     C_2   0.571355 0.069116 0.439841 -0.287376
C18   C     C_2   0.490605 0.128603 0.483141 0.130779
H3    H     H_    0.638428 0.122451 0.416998 0.216911
C19   C     C_2   0.538897 0.592416 0.936894 0.335281
N1    N     N_2   0.501130 0.501330 0.852280 -0.208109
H4    H     H_    0.494090 0.413701 0.889044 0.203398
C20   C     C_2   0.552002 0.580919 0.086690 -0.043261
N2    N     N_2   0.501160 0.501360 0.147950 -0.032371
H5    H     H_    0.608948 0.643630 0.147228 0.210702
N3    N     N_R   0.800724 0.385718 0.314461 0.239408
O9    O     O_R   0.799666 0.449604 0.207256 -0.309636
O10   O     O_R   0.739034 0.287316 0.311495 -0.345214
N4    N     N_R   0.391438 0.068207 0.493472 0.221095
O11   O     O_R   0.333871 0.113674 0.579696 -0.310792
O12   O     O_R   0.349676 0.986188 0.399984 -0.280434
N5    N     N_R   0.577203 0.705992 0.888504 0.235025
O13   O     O_R   0.548959 0.814059 0.935917 -0.285533
O14   O     O_R   0.657907 0.702311 0.824673 -0.347252
N6    N     N_R   0.408806 0.449574 0.077571 0.273027
O15   O     O_R   0.393428 0.328163 0.071694 -0.269839
O16   O     O_R   0.331708 0.521872 0.037276 -0.262292
N7    N     N_R   0.969328 0.268693 0.266747 0.274907
O17   O     O_R   0.959228 0.280370 0.137414 -0.232636
O18   O     O_R   0.934002 0.166966 0.313619 -0.250699
N8    N     N_R   0.042404 0.583087 0.796600 0.254160
O19   O     O_R   0.122789 0.517624 0.841226 -0.255359
O20   O     O_R   0.006829 0.664912 0.878286 -0.270176
S1    S     S_3+6 0.194916 0.276637 0.255568 0.159279
O21   O     O_2   0.183430 0.329981 0.118927 -0.152813
O22   O     O_2   0.307773 0.262073 0.305908 -0.266169
O23   O     O_3   0.139156 0.131459 0.241529 -0.428401
H6    H     H_    0.172008 0.085454 0.170985 0.418117
S2    S     S_3+6 0.181241 0.698738 0.607130 0.121737
O24   O     O_2   0.251726 0.688070 0.738054 -0.197584
O25   O     O_2   0.242584 0.756483 0.508254 -0.254179
O26   O     O_3   0.082416 0.794008 0.631505 -0.486337
H7    H     H_    0.116667 0.874370 0.670018 0.419836
N9    N     N_R   0.633154 0.873628 0.331302 0.231854
O27   O     O_R   0.639468 0.927925 0.219541 -0.251008
O28   O     O_R   0.694909 0.781353 0.363719 -0.373026

loop_
_geom_bond_atom_site_label_1
_geom_bond_atom_site_label_2
_geom_bond_distance
_ccdc_geom_bond_type
C7    N7    1.436265 S    
O4    Zn2   2.022990 S    
N7    O18   1.301604 A    
C13   C14   1.389252 A    
C18   N4    1.442650 S    
C17   C18   1.343524 D    
C15   C17   1.451400 S    
C1    C18   1.420904 S    
N4    O12   1.301885 A    
N4    O11   1.301306 A    
C15   N9    1.439598 S    
N9    O28   1.301660 A    
C20   N2    1.293429 D    
S1    O23   1.682715 S    
C8    S1    1.785860 S    
Zn2   O8    1.988226 S    
C19   N1    1.297976 D    
C10   C11   1.415593 A    
C9    C10   1.398521 A    
N8    O20   1.301498 A    
C7    C8    1.399429 A    
C19   N5    1.430073 S    
O23   H6    0.990605 S    
N6    O16   1.301885 A    
C6    C8    1.425205 A    
O1    Zn1   1.942508 S    
N8    O19   1.301201 A    
O26   H7    0.990607 S    
S2    O26   1.682442 S    
Zn1   O7    2.022990 S    
Zn1   N1    2.022251 S    
C15   C16   1.338007 D    
S2    O24   1.503123 D    
C9    S2    1.792585 S    
O3    Zn1   1.988225 S    
Zn2   O6    1.942507 S    
N3    O10   1.300550 A    
S1    O22   1.489433 D    
N9    O27   1.301055 A    
O2    C1    1.284873 A    
C13   H1    1.083469 S    
C6    C9    1.407981 A    
O4    C2    1.293565 A    
O7    C4    1.298968 A    
O2    Zn2   1.979835 S    
O3    C2    1.297866 A    
C5    C13   1.393746 A    
C2    C6    1.452111 S    
C12   N3    1.437572 S    
C19   C20   1.503920 S    
Zn1   O5    1.979833 S    
O8    C4    1.290531 A    
N6    O15   1.299764 A    
N1    H4    1.026628 S    
S1    O21   1.502198 D    
N2    N6    1.389162 S    
C17   H3    1.085131 S    
Zn2   N2    2.025518 S    
C16   H2    1.087993 S    
S2    O25   1.503418 D    
O5    C3    1.284680 A    
C4    C5    1.446064 S    
C3    C16   1.427491 S    
N7    O17   1.301599 A    
C20   H5    1.083104 S    
C14   N8    1.436444 S    
C11   C12   1.400235 A    
C5    C12   1.407873 A    
C7    C11   1.411220 A    
N5    O13   1.300529 A    
C10   C14   1.414865 A    
N5    O14   1.300133 A    
O1    C1    1.290674 A    
O6    C3    1.294645 A    
N3    O9    1.301487 A    
