data_mof_unit_50364.cif
_audit_creation_date              2012-12-10T18:14:39-0500
_audit_creation_method            fapswitch 2.2
_symmetry_space_group_name_H-M    P1
_symmetry_Int_Tables_number       1
_space_group_crystal_system       triclinic
_cell_length_a                    10.725203
_cell_length_b                    9.423842
_cell_length_c                    27.816498
_cell_angle_alpha                 90.033386
_cell_angle_beta                  89.857894
_cell_angle_gamma                 89.982168
_cell_volume                      2811.47702796

loop_
_atom_site_label
_atom_site_type_symbol
_atom_type_description
_atom_site_fract_x
_atom_site_fract_y
_atom_site_fract_z
_atom_type_partial_charge
C1    C     C_R   0.259690 0.500217 0.499964 0.756078
C2    C     C_R   0.493251 0.370633 0.278982 -0.100472
C3    C     C_R   0.499511 0.498810 0.253676 0.356934
C4    C     C_R   0.499784 0.497281 0.101926 -0.043715
C5    C     C_R   0.391091 0.461249 0.127675 -0.020181
C6    C     C_R   0.283149 0.424565 0.102660 -0.144579
C7    C     C_R   0.608386 0.533809 0.127459 -0.021520
C8    C     C_R   0.499641 0.499638 0.354548 -0.047903
C9    C     C_R   0.499419 0.500248 0.645524 -0.074784
C10   C     C_R   0.387160 0.469346 0.974564 0.043082
C11   C     C_R   0.612658 0.523621 0.974355 0.043334
C12   C     C_R   0.499836 0.499937 0.407485 0.820878
C13   C     C_R   0.499893 0.496552 0.949214 0.071502
C14   C     C_R   0.276525 0.449610 0.947677 -0.202350
C15   C     C_R   0.277462 0.451651 0.897760 -0.139192
C16   C     C_R   0.388366 0.474057 0.872539 -0.025085
C17   C     C_R   0.499845 0.496827 0.898078 -0.043217
C18   C     C_R   0.611263 0.519983 0.872337 -0.031945
C19   C     C_R   0.609108 0.520140 0.821874 0.592140
C20   C     C_R   0.390274 0.475457 0.822069 0.561891
C21   C     C_R   0.503000 0.629829 0.721566 0.475760
C22   C     C_R   0.502982 0.629049 0.671021 -0.330806
C23   C     C_R   0.740076 0.500191 0.499932 0.784034
C24   C     C_R   0.495437 0.371763 0.671037 -0.225545
C25   C     C_R   0.495280 0.371977 0.721100 -0.195456
C26   C     C_R   0.499303 0.500249 0.746406 0.338883
C27   C     C_R   0.388323 0.463832 0.025648 0.042752
C28   C     C_R   0.499861 0.496839 0.050787 0.068389
C29   C     C_R   0.611460 0.529483 0.025435 0.042613
C30   C     C_R   0.281574 0.425472 0.052745 -0.205148
C31   C     C_R   0.716442 0.569926 0.102230 -0.144487
C32   C     C_R   0.723322 0.543116 0.947265 -0.201174
C33   C     C_R   0.722290 0.541632 0.897350 -0.139992
C34   C     C_R   0.499711 0.500051 0.592555 0.815102
C35   C     C_R   0.718169 0.568154 0.052316 -0.204954
C36   C     C_3   0.071208 0.655545 0.499639 -0.383806
C37   C     C_3   0.071552 0.424792 0.545419 -0.368386
C38   C     C_3   0.928512 0.655519 0.499675 -0.360097
C39   C     C_3   0.927635 0.424691 0.545395 -0.384906
C40   C     C_3   0.072190 0.423344 0.454662 -0.391087
C41   C     C_3   0.121729 0.500949 0.499922 0.157019
C42   C     C_3   0.878046 0.500908 0.499908 0.127668
C43   C     C_3   0.928257 0.423341 0.454652 -0.348241
C44   C     C_3   0.622618 0.084055 0.484627 0.364251
C45   C     C_3   0.622579 0.915859 0.484593 0.364336
C46   C     C_3   0.477992 0.083950 0.550022 -0.306766
C47   C     C_3   0.478053 0.916214 0.550025 -0.305695
C48   C     C_3   0.399577 0.083453 0.470251 -0.243560
C49   C     C_3   0.399557 0.916515 0.470266 -0.243649
C50   C     C_R   0.393019 0.462291 0.178145 0.533659
C51   C     C_R   0.606251 0.533855 0.177931 0.536133
C52   C     C_R   0.505714 0.627415 0.278783 -0.101825
C53   C     C_R   0.505553 0.628004 0.328910 -0.210995
C54   C     C_R   0.493465 0.370864 0.329103 -0.211751
Cu1   Cu    Cu3+1 0.499860 0.642410 0.500020 0.930376
Cu2   Cu    Cu3+1 0.499860 0.357590 0.500020 0.929930
H1    H     H_    0.488565 0.270336 0.347847 0.145508
H2    H     H_    0.510243 0.726878 0.259382 0.139942
H3    H     H_    0.800778 0.600125 0.121011 0.188666
H4    H     H_    0.813525 0.557518 0.963422 0.136793
H5    H     H_    0.492330 0.270953 0.652378 0.156456
H6    H     H_    0.809568 0.557578 0.878396 0.187921
H7    H     H_    0.492348 0.272225 0.740384 0.159918
H8    H     H_    0.804697 0.600447 0.035989 0.139515
H9    H     H_    0.105445 0.712879 0.467193 0.166058
H10   H     H_    0.105970 0.313390 0.546565 0.164351
H11   H     H_    0.105184 0.714201 0.531813 0.165838
H12   H     H_    0.106118 0.479233 0.578313 0.159996
H13   H     H_    0.894237 0.713976 0.531910 0.159645
H14   H     H_    0.892483 0.478983 0.578297 0.159734
H15   H     H_    0.488628 0.270857 0.259739 0.139637
H16   H     H_    0.894567 0.713036 0.467287 0.207400
H17   H     H_    0.893373 0.313241 0.546488 0.166082
H18   H     H_    0.107268 0.476682 0.421597 0.162648
H19   H     H_    0.106562 0.311889 0.453893 0.167061
H20   H     H_    0.893577 0.476675 0.421586 0.171964
H21   H     H_    0.894016 0.311877 0.453885 0.204427
H22   H     H_    0.694929 0.116722 0.511079 0.081646
H23   H     H_    0.694947 0.883166 0.510998 0.079657
H24   H     H_    0.551287 0.121654 0.575195 0.144555
H25   H     H_    0.551446 0.878615 0.575163 0.144492
H26   H     H_    0.307178 0.120342 0.483480 0.160586
H27   H     H_    0.307192 0.879834 0.483534 0.159736
H28   H     H_    0.405909 0.124043 0.432941 0.138320
H29   H     H_    0.405845 0.875724 0.432961 0.139563
H30   H     H_    0.387563 0.123482 0.564476 0.176378
H31   H     H_    0.387690 0.876703 0.564509 0.176967
H32   H     H_    0.198763 0.394669 0.121612 0.188761
H33   H     H_    0.505769 0.728866 0.651777 0.141523
H34   H     H_    0.190165 0.435793 0.878971 0.187689
H35   H     H_    0.186378 0.434759 0.963997 0.136828
H36   H     H_    0.195098 0.392901 0.036596 0.139421
H37   H     H_    0.510162 0.728819 0.347502 0.148371
N1    N     N_R   0.499581 0.498352 0.202130 -0.469017
N2    N     N_R   0.499577 0.498510 0.797929 -0.448929
N3    N     N_3   0.500250 0.143650 0.501060 -0.149223
N4    N     N_3   0.500250 0.856350 0.501060 -0.148868
O1    O     O_R   0.317570 0.620260 0.500030 -0.597885
O2    O     O_R   0.317570 0.379740 0.500030 -0.597565
O3    O     O_R   0.499900 0.620250 0.430280 -0.563342
O4    O     O_R   0.499900 0.379750 0.430280 -0.563552
O5    O     O_R   0.682190 0.620260 0.500010 -0.560553
O6    O     O_R   0.682190 0.379740 0.500010 -0.559106
O7    O     O_R   0.499860 0.620280 0.569750 -0.594403
O8    O     O_R   0.499860 0.379720 0.569750 -0.597408
O9    O     O_2   0.289032 0.428639 0.203083 -0.535731
O10   O     O_2   0.283794 0.454643 0.797274 -0.530602
O11   O     O_2   0.710147 0.568002 0.202663 -0.531698
O12   O     O_2   0.715514 0.541456 0.796884 -0.524408
O13   O     O_3   0.661918 0.143018 0.440589 -0.700496
H38   H     H_    0.602079 0.116675 0.415174 0.312067
O14   O     O_3   0.661652 0.856874 0.440508 -0.700278
H39   H     H_    0.602139 0.884181 0.415103 0.311096
O15   O     O_3   0.505956 0.754765 0.747485 -0.712826
H40   H     H_    0.508288 0.835815 0.724774 0.315196

loop_
_geom_bond_atom_site_label_1
_geom_bond_atom_site_label_2
_ccdc_geom_bond_type
C10   C27   A    
C21   C26   A    
C24   H5    S    
Cu1   Cu2   S    
C1    O2    A    
O15   H40   S    
C45   O14   S    
C44   C45   S    
Cu1   O5    S    
C23   C42   S    
C28   C29   A    
Cu2   O4    S    
C38   C42   S    
C5    C6    A    
C9    C22   A    
C23   O5    A    
C15   C16   A    
C37   H12   S    
C26   N2    S    
C6    H32   S    
C18   C19   A    
C25   H7    S    
C31   H3    S    
O13   H38   S    
C39   H14   S    
C40   C43   S    
C23   O6    A    
C48   H26   S    
C51   O11   S    
Cu1   O3    S    
C35   H8    S    
C16   C20   A    
C20   O10   S    
C39   H17   S    
C38   H13   S    
C21   C22   A    
C27   C30   A    
C36   C41   S    
C4    C7    A    
O14   H39   S    
C4    C28   A    
C39   C42   S    
C19   O12   S    
Cu2   O8    S    
C38   H16   S    
C36   H11   S    
C7    C31   A    
C53   H37   S    
C49   H29   S    
C24   C25   A    
C30   H36   S    
C2    C54   A    
C8    C54   A    
C36   H9    S    
C33   H6    S    
C25   C26   A    
Cu1   O7    S    
C34   O7    A    
C48   H28   S    
C47   H31   S    
C1    O1    A    
C44   N3    S    
C8    C12   S    
C37   H10   S    
Cu1   N4    S    
C17   C18   A    
C45   H23   S    
C52   H2    S    
C1    C41   S    
C40   C41   S    
C6    C30   A    
C20   N2    A    
C11   C32   A    
C10   C14   A    
C9    C34   S    
C31   C35   A    
C5    C50   A    
C42   C43   S    
C32   H4    S    
C2    H15   S    
C19   N2    A    
C52   C53   A    
C43   H20   S    
Cu2   N3    S    
C46   C47   S    
C48   C49   S    
C48   N3    S    
C34   O8    A    
C50   N1    A    
Cu2   O6    S    
C21   O15   S    
C10   C13   A    
C8    C53   A    
C3    C52   A    
C9    C24   A    
C43   H21   S    
C29   C35   A    
C47   N4    S    
C40   H19   S    
C13   C17   A    
C32   C33   A    
C49   H27   S    
C36   C38   S    
C2    C3    A    
C7    C51   A    
C12   O4    A    
C37   C39   S    
C45   N4    S    
C15   H34   S    
C46   H24   S    
C11   C13   A    
C16   C17   A    
Cu1   O1    S    
C44   H22   S    
C22   H33   S    
C40   H18   S    
C3    N1    S    
C47   H25   S    
C37   C41   S    
C18   C33   A    
C14   H35   S    
C12   O3    A    
C51   N1    A    
C49   N4    S    
C4    C5    A    
C46   N3    S    
C11   C29   A    
C27   C28   A    
C50   O9    S    
C14   C15   A    
Cu2   O2    S    
C46   H30   S    
C54   H1    S    
C44   O13   S    
