data_mof_unit_67755.cif
_audit_creation_date              2013-03-05T15:40:11-0500
_audit_creation_method            fapswitch 2.2
_symmetry_space_group_name_H-M    P1
_symmetry_Int_Tables_number       1
_space_group_crystal_system       triclinic
_cell_length_a                    8.028174
_cell_length_b                    8.75744
_cell_length_c                    11.199204
_cell_angle_alpha                 89.914712
_cell_angle_beta                  96.43776
_cell_angle_gamma                 94.002579
_cell_volume                      780.48474929

loop_
_atom_site_label
_atom_site_type_symbol
_atom_site_description
_atom_site_fract_x
_atom_site_fract_y
_atom_site_fract_z
_atom_type_partial_charge
O1    O     O_R   0.391630 0.738350 0.508060 -0.566187
O2    O     O_R   0.608370 0.261650 0.491940 -0.636409
O3    O     O_R   0.674540 0.711990 0.487010 -0.673347
O4    O     O_R   0.325460 0.288010 0.512990 -0.636315
C1    C     C_R   0.546146 0.794110 0.503943 0.846921
C2    C     C_R   0.458274 0.207061 0.507567 0.864226
O5    O     O_R   0.411370 0.508250 0.688780 -0.651056
O6    O     O_R   0.588630 0.491750 0.311220 -0.630332
O7    O     O_R   0.694270 0.481880 0.667740 -0.618770
O8    O     O_R   0.305730 0.518120 0.332260 -0.573794
C3    C     C_R   0.566271 0.482628 0.732533 0.778119
C4    C     C_R   0.430532 0.504536 0.267122 0.838025
Zn1   Zn    Zn3+2 0.311100 0.517600 0.514050 0.980004
Zn2   Zn    Zn3+2 0.688900 0.482400 0.485950 0.930069
C5    C     C_2   0.601783 0.453976 0.862115 0.248724
C6    C     C_2   0.385562 0.489312 0.137609 0.284229
C7    C     C_2   0.479654 0.432820 0.935645 0.109881
C8    C     C_2   0.506089 0.502261 0.061149 0.083804
C9    C     C_2   0.570545 0.958491 0.527107 0.136776
C10   C     C_2   0.438624 0.044454 0.494587 0.218112
N1    N     N_2   0.940600 0.458860 0.467170 -0.007209
N2    N     N_2   0.059400 0.541140 0.532830 0.033050
N3    N     N_2   0.653496 0.599753 0.098215 -0.309616
H1    H     H_    0.763642 0.583455 0.064630 0.292603
C11   C     C_3   0.633814 0.754392 0.138040 -0.892376
H2    H     H_    0.677517 0.766294 0.235265 0.269219
H3    H     H_    0.501795 0.785391 0.121306 0.212943
H4    H     H_    0.711381 0.836446 0.089648 0.264733
N4    N     N_2   0.332340 0.334868 0.895866 -0.311130
H5    H     H_    0.312845 0.307194 0.805915 0.226715
C12   C     C_3   0.295700 0.202024 0.968399 -0.769944
H6    H     H_    0.300146 0.095510 0.916763 0.219817
H7    H     H_    0.166238 0.203737 0.992680 0.259244
H8    H     H_    0.384315 0.197014 0.051565 0.236344
O9    O     O_3   0.217997 0.450005 0.101677 -0.660054
C13   C     C_3   0.151800 0.558099 0.019957 0.083000
H9    H     H_    0.041922 0.499988 0.970053 0.236032
H10   H     H_    0.238697 0.599136 0.955312 0.146125
C14   C     C_3   0.098643 0.696734 0.081578 -0.347532
H11   H     H_    0.018217 0.661267 0.151974 0.244396
H12   H     H_    0.213061 0.759664 0.122940 0.198980
C15   C     C_3   0.010269 0.801101 0.989809 -1.049649
H13   H     H_    0.098494 0.844205 0.926243 0.271495
H14   H     H_    0.968570 0.899561 0.035033 0.281159
H15   H     H_    0.896631 0.742211 0.940744 0.285443
O10   O     O_3   0.764526 0.428914 0.906294 -0.709808
C16   C     C_3   0.801501 0.280155 0.873712 0.100216
H16   H     H_    0.939478 0.279665 0.878378 0.127364
H17   H     H_    0.756966 0.250565 0.778387 0.197201
C17   C     C_3   0.738420 0.159053 0.960515 -0.385710
H18   H     H_    0.847713 0.112292 0.012834 0.179513
H19   H     H_    0.668002 0.211223 0.027630 0.241086
C18   C     C_3   0.628115 0.029655 0.893693 -0.886200
H20   H     H_    0.542174 0.075082 0.819544 0.280521
H21   H     H_    0.549401 0.967982 0.955697 0.245209
H22   H     H_    0.706977 0.947043 0.856159 0.284606
O11   O     O_3   0.689878 0.013323 0.619349 -0.683492
C19   C     C_3   0.855058 0.012879 0.588234 0.099706
H23   H     H_    0.892193 0.127570 0.553818 0.168872
H24   H     H_    0.871072 0.926040 0.519358 0.154590
C20   C     C_3   0.971257 0.981650 0.701690 -0.395145
H25   H     H_    0.965224 0.070866 0.769824 0.224071
H26   H     H_    0.928029 0.871483 0.739975 0.238395
C21   C     C_3   0.152908 0.977699 0.677138 -0.895560
H27   H     H_    0.161999 0.897478 0.602647 0.335313
H28   H     H_    0.230796 0.937109 0.757118 0.237417
H29   H     H_    0.202085 0.094186 0.654921 0.268946
O12   O     O_3   0.293822 0.986333 0.428714 -0.630108
C22   C     C_3   0.319060 0.981688 0.306729 0.094826
H30   H     H_    0.328159 0.860678 0.283019 0.145509
H31   H     H_    0.436310 0.045729 0.282783 0.042069
C23   C     C_3   0.171188 0.048890 0.234298 -0.349437
H32   H     H_    0.184607 0.174792 0.246651 0.235680
H33   H     H_    0.178658 0.024265 0.139058 0.182396
C24   C     C_3   0.002561 0.984627 0.271731 -0.787750
H34   H     H_    0.897287 0.022624 0.209081 0.207941
H35   H     H_    0.986583 0.026762 0.361985 0.257653
H36   H     H_    0.995359 0.858169 0.274964 0.268822
N5    N     N_2   0.999466 0.370305 0.382248 -0.198174
H37   H     H_    0.040701 0.269486 0.416878 0.233581
C25   C     C_3   0.888709 0.351793 0.272515 -0.654825
H38   H     H_    0.774653 0.278067 0.287065 0.223018
H39   H     H_    0.952746 0.299290 0.202209 0.230183
H40   H     H_    0.857589 0.465597 0.239292 0.265598
N6    N     N_2   0.012473 0.632428 0.619713 -0.239645
H41   H     H_    0.892238 0.661470 0.610369 0.286750
C26   C     C_3   0.073170 0.586987 0.737826 -0.709209
H42   H     H_    0.976498 0.606425 0.796997 0.235831
H43   H     H_    0.189870 0.657980 0.767212 0.246412
H44   H     H_    0.094677 0.463157 0.741118 0.239304

loop_
_geom_bond_atom_site_label_1
_geom_bond_atom_site_label_2
_geom_bond_distance
_ccdc_geom_bond_type
C26   H42   1.097514 S    
C20   C21   1.516743 S    
C7    N4    1.440260 S    
C9    C10   1.358320 D    
O7    Zn2   2.031525 S    
C25   H38   1.110170 S    
C16   H17   1.112195 S    
C18   H20   1.110291 S    
C9    O11   1.389570 S    
C11   H4    1.099950 S    
O5    C3    1.318676 A    
O1    C1    1.306739 A    
Zn2   N1    2.079306 S    
C13   H9    1.084939 S    
C22   H30   1.102216 S    
C6    O9    1.380028 S    
C19   H24   1.107923 S    
C20   H26   1.104744 S    
N2    N6    1.361757 S    
O4    Zn1   2.022069 S    
C22   H31   1.120251 S    
C3    C5    1.471855 S    
C4    C6    1.458873 S    
O12   C22   1.404430 S    
C16   H16   1.103369 S    
C17   H19   1.107093 S    
N3    H1    1.017911 S    
C12   H7    1.104527 S    
C14   C15   1.522892 S    
C19   C20   1.525872 S    
N6    C26   1.423550 S    
N1    N2    1.310701 D    
O2    C2    1.295300 A    
C15   H14   1.091645 S    
C23   C24   1.531456 S    
C25   H39   1.104770 S    
C17   H18   1.102287 S    
C16   C17   1.535779 S    
C18   H21   1.105831 S    
C17   C18   1.530416 S    
C8    N3    1.432328 S    
C21   H29   1.106116 S    
C23   H33   1.097542 S    
C14   H11   1.104690 S    
N5    C25   1.436171 S    
C11   H2    1.108651 S    
N6    H41   1.009418 S    
O9    C13   1.405245 S    
C21   H28   1.106405 S    
C22   C23   1.514542 S    
C24   H34   1.105849 S    
N4    H5    1.028651 S    
O7    C3    1.323144 A    
C12   H6    1.103021 S    
O6    C4    1.321559 A    
N1    N5    1.372380 S    
C7    C8    1.519220 S    
C12   H8    1.109583 S    
C24   H35   1.100484 S    
O3    Zn2   2.022068 S    
O8    C4    1.315672 A    
O4    C2    1.327896 A    
C26   H43   1.105782 S    
O1    Zn1   1.998654 S    
C15   H13   1.107203 S    
C25   H40   1.098609 S    
C18   H22   1.107006 S    
C5    C7    1.352414 D    
O10   C16   1.413539 S    
O6    Zn2   2.034551 S    
C10   O12   1.371463 S    
C13   C14   1.507720 S    
C23   H32   1.107682 S    
O3    C1    1.327920 A    
O8    Zn1   2.031527 S    
C1    C9    1.458877 S    
C11   H3    1.107980 S    
C2    C10   1.427572 S    
C21   H27   1.103347 S    
C13   H10   1.103378 S    
C19   H23   1.108632 S    
N4    C12   1.450108 S    
O11   C19   1.408652 S    
Zn1   N2    2.079305 S    
N3    C11   1.450980 S    
C20   H25   1.100171 S    
O2    Zn2   1.998653 S    
C24   H36   1.105666 S    
N5    H37   1.024955 S    
O5    Zn1   2.034552 S    
C14   H12   1.093952 S    
C6    C8    1.361089 D    
C26   H44   1.109850 S    
C5    O10   1.376501 S    
C15   H15   1.105877 S    
