data_mof_unit_42825.cif
_audit_creation_date              2012-12-10T17:33:41-0500
_audit_creation_method            fapswitch 2.2
_symmetry_space_group_name_H-M    P1
_symmetry_Int_Tables_number       1
_space_group_crystal_system       triclinic
_cell_length_a                    11.644942
_cell_length_b                    12.487223
_cell_length_c                    13.158679
_cell_angle_alpha                 118.043419
_cell_angle_beta                  75.429399
_cell_angle_gamma                 101.557243
_cell_volume                      1626.91259942

loop_
_atom_site_label
_atom_site_type_symbol
_atom_type_description
_atom_site_fract_x
_atom_site_fract_y
_atom_site_fract_z
_atom_type_partial_charge
C1    C     C_R   0.516266 0.854749 0.285050 0.850658
C2    C     C_R   0.448784 0.229772 0.838490 -0.080431
C3    C     C_R   0.646811 0.798496 0.087250 -0.168368
C4    C     C_R   0.673313 0.719826 0.966701 0.323778
C5    C     C_R   0.608868 0.603396 0.922746 -0.152885
C6    C     C_R   0.515373 0.569100 0.998865 0.009939
C7    C     C_R   0.468361 0.663487 0.107184 0.072737
C8    C     C_R   0.460917 0.447358 0.970127 0.124066
C9    C     C_R   0.350119 0.427645 0.037344 0.116176
C10   C     C_R   0.294124 0.526404 0.129357 -0.200554
C11   C     C_R   0.350371 0.643853 0.161820 0.003488
C12   C     C_R   0.715307 0.001822 0.501807 0.847700
C13   C     C_R   0.513549 0.344185 0.878418 -0.191113
C14   C     C_R   0.338772 0.211210 0.906056 -0.047456
C15   C     C_R   0.540859 0.773686 0.157153 -0.138238
C16   C     C_R   0.734018 0.387599 0.419500 0.394043
C17   C     C_R   0.314134 0.730061 0.589469 0.112703
C18   C     C_R   0.262633 0.610338 0.544446 -0.163523
C19   C     C_R   0.335746 0.515731 0.488501 -0.046926
C20   C     C_R   0.457177 0.540266 0.495856 0.009238
C21   C     C_R   0.507618 0.659223 0.511628 0.182759
C22   C     C_R   0.532027 0.449630 0.474873 -0.195071
C23   C     C_R   0.482268 0.145312 0.714436 0.798659
C24   C     C_R   0.657301 0.479415 0.457886 -0.047454
C25   C     C_R   0.701889 0.598913 0.473591 -0.114707
C26   C     C_R   0.630124 0.667793 0.461522 0.311631
C27   C     C_R   0.489581 0.338605 0.486026 0.532559
C28   C     C_R   0.684265 0.269444 0.400156 -0.077756
C29   C     C_R   0.283857 0.002985 0.505460 0.839415
C30   C     C_1   0.836753 0.005622 0.506212 -0.100787
C31   C     C_1   0.938734 0.007606 0.510293 0.061979
C32   C     C_1   0.058015 0.008118 0.513289 0.078052
C33   C     C_1   0.160812 0.006602 0.512149 -0.074139
C34   C     C_R   0.292113 0.309854 0.007151 -0.195895
Cu1   Cu    Cu3+1 0.526510 0.098270 0.475420 1.038313
Cu2   Cu    Cu3+1 0.473490 0.901730 0.524580 1.010732
H1    H     H_    0.796906 0.622937 0.457934 0.223445
H2    H     H_    0.256376 0.802367 0.630028 0.163598
H3    H     H_    0.296354 0.424267 0.444047 0.202613
H4    H     H_    0.167022 0.591103 0.549985 0.209553
H5    H     H_    0.203978 0.512486 0.172753 0.155832
H6    H     H_    0.206657 0.295999 0.058430 0.177099
H7    H     H_    0.603814 0.350375 0.833144 0.142984
H8    H     H_    0.742365 0.198711 0.367768 0.209225
N1    N     N_R   0.566700 0.246290 0.438210 -0.269278
N2    N     N_R   0.434010 0.754320 0.561170 -0.219224
O1    O     O_R   0.533340 0.972510 0.318140 -0.601830
O2    O     O_R   0.488570 0.806530 0.359650 -0.490339
O3    O     O_R   0.685190 0.083000 0.479260 -0.586643
O4    O     O_R   0.640410 0.917020 0.520770 -0.561742
O5    O     O_R   0.511430 0.193470 0.640350 -0.504080
O6    O     O_R   0.466660 0.027490 0.681860 -0.591955
O7    O     O_R   0.359590 0.082980 0.479230 -0.489582
O8    O     O_R   0.314810 0.917000 0.520740 -0.618870
C35   C     C_1   0.267755 0.095005 0.869958 0.285664
N3    N     N_1   0.210318 0.002162 0.841574 -0.224540
S1    S     S_3+6 0.891771 0.416530 0.397867 0.015029
O9    O     O_2   0.926927 0.514804 0.510411 -0.277793
O10   O     O_2   0.949662 0.303837 0.362755 -0.262736
O11   O     O_3   0.939401 0.463248 0.292170 -0.497775
H9    H     H_    0.013989 0.516362 0.311482 0.358431
S2    S     S_3+6 0.346764 0.338766 0.584691 0.030207
O12   O     O_2   0.320603 0.467916 0.667785 -0.287665
O13   O     O_2   0.250457 0.277126 0.512227 -0.312026
O14   O     O_3   0.329380 0.274359 0.674432 -0.518796
H10   H     H_    0.245172 0.281236 0.715118 0.362182
S3    S     S_3+6 0.666026 0.640025 0.311499 0.024494
O15   O     O_2   0.716349 0.754729 0.299634 -0.291829
O16   O     O_2   0.758118 0.550244 0.242623 -0.242486
O17   O     O_3   0.543092 0.579194 0.251310 -0.532782
H11   H     H_    0.529868 0.494206 0.241353 0.342447
C36   C     C_1   0.732165 0.900186 0.140604 0.425533
N4    N     N_1   0.800697 0.980875 0.183387 -0.208524
C37   C     C_1   0.629705 0.527137 0.797686 0.396589
N5    N     N_1   0.646607 0.466003 0.697710 -0.222942
S4    S     S_3+6 0.791249 0.764028 0.872266 0.042325
O18   O     O_2   0.900589 0.706472 0.855007 -0.196168
O19   O     O_2   0.758557 0.721298 0.754727 -0.287065
O20   O     O_3   0.823742 0.916138 0.928864 -0.491640
H12   H     H_    0.751698 0.947970 0.930223 0.341236
C38   C     C_1   0.274966 0.741725 0.226592 0.227942
N6    N     N_1   0.212321 0.818650 0.274487 -0.271440

loop_
_geom_bond_atom_site_label_1
_geom_bond_atom_site_label_2
_ccdc_geom_bond_type
C16   C28   A    
C21   C26   A    
C8    C13   A    
Cu1   O7    S    
Cu1   Cu2   S    
C34   H6    S    
S4    O20   S    
C35   N3    T    
Cu1   O1    S    
C12   O3    A    
C23   O6    A    
C3    C15   A    
C11   C38   S    
C7    C11   A    
C26   S3    S    
S4    O19   D    
C5    C6    A    
S1    O10   D    
C29   O8    A    
C29   C33   S    
C18   C19   A    
C5    C37   S    
C2    C13   A    
C18   H4    S    
S2    O13   D    
C25   H1    S    
C19   C20   A    
C8    C9    A    
Cu1   O3    S    
C24   C25   A    
Cu2   N2    S    
O17   H11   S    
C1    C15   S    
C9    C10   A    
Cu2   O6    S    
C16   S1    S    
C27   N1    A    
C7    C15   A    
C14   C35   S    
C16   C24   A    
C10   H5    S    
C38   N6    T    
C28   N1    A    
C37   N5    T    
S3    O15   D    
C17   N2    A    
C36   N4    T    
C1    O1    A    
S1    O11   S    
C6    C8    A    
C25   C26   A    
C28   H8    S    
O11   H9    S    
S3    O16   D    
S2    O12   D    
C27   S2    S    
C23   O5    A    
C31   C32   S    
C17   C18   A    
S4    O18   D    
C19   H3    S    
C20   C22   A    
C22   C27   A    
Cu1   O5    S    
C9    C34   A    
C22   C24   A    
C3    C4    A    
Cu1   N1    S    
C13   H7    S    
Cu2   O4    S    
C21   N2    A    
S2    O14   S    
C12   C30   S    
C4    C5    A    
C14   C34   A    
C12   O4    A    
C1    O2    A    
C6    C7    A    
S3    O17   S    
C32   C33   T    
C3    C36   S    
S1    O9    D    
C30   C31   T    
C29   O7    A    
Cu2   O2    S    
C17   H2    S    
C2    C14   A    
C4    S4    S    
Cu2   O8    S    
C10   C11   A    
O20   H12   S    
C20   C21   A    
O14   H10   S    
C2    C23   S    
