data_mof_unit_61271.cif
_audit_creation_date              2013-03-05T15:43:44-0500
_audit_creation_method            fapswitch 2.2
_symmetry_space_group_name_H-M    P1
_symmetry_Int_Tables_number       1
_space_group_crystal_system       triclinic
_cell_length_a                    29.360292
_cell_length_b                    30.878475
_cell_length_c                    21.237406
_cell_angle_alpha                 89.873912
_cell_angle_beta                  133.700604
_cell_angle_gamma                 90.16918
_cell_volume                      13919.7029237

loop_
_atom_site_label
_atom_site_type_symbol
_atom_site_description
_atom_site_fract_x
_atom_site_fract_y
_atom_site_fract_z
_atom_type_partial_charge
O1    O     O_R   0.321010 0.231060 0.142100 -0.569483
O2    O     O_R   0.678990 0.768940 0.857900 -0.574364
O3    O     O_R   0.678990 0.231060 0.857900 -0.572087
O4    O     O_R   0.321010 0.768940 0.142100 -0.575607
O5    O     O_R   0.821010 0.731060 0.142100 -0.570741
O6    O     O_R   0.178990 0.268940 0.857900 -0.571035
O7    O     O_R   0.178990 0.731060 0.857900 -0.576329
O8    O     O_R   0.821010 0.268940 0.142100 -0.574101
O9    O     O_R   0.269040 0.178650 0.038140 -0.562928
O10   O     O_R   0.730960 0.821350 0.961860 -0.569699
O11   O     O_R   0.730960 0.178650 0.961860 -0.565964
O12   O     O_R   0.269040 0.821350 0.038140 -0.569411
O13   O     O_R   0.769040 0.678650 0.038140 -0.563672
O14   O     O_R   0.230960 0.321350 0.961860 -0.564455
O15   O     O_R   0.230960 0.678650 0.961860 -0.569724
O16   O     O_R   0.769040 0.321350 0.038140 -0.571955
C1    C     C_R   0.307988 0.190913 0.118516 0.793251
C2    C     C_R   0.692548 0.809188 0.881116 0.795315
C3    C     C_R   0.693098 0.190812 0.881424 0.797093
C4    C     C_R   0.307283 0.809178 0.118968 0.796289
C5    C     C_R   0.807434 0.690909 0.118630 0.792998
C6    C     C_R   0.192558 0.309091 0.881370 0.792463
C7    C     C_R   0.192726 0.690829 0.881042 0.795287
C8    C     C_R   0.807272 0.309171 0.118959 0.795252
O17   O     O_R   0.337910 0.276140 0.051940 -0.561330
O18   O     O_R   0.662090 0.723860 0.948060 -0.558432
O19   O     O_R   0.662090 0.276140 0.948060 -0.558997
O20   O     O_R   0.337910 0.723860 0.051940 -0.555764
O21   O     O_R   0.837910 0.776140 0.051940 -0.556089
O22   O     O_R   0.162090 0.223860 0.948060 -0.558546
O23   O     O_R   0.162090 0.776140 0.948060 -0.556748
O24   O     O_R   0.837910 0.223860 0.051940 -0.545887
O25   O     O_R   0.285940 0.223740 0.947980 -0.547005
O26   O     O_R   0.714060 0.776260 0.052020 -0.548117
O27   O     O_R   0.714060 0.223740 0.052020 -0.546580
O28   O     O_R   0.285940 0.776260 0.947980 -0.549566
O29   O     O_R   0.785940 0.723740 0.947980 -0.549344
O30   O     O_R   0.214060 0.276260 0.052020 -0.547675
O31   O     O_R   0.214060 0.723740 0.052020 -0.549304
O32   O     O_R   0.785940 0.276260 0.947980 -0.560020
C9    C     C_R   0.334562 0.249976 0.999969 0.772429
C10   C     C_R   0.665439 0.750022 0.000033 0.776423
C11   C     C_R   0.665479 0.249918 0.000121 0.781381
C12   C     C_R   0.334519 0.750081 0.999876 0.782003
C13   C     C_R   0.834569 0.749970 0.999983 0.778145
C14   C     C_R   0.165417 0.250037 0.999988 0.772903
C15   C     C_R   0.165485 0.749919 0.000131 0.781817
C16   C     C_R   0.834519 0.250066 0.999874 0.778684
Cu1   Cu    Cu3+1 0.280720 0.280980 0.061500 1.037133
Cu2   Cu    Cu3+1 0.719280 0.719020 0.938500 1.042177
Cu3   Cu    Cu3+1 0.719280 0.280980 0.938500 1.024890
Cu4   Cu    Cu3+1 0.280720 0.719020 0.061500 1.041242
Cu5   Cu    Cu3+1 0.780720 0.780980 0.061500 1.040087
Cu6   Cu    Cu3+1 0.219280 0.219020 0.938500 1.042562
Cu7   Cu    Cu3+1 0.219280 0.780980 0.938500 1.039720
Cu8   Cu    Cu3+1 0.780720 0.219020 0.061500 1.060295
C17   C     C_1   0.385846 0.250036 0.999971 -0.125751
C18   C     C_1   0.614158 0.749959 0.000036 -0.125306
C19   C     C_1   0.614267 0.249893 0.000269 -0.135778
C20   C     C_1   0.385730 0.750105 0.999726 -0.137143
C21   C     C_1   0.885889 0.750005 0.000056 -0.134730
C22   C     C_1   0.114114 0.249959 0.999947 -0.120130
C23   C     C_1   0.114290 0.749892 0.000312 -0.138493
C24   C     C_1   0.885736 0.250040 0.999737 -0.132298
C25   C     C_1   0.428336 0.250038 0.999974 0.066178
C26   C     C_1   0.571667 0.749956 0.000033 0.066545
C27   C     C_1   0.571769 0.249917 0.000257 0.050728
C28   C     C_1   0.428228 0.750080 0.999739 0.050050
C29   C     C_1   0.928407 0.749997 0.000112 0.051824
C30   C     C_1   0.071620 0.249924 0.999938 0.076441
C31   C     C_1   0.071817 0.749905 0.000347 0.048371
C32   C     C_1   0.928238 0.249983 0.999760 0.056513
C33   C     C_1   0.478771 0.250005 0.000046 0.058195
C34   C     C_1   0.521230 0.749989 0.999957 0.058028
C35   C     C_1   0.521314 0.249965 0.000147 0.053269
C36   C     C_1   0.478686 0.750030 0.999852 0.052827
C37   C     C_1   0.978855 0.749968 0.000207 0.052007
C38   C     C_1   0.021208 0.249914 0.999913 0.064049
C39   C     C_1   0.021388 0.749937 0.000289 0.050771
C40   C     C_1   0.978684 0.249932 0.999849 0.057571
H1    H     H_    0.386204 0.134013 0.148170 0.178986
H2    H     H_    0.645734 0.881423 0.881071 0.198860
H3    H     H_    0.572601 0.188654 0.740134 0.194254
H4    H     H_    0.347979 0.884114 0.115135 0.200661
H5    H     H_    0.880394 0.631265 0.142138 0.183654
H6    H     H_    0.119490 0.368682 0.857746 0.182462
H7    H     H_    0.151531 0.616047 0.884440 0.200345
H8    H     H_    0.848413 0.383973 0.115527 0.199094
C41   C     C_R   0.290340 0.184097 0.236716 -0.221154
C42   C     C_R   0.678769 0.803126 0.730245 -0.221728
C43   C     C_R   0.762391 0.119294 0.888954 -0.218550
C44   C     C_R   0.326301 0.800722 0.274541 -0.219928
C45   C     C_R   0.798090 0.687592 0.246558 -0.223093
C46   C     C_R   0.202040 0.312469 0.753592 -0.222923
C47   C     C_R   0.174692 0.699041 0.726296 -0.221540
C48   C     C_R   0.825373 0.300934 0.273763 -0.221023
H9    H     H_    0.259546 0.205454 0.181238 0.165182
H10   H     H_    0.712252 0.781514 0.784030 0.181456
H11   H     H_    0.789753 0.146406 0.932031 0.176663
H12   H     H_    0.292451 0.779012 0.221178 0.183869
H13   H     H_    0.766059 0.708662 0.190913 0.166714
H14   H     H_    0.234065 0.291404 0.809247 0.166915
H15   H     H_    0.208424 0.720747 0.779750 0.183870
H16   H     H_    0.791638 0.279227 0.220314 0.183193
C49   C     C_R   0.286295 0.184002 0.298710 0.357794
C50   C     C_R   0.664838 0.796954 0.652990 0.373641
C51   C     C_R   0.794724 0.082333 0.899380 0.377098
C52   C     C_R   0.343055 0.793579 0.353649 0.372435
C53   C     C_R   0.799175 0.689496 0.313551 0.378367
C54   C     C_R   0.201035 0.310596 0.686670 0.377187
C55   C     C_R   0.158597 0.706016 0.647606 0.368491
C56   C     C_R   0.841508 0.293948 0.352477 0.369812
C57   C     C_R   0.326034 0.156613 0.370810 -0.126003
C58   C     C_R   0.623006 0.825398 0.583411 -0.176905
C59   C     C_R   0.760048 0.047302 0.842929 -0.193305
C60   C     C_R   0.384889 0.822333 0.422651 -0.172319
C61   C     C_R   0.840690 0.662517 0.386049 -0.181322
C62   C     C_R   0.159517 0.337563 0.614151 -0.179239
C63   C     C_R   0.116869 0.677282 0.578505 -0.167511
C64   C     C_R   0.883234 0.322686 0.421569 -0.170398
H17   H     H_    0.325284 0.156593 0.421069 0.216257
H18   H     H_    0.610241 0.820965 0.522300 0.191671
H19   H     H_    0.783510 0.017956 0.850469 0.189353
H20   H     H_    0.399624 0.817279 0.484981 0.190788
H21   H     H_    0.843961 0.664112 0.439985 0.192769
H22   H     H_    0.156305 0.335987 0.560265 0.193793
H23   H     H_    0.102650 0.682208 0.516484 0.196719
H24   H     H_    0.897480 0.317753 0.483606 0.194847
C65   C     C_R   0.367605 0.129002 0.379608 -0.141506
C66   C     C_R   0.597828 0.860378 0.592033 -0.214937
C67   C     C_R   0.694717 0.049715 0.775394 -0.150583
C68   C     C_R   0.407338 0.858491 0.411797 -0.215960
C69   C     C_R   0.878619 0.633105 0.390191 -0.207223
C70   C     C_R   0.121514 0.366936 0.609924 -0.206669
C71   C     C_R   0.093836 0.641317 0.588853 -0.209896
C72   C     C_R   0.906229 0.358665 0.411192 -0.209939
H25   H     H_    0.398394 0.110179 0.438518 0.214734
H26   H     H_    0.565557 0.881080 0.535845 0.155239
H27   H     H_    0.670659 0.021329 0.734906 0.180845
H28   H     H_    0.439344 0.879652 0.467318 0.149898
H29   H     H_    0.911271 0.614415 0.449344 0.163841
H30   H     H_    0.088863 0.385615 0.550754 0.164148
H31   H     H_    0.061911 0.620186 0.533255 0.154597
H32   H     H_    0.938151 0.379801 0.466782 0.154356
C73   C     C_R   0.370529 0.127369 0.315885 0.033404
C74   C     C_R   0.613455 0.867873 0.670769 0.052830
C75   C     C_R   0.661757 0.087438 0.762124 0.072972
C76   C     C_R   0.389105 0.866760 0.331463 0.050711
C77   C     C_R   0.875800 0.629378 0.321183 0.057010
C78   C     C_R   0.124262 0.370642 0.678871 0.056364
C79   C     C_R   0.111442 0.633188 0.668807 0.047718
C80   C     C_R   0.888591 0.366801 0.331219 0.048114
C81   C     C_R   0.333231 0.156871 0.245690 0.044732
C82   C     C_R   0.651098 0.837224 0.738572 0.046443
C83   C     C_R   0.695872 0.121632 0.822826 0.036691
C84   C     C_R   0.351384 0.835992 0.263859 0.050165
C85   C     C_R   0.837486 0.658735 0.250856 0.044274
C86   C     C_R   0.162576 0.341292 0.749212 0.044449
C87   C     C_R   0.149130 0.663925 0.736496 0.049711
C88   C     C_R   0.850902 0.336062 0.263533 0.049721
C89   C     C_R   0.339469 0.158391 0.185675 -0.116541
C90   C     C_R   0.660828 0.842029 0.813420 -0.137554
C91   C     C_R   0.662538 0.157631 0.814871 -0.139364
C92   C     C_R   0.338828 0.841993 0.186865 -0.138955
C93   C     C_R   0.839321 0.658409 0.186216 -0.125594
C94   C     C_R   0.160673 0.341591 0.813786 -0.125047
C95   C     C_R   0.161219 0.658034 0.813148 -0.138392
C96   C     C_R   0.838781 0.341965 0.186856 -0.137536
C97   C     C_R   0.380686 0.131195 0.193544 -0.228735
C98   C     C_R   0.637439 0.877994 0.823022 -0.233184
C99   C     C_R   0.597667 0.160975 0.745237 -0.206342
C100  C     C_R   0.358852 0.879454 0.174954 -0.232014
C101  C     C_R   0.877557 0.629630 0.190395 -0.229937
C102  C     C_R   0.122375 0.370339 0.809538 -0.232467
C103  C     C_R   0.140871 0.620678 0.824772 -0.234061
C104  C     C_R   0.859098 0.379332 0.175211 -0.233983
C105  C     C_R   0.417401 0.101845 0.261392 0.351855
C106  C     C_R   0.604322 0.910042 0.759792 0.314325
C107  C     C_R   0.563809 0.128481 0.683457 0.334277
C108  C     C_R   0.391522 0.911573 0.238014 0.312075
C109  C     C_R   0.915009 0.600329 0.258284 0.347166
C110  C     C_R   0.084930 0.399637 0.741641 0.348197
C111  C     C_R   0.108244 0.588589 0.761670 0.311944
C112  C     C_R   0.891723 0.411420 0.238313 0.312436
C113  C     C_R   0.410807 0.098203 0.321344 -0.217475
C114  C     C_R   0.591985 0.904969 0.683159 -0.214577
C115  C     C_R   0.595591 0.091654 0.690806 -0.188229
C116  C     C_R   0.407666 0.904975 0.317060 -0.210848
C117  C     C_R   0.911781 0.598250 0.321838 -0.226849
C118  C     C_R   0.088216 0.401742 0.678147 -0.226616
C119  C     C_R   0.092357 0.595126 0.682804 -0.208933
C120  C     C_R   0.907644 0.404873 0.317199 -0.208802
O33   O     O_R   0.990910 0.454660 0.410130 -0.563251
O34   O     O_R   0.009090 0.545340 0.589870 -0.563899
O35   O     O_R   0.009090 0.454660 0.589870 -0.525721
O36   O     O_R   0.990910 0.545340 0.410130 -0.525575
O37   O     O_R   0.490910 0.954660 0.410130 -0.560626
O38   O     O_R   0.509090 0.045340 0.589870 -0.520044
O39   O     O_R   0.509090 0.954660 0.589870 -0.557157
O40   O     O_R   0.490910 0.045340 0.410130 -0.513330
O41   O     O_R   0.919170 0.454670 0.410130 -0.584680
O42   O     O_R   0.080830 0.545330 0.589870 -0.583692
O43   O     O_R   0.080830 0.454670 0.589870 -0.595052
O44   O     O_R   0.919170 0.545330 0.410130 -0.595303
O45   O     O_R   0.419170 0.954670 0.410130 -0.585988
O46   O     O_R   0.580830 0.045330 0.589870 -0.610742
O47   O     O_R   0.580830 0.954670 0.589870 -0.607369
O48   O     O_R   0.419170 0.045330 0.410130 -0.600279
C121  C     C_R   0.941163 0.438782 0.382609 0.857386
C122  C     C_R   0.058838 0.561217 0.617392 0.857369
C123  C     C_R   0.057538 0.437616 0.615538 0.849849
C124  C     C_R   0.942454 0.562377 0.384446 0.849724
C125  C     C_R   0.441069 0.938896 0.382390 0.860546
C126  C     C_R   0.560528 0.059634 0.621055 0.861878
C127  C     C_R   0.559035 0.939059 0.618061 0.836442
C128  C     C_R   0.442469 0.062578 0.384775 0.873934
Cu9   Cu    Cu3+1 0.042420 0.500000 0.499930 1.089225
Cu10  Cu    Cu3+1 0.957580 0.500000 0.500070 1.086523
Cu11  Cu    Cu3+1 0.542420 1.000000 0.499930 1.083754
Cu12  Cu    Cu3+1 0.457580 1.000000 0.500070 1.090802
N1    N     N_R   0.242682 0.212045 0.289085 0.141171
O49   O     O_R   0.206446 0.238185 0.222853 -0.348290
O50   O     O_R   0.238695 0.211658 0.346435 -0.297936
N2    N     N_R   0.692746 0.761763 0.645119 0.136533
O51   O     O_R   0.731391 0.735049 0.709509 -0.332309
O52   O     O_R   0.679862 0.756128 0.573468 -0.310605
N3    N     N_R   0.862440 0.080305 0.967426 0.138080
O53   O     O_R   0.894864 0.112800 0.020213 -0.332308
O54   O     O_R   0.892381 0.045972 0.977085 -0.319781
N4    N     N_R   0.317840 0.757166 0.363877 0.137579
O55   O     O_R   0.279409 0.730058 0.300164 -0.328348
O56   O     O_R   0.333075 0.750755 0.437074 -0.311619
N5    N     N_R   0.758950 0.719149 0.308492 0.135892
O57   O     O_R   0.720337 0.744334 0.241181 -0.345514
O58   O     O_R   0.760251 0.721059 0.370941 -0.310977
N6    N     N_R   0.241348 0.280989 0.691827 0.137044
O59   O     O_R   0.279986 0.255829 0.759177 -0.342940
O60   O     O_R   0.240116 0.279106 0.629442 -0.305635
N7    N     N_R   0.184374 0.742236 0.637902 0.137381
O61   O     O_R   0.222814 0.769270 0.701766 -0.330106
O62   O     O_R   0.169670 0.748532 0.565049 -0.309644
N8    N     N_R   0.815772 0.257711 0.362213 0.136472
O63   O     O_R   0.777344 0.230669 0.298363 -0.330005
O64   O     O_R   0.830510 0.251405 0.435086 -0.318271
N9    N     N_R   0.462246 0.076932 0.269160 0.157704
O65   O     O_R   0.443799 0.056071 0.201599 -0.252340
O66   O     O_R   0.522058 0.084996 0.333276 -0.314051
N10   N     N_R   0.584897 0.947889 0.775503 0.141002
O67   O     O_R   0.595311 0.986364 0.762596 -0.367954
O68   O     O_R   0.566098 0.944266 0.815649 -0.308695
N11   N     N_R   0.497119 0.133908 0.613110 0.093363
O69   O     O_R   0.459245 0.109681 0.609931 -0.322123
O70   O     O_R   0.475610 0.169744 0.568532 -0.366204
N12   N     N_R   0.405576 0.951460 0.219316 0.147632
O71   O     O_R   0.392779 0.988292 0.233771 -0.336394
O72   O     O_R   0.420828 0.951085 0.174539 -0.286691
N13   N     N_R   0.957436 0.574141 0.262630 0.163751
O73   O     O_R   0.936832 0.554742 0.192640 -0.252945
O74   O     O_R   0.017827 0.580186 0.326278 -0.320040
N14   N     N_R   0.042443 0.425793 0.737219 0.162967
O75   O     O_R   0.062991 0.445209 0.807163 -0.254472
O76   O     O_R   0.982064 0.419701 0.673548 -0.325745
N15   N     N_R   0.094330 0.548651 0.780346 0.147844
O77   O     O_R   0.107940 0.511948 0.766714 -0.334720
O78   O     O_R   0.078779 0.548907 0.824762 -0.286915
N16   N     N_R   0.905597 0.451371 0.219615 0.147784
O79   O     O_R   0.891967 0.488061 0.233250 -0.335378
O80   O     O_R   0.921126 0.451135 0.175172 -0.287335

loop_
_geom_bond_atom_site_label_1
_geom_bond_atom_site_label_2
_geom_bond_distance
_ccdc_geom_bond_type
C58   C66   1.392587 A    
O48   Cu12  1.974981 S    
H2    C98   1.084395 S    
O45   Cu12  1.976221 S    
C60   C68   1.392333 A    
O8    C8    1.293763 A    
O36   C124  1.236582 A    
O2    C2    1.294092 A    
C112  N16   1.436594 S    
C29   C37   1.479760 S    
N7    O61   1.301695 A    
O26   C10   1.316237 A    
O16   Cu3   1.973635 S    
O7    Cu7   1.976956 S    
C52   C60   1.398800 A    
C24   C32   1.247558 T    
C61   C69   1.393856 A    
N2    O51   1.301708 A    
C102  C110  1.384186 A    
C31   C39   1.479770 S    
O36   Cu9   1.974780 S    
C27   C35   1.479795 S    
C105  C113  1.418120 A    
N11   O69   1.300868 A    
O34   Cu10  1.974400 S    
O30   Cu1   1.829266 S    
C59   C67   1.393136 A    
O33   Cu9   1.974401 S    
O45   C125  1.234605 A    
O22   Cu6   1.831849 S    
O11   C3    1.292528 A    
O43   C123  1.246525 A    
N1    O49   1.301602 A    
C34   C36   1.247588 T    
O12   C4    1.298089 A    
C50   C58   1.398672 A    
C47   C87   1.415895 A    
C2    C90   1.453183 S    
O42   Cu9   1.976221 S    
C49   C57   1.397400 A    
C30   C38   1.479721 S    
C8    C96   1.455383 S    
O6    Cu6   1.976529 S    
O41   Cu10  1.976221 S    
Cu3   Cu8   2.687996 S    
H6    C102  1.085146 S    
O18   Cu2   1.831849 S    
C63   H23   1.082593 S    
C15   C23   1.505740 S    
C38   C40   1.247589 T    
C66   C74   1.414610 A    
N11   O70   1.301148 A    
O14   Cu1   1.973201 S    
C109  N13   1.435599 S    
C44   C84   1.415966 A    
C93   C101  1.387709 A    
Cu1   Cu6   2.688597 S    
C4    C92   1.455788 S    
C71   C79   1.414032 A    
N16   O80   1.301343 A    
C5    C93   1.444383 S    
N6    O59   1.301769 A    
C22   C30   1.247513 T    
O20   C12   1.316244 A    
C55   C63   1.398862 A    
N13   O73   1.301324 A    
O1    Cu1   1.976530 S    
C97   C105  1.383240 A    
C90   C98   1.394781 A    
O10   Cu5   1.973201 S    
O32   C16   1.316817 A    
N12   O72   1.301332 A    
O2    Cu2   1.976529 S    
C19   C27   1.247565 T    
C109  C117  1.418142 A    
C70   H30   1.079938 S    
C44   C52   1.403663 A    
C105  N9    1.434537 S    
C47   H15   1.079221 S    
H3    C99   1.084881 S    
C7    C95   1.455363 S    
N8    O64   1.301589 A    
C112  C120  1.408213 A    
O3    C3    1.296163 A    
H1    C97   1.085206 S    
C42   C82   1.415745 A    
O27   C11   1.316533 A    
N5    O57   1.301734 A    
O48   C128  1.243836 A    
C65   C73   1.414978 A    
C62   C70   1.393894 A    
Cu4   Cu7   2.687996 S    
C11   C19   1.505776 S    
C1    C89   1.440379 S    
C89   C97   1.386916 A    
C100  C108  1.386538 A    
O6    C6    1.292168 A    
O15   C7    1.298002 A    
O31   Cu4   1.830116 S    
C115  C126  1.457743 S    
C101  C109  1.384186 A    
O16   C8    1.298023 A    
O23   C15   1.316287 A    
N9    O65   1.302000 A    
C107  C115  1.411539 A    
O24   Cu8   1.830963 S    
O8    Cu8   1.976957 S    
C33   C35   1.247591 T    
C10   C18   1.505669 S    
O42   C122  1.234439 A    
O33   C121  1.238048 A    
O41   C121  1.234433 A    
O47   Cu11  1.974985 S    
C72   C80   1.414024 A    
O19   Cu3   1.830967 S    
C110  C118  1.418162 A    
O4    Cu4   1.976957 S    
O17   Cu1   1.831845 S    
C37   C39   1.247588 T    
O10   C2    1.296735 A    
C50   N2    1.440676 S    
C94   C102  1.387741 A    
Cu2   Cu5   2.688597 S    
C59   H19   1.082561 S    
N10   O68   1.301369 A    
O43   Cu9   1.974985 S    
C53   C61   1.399103 A    
C110  N14   1.435613 S    
C68   C76   1.414008 A    
C43   C51   1.402704 A    
N15   O77   1.300720 A    
C80   C88   1.411954 A    
C69   C77   1.414568 A    
O25   C9    1.316239 A    
C42   C50   1.403244 A    
N14   O76   1.301277 A    
C104  C112  1.386242 A    
C25   C33   1.479728 S    
C85   C93   1.410620 A    
O34   C122  1.238054 A    
C56   C64   1.398861 A    
C67   H27   1.080280 S    
O3    Cu3   1.976956 S    
C52   N4    1.440714 S    
C75   C115  1.421218 A    
Cu9   Cu10  2.492979 S    
O31   C15   1.316465 A    
N2    O52   1.301631 A    
C46   C54   1.402338 A    
C55   N7    1.440707 S    
C41   C81   1.415210 A    
C73   C113  1.428071 A    
N13   O74   1.301243 A    
O5    C5    1.292169 A    
C79   C87   1.411949 A    
C45   C85   1.414204 A    
C118  C123  1.466594 S    
C45   H13   1.081123 S    
C43   C83   1.415001 A    
N12   O71   1.300894 A    
C106  C114  1.410906 A    
C78   C118  1.423353 A    
C48   C56   1.403652 A    
O35   C123  1.236632 A    
H5    C101  1.085117 S    
N3    O53   1.301727 A    
C74   C82   1.411290 A    
C17   C25   1.247498 T    
C114  C127  1.451497 S    
O44   C124  1.246533 A    
O47   C127  1.235554 A    
N8    O63   1.301686 A    
C65   H25   1.075834 S    
N7    O62   1.301629 A    
C3    C91   1.449548 S    
O15   Cu4   1.973634 S    
C12   C20   1.505776 S    
N4    O56   1.301607 A    
C54   C62   1.399110 A    
N5    O58   1.301627 A    
C51   C59   1.398775 A    
C51   N3    1.440628 S    
C108  C116  1.408499 A    
C57   C65   1.393501 A    
O18   C10   1.316851 A    
C106  N10   1.439093 S    
O9    C1    1.291468 A    
C41   C49   1.401268 A    
C48   C88   1.415893 A    
C9    C17   1.505656 S    
C14   C22   1.505659 S    
C53   N5    1.440603 S    
N9    O66   1.301842 A    
C66   H26   1.080856 S    
O44   Cu10  1.974981 S    
O14   C6    1.293731 A    
N16   O79   1.300708 A    
O39   C127  1.237189 A    
O28   C12   1.316526 A    
C28   C36   1.479795 S    
C79   C119  1.417193 A    
O29   C13   1.316244 A    
O38   C126  1.236752 A    
C82   C90   1.415517 A    
Cu11  Cu12  2.492979 S    
C91   C99   1.390593 A    
N10   O67   1.300884 A    
C44   H12   1.079151 S    
C18   C26   1.247498 T    
O5    Cu5   1.976530 S    
O25   Cu6   1.829261 S    
N15   O78   1.301334 A    
C92   C100  1.395664 A    
C108  N12   1.437425 S    
C60   H20   1.082563 S    
C70   C78   1.414595 A    
N3    O54   1.301593 A    
O27   Cu8   1.830116 S    
C103  C111  1.386253 A    
C69   H29   1.079940 S    
C74   C114  1.418975 A    
O38   Cu12  1.974400 S    
O39   Cu12  1.974784 S    
C23   C31   1.247545 T    
N14   O75   1.301307 A    
H4    C100  1.084248 S    
C117  C124  1.466557 S    
C111  C119  1.408235 A    
C46   C86   1.414241 A    
C116  C125  1.450533 S    
C64   H24   1.082587 S    
O9    Cu6   1.973202 S    
O4    C4    1.293917 A    
C62   H22   1.082580 S    
O46   Cu11  1.976221 S    
C68   H28   1.081225 S    
O32   Cu3   1.830112 S    
H7    C103  1.084268 S    
C78   C86   1.412950 A    
C77   C117  1.423295 A    
H8    C104  1.084264 S    
C113  C128  1.469058 S    
O22   C14   1.316712 A    
N1    O50   1.301637 A    
C20   C28   1.247563 T    
C83   C91   1.413930 A    
C87   C95   1.417680 A    
C99   C107  1.383496 A    
C48   H16   1.079213 S    
C73   C81   1.412662 A    
C72   H32   1.081202 S    
O28   Cu7   1.830112 S    
C43   H11   1.080296 S    
O13   C5    1.293750 A    
O29   Cu2   1.829261 S    
O20   Cu4   1.830963 S    
O46   C126  1.239885 A    
O24   C16   1.315965 A    
O7    C7    1.293774 A    
O21   Cu5   1.831845 S    
C111  N15   1.436609 S    
C13   C21   1.505706 S    
C49   N1    1.440607 S    
C58   H18   1.082564 S    
C56   N8    1.440700 S    
C71   H31   1.081203 S    
O40   C128  1.241385 A    
N6    O60   1.301599 A    
C95   C103  1.395301 A    
C21   C29   1.247529 T    
C88   C96   1.417701 A    
C75   C83   1.412619 A    
N4    O55   1.301687 A    
C63   C71   1.392415 A    
C120  C121  1.451155 S    
O30   C14   1.316376 A    
O12   Cu7   1.973635 S    
C16   C24   1.505768 S    
C80   C120  1.417170 A    
C119  C122  1.451167 S    
C54   N6    1.440655 S    
O13   Cu2   1.973202 S    
C6    C94   1.444357 S    
C86   C94   1.410628 A    
O19   C11   1.316237 A    
C76   C116  1.417016 A    
O37   C125  1.237420 A    
C57   H17   1.082685 S    
O1    C1    1.291958 A    
C84   C92   1.417778 A    
O26   Cu5   1.829266 S    
C32   C40   1.479799 S    
O17   C9    1.316859 A    
C41   H9    1.081048 S    
O40   Cu11  1.974780 S    
C47   C55   1.403660 A    
C67   C75   1.414600 A    
C76   C84   1.411789 A    
C96   C104  1.395304 A    
O23   Cu7   1.830967 S    
C107  N11   1.432726 S    
O37   Cu11  1.974401 S    
C61   H21   1.082564 S    
C77   C85   1.412947 A    
C64   C72   1.392407 A    
C42   H10   1.079549 S    
C81   C89   1.408021 A    
O21   C13   1.316843 A    
O11   Cu8   1.973634 S    
O35   Cu10  1.974784 S    
C46   H14   1.081130 S    
C45   C53   1.402321 A    
C98   C106  1.386928 A    
C26   C34   1.479731 S    
