data_mof_unit_65917.cif
_audit_creation_date              2012-12-10T19:02:10-0500
_audit_creation_method            fapswitch 2.2
_symmetry_space_group_name_H-M    P1
_symmetry_Int_Tables_number       1
_space_group_crystal_system       triclinic
_cell_length_a                    13.361253
_cell_length_b                    14.261111
_cell_length_c                    16.735523
_cell_angle_alpha                 90.006295
_cell_angle_beta                  85.336634
_cell_angle_gamma                 90.007055
_cell_volume                      3178.33555523

loop_
_atom_site_label
_atom_site_type_symbol
_atom_type_description
_atom_site_fract_x
_atom_site_fract_y
_atom_site_fract_z
_atom_type_partial_charge
C1    C     C_R   0.500004 0.673475 0.500009 0.924078
C2    C     C_1   0.169404 0.499994 0.499985 0.102345
C3    C     C_1   0.950474 0.499988 0.500001 -0.034075
C4    C     C_1   0.049526 0.499989 0.499993 -0.033619
C5    C     C_R   0.486860 0.498828 0.656133 0.942911
C6    C     C_R   0.513246 0.500562 0.343900 0.933549
C7    C     C_R   0.478726 0.464504 0.738271 -0.187528
C8    C     C_R   0.521632 0.479830 0.258444 -0.196488
C9    C     C_R   0.559420 0.413712 0.765093 -0.285767
C10   C     C_R   0.433971 0.474129 0.218274 -0.286590
C11   C     C_R   0.550913 0.372086 0.840043 -0.148288
C12   C     C_R   0.499994 0.326530 0.500028 0.926710
C13   C     C_R   0.438390 0.442678 0.139755 -0.132974
C14   C     C_R   0.462623 0.383260 0.890249 0.101573
C15   C     C_R   0.530804 0.415532 0.100452 0.100695
C16   C     C_R   0.380101 0.429914 0.862314 -0.241340
C17   C     C_R   0.618840 0.423848 0.139779 -0.249958
C18   C     C_R   0.387838 0.470454 0.786380 0.624810
C19   C     C_R   0.614713 0.455752 0.218426 0.630923
C20   C     C_2   0.461460 0.363459 0.975932 -0.193929
C21   C     C_2   0.539836 0.390941 0.015292 -0.181071
C22   C     C_1   0.500012 0.774121 0.500024 -0.209664
C23   C     C_1   0.499987 0.225895 0.500059 -0.210476
C24   C     C_1   0.500012 0.858681 0.500042 0.003651
C25   C     C_1   0.499991 0.141338 0.500075 0.002935
C26   C     C_1   0.500006 0.957734 0.500064 0.018982
C27   C     C_1   0.500000 0.042287 0.500076 0.018763
C28   C     C_1   0.830596 0.499992 0.500012 0.108350
F1    F     F_    0.701224 0.460956 0.255518 -0.655728
F2    F     F_    0.307853 0.517183 0.760853 -0.658598
H1    H     H_    0.369589 0.442298 0.109965 0.145405
H2    H     H_    0.614629 0.334291 0.859999 0.150840
H3    H     H_    0.628870 0.405036 0.727679 0.185053
H4    H     H_    0.361661 0.493038 0.247902 0.184570
H5    H     H_    0.610648 0.408969 0.982301 0.155184
H6    H     H_    0.390052 0.345917 0.007959 0.151210
H7    H     H_    0.311719 0.439316 0.900926 0.160716
H8    H     H_    0.690973 0.405763 0.109376 0.163063
N1    N     N_1   0.738130 0.500000 0.500020 -0.051864
N2    N     N_1   0.261870 0.500000 0.499980 -0.054737
O1    O     O_R   0.423530 0.626280 0.499990 -0.594065
O2    O     O_R   0.576470 0.373720 0.500010 -0.594094
O3    O     O_R   0.576470 0.626280 0.500010 -0.598301
O4    O     O_R   0.423530 0.373720 0.499990 -0.598387
O5    O     O_R   0.414510 0.500000 0.615790 -0.551361
O6    O     O_R   0.585490 0.500000 0.384210 -0.542110
O7    O     O_R   0.567420 0.500000 0.615810 -0.630144
O8    O     O_R   0.432580 0.500000 0.384190 -0.627434
Zn1   Zn    Zn3+2 0.397910 0.500000 0.499990 1.004364
Zn2   Zn    Zn3+2 0.602090 0.500000 0.500010 1.007908

loop_
_geom_bond_atom_site_label_1
_geom_bond_atom_site_label_2
_ccdc_geom_bond_type
O4    Zn1   S    
C2    C4    S    
C5    C7    S    
O3    Zn2   S    
C15   C17   A    
C21   H5    S    
C14   C20   S    
C25   C27   S    
C9    C11   A    
O6    Zn2   S    
O5    Zn1   S    
C16   H7    S    
C7    C18   A    
C23   C25   T    
C1    C22   S    
C10   H4    S    
C9    H3    S    
C5    O7    A    
C12   C23   S    
C26   C27   T    
C6    O8    A    
O2    Zn2   S    
C18   F2    S    
C6    C8    S    
O1    Zn1   S    
O8    Zn1   S    
C17   C19   A    
C1    O3    A    
C11   H2    S    
O7    Zn2   S    
C22   C24   T    
C17   H8    S    
C13   C15   A    
C11   C14   A    
C14   C16   A    
C8    C19   A    
N2    Zn1   S    
C19   F1    S    
C2    N2    T    
C15   C21   S    
N1    Zn2   S    
C20   C21   D    
C16   C18   A    
C12   O4    A    
C1    O1    A    
C7    C9    A    
C3    C28   S    
C12   O2    A    
C6    O6    A    
C28   N1    T    
C5    O5    A    
C13   H1    S    
C8    C10   A    
C3    C4    T    
C24   C26   S    
C10   C13   A    
C20   H6    S    
