data_mof_unit_48045.cif
_audit_creation_date              2012-12-11T14:50:40-0500
_audit_creation_method            fapswitch 2.2
_symmetry_space_group_name_H-M    P1
_symmetry_Int_Tables_number       1
_space_group_crystal_system       triclinic
_cell_length_a                    20.662934
_cell_length_b                    7.07548
_cell_length_c                    20.427273
_cell_angle_alpha                 88.946777
_cell_angle_beta                  101.492269
_cell_angle_gamma                 88.622658
_cell_volume                      2924.93296312

loop_
_atom_site_label
_atom_site_type_symbol
_atom_type_description
_atom_site_fract_x
_atom_site_fract_y
_atom_site_fract_z
_atom_type_partial_charge
O1    O     O_R   0.423690 0.494470 0.435930 -0.537979
O2    O     O_R   0.576310 0.994470 0.564070 -0.538582
O3    O     O_R   0.556070 0.822310 0.435760 -0.537054
O4    O     O_R   0.443930 0.322310 0.564240 -0.536092
C1    C     C_R   0.575795 0.655137 0.420694 0.721736
C2    C     C_R   0.424192 0.155700 0.579241 0.729855
O5    O     O_R   0.422940 0.824080 0.428040 -0.532215
O6    O     O_R   0.577060 0.324080 0.571960 -0.541790
O7    O     O_R   0.442240 0.995960 0.556300 -0.535054
O8    O     O_R   0.557760 0.495960 0.443700 -0.536792
C3    C     C_R   0.398567 0.658873 0.410145 0.701206
C4    C     C_R   0.601654 0.151090 0.589109 0.707934
O9    O     O_3   0.506490 0.661310 0.542090 -0.369733
O10   O     O_3   0.493510 0.161310 0.457910 -0.367824
V1    V     V_3+5 0.498800 0.935560 0.492190 1.449624
V2    V     V_3+5 0.501200 0.435560 0.507810 1.435255
C5    C     C_R   0.838068 0.113290 0.857564 -0.085319
C6    C     C_R   0.161964 0.570894 0.143914 -0.085965
C7    C     C_R   0.661880 0.120779 0.642582 -0.086030
C8    C     C_R   0.338067 0.663006 0.355972 -0.086763
C9    C     C_R   0.752446 0.905383 0.696578 0.001776
C10   C     C_R   0.237118 0.832589 0.298828 0.024058
C11   C     C_R   0.698660 0.950283 0.644795 -0.213853
C12   C     C_R   0.291665 0.812334 0.352112 -0.184059
C13   C     C_R   0.680095 0.249534 0.693590 -0.205773
C14   C     C_R   0.328667 0.528103 0.305819 -0.192607
C15   C     C_R   0.731538 0.204351 0.749271 0.112839
C16   C     C_R   0.273047 0.538887 0.252045 0.099867
C17   C     C_R   0.768551 0.030051 0.750770 0.113687
C18   C     C_R   0.226870 0.694772 0.247935 0.098513
C19   C     C_R   0.819950 0.984747 0.806473 -0.210475
C20   C     C_R   0.171283 0.705625 0.194128 -0.198662
C21   C     C_R   0.801336 0.283863 0.855328 -0.208685
C22   C     C_R   0.208323 0.421468 0.147815 -0.177897
C23   C     C_R   0.747670 0.329056 0.803456 -0.005429
C24   C     C_R   0.262787 0.401026 0.201168 0.020838
H1    H     H_    0.847339 0.851915 0.810480 0.174058
H2    H     H_    0.132988 0.813244 0.191580 0.173671
H3    H     H_    0.813874 0.382886 0.895504 0.119090
H4    H     H_    0.200903 0.315730 0.109438 0.114564
H5    H     H_    0.686091 0.851165 0.604657 0.118592
H6    H     H_    0.299104 0.918120 0.390470 0.113264
H7    H     H_    0.652709 0.382362 0.689557 0.174399
H8    H     H_    0.366949 0.420448 0.308357 0.175293
C25   C     C_3   0.235124 0.318182 0.788959 0.189885
C26   C     C_3   0.764395 0.822037 0.211562 0.191303
C27   C     C_3   0.266157 0.970522 0.813660 -0.255289
C28   C     C_3   0.734219 0.481156 0.185983 -0.258091
C29   C     C_3   0.313768 0.973503 0.762706 -0.309558
C30   C     C_3   0.686620 0.482733 0.236928 -0.314256
H9    H     H_    0.337532 0.349714 0.775867 0.167085
H10   H     H_    0.661875 0.863436 0.224713 0.163662
H11   H     H_    0.260586 0.352391 0.840508 0.134088
H12   H     H_    0.738868 0.865985 0.160105 0.135908
H13   H     H_    0.246697 0.825193 0.813720 0.125401
H14   H     H_    0.754052 0.333648 0.185529 0.126031
H15   H     H_    0.366051 0.992352 0.787750 0.206918
H16   H     H_    0.634272 0.510791 0.211941 0.201650
H17   H     H_    0.312669 0.834155 0.738086 0.134444
H18   H     H_    0.688111 0.340007 0.261187 0.134740
C31   C     C_1   0.378582 0.147682 0.624842 -0.178323
C32   C     C_1   0.621396 0.646230 0.375136 -0.181613
C33   C     C_3   0.206257 0.113792 0.790379 0.154354
C34   C     C_3   0.793752 0.614522 0.209642 0.153338
C35   C     C_3   0.288430 0.321676 0.744235 -0.359845
C36   C     C_3   0.711055 0.825659 0.256277 -0.362307
C37   C     C_3   0.292229 0.131308 0.708511 0.175314
C38   C     C_3   0.707759 0.630942 0.291495 0.177152
C39   C     C_3   0.221916 0.089310 0.669091 -0.408380
C40   C     C_3   0.778176 0.575834 0.330833 -0.405464
C41   C     C_3   0.173199 0.056164 0.717747 0.169012
C42   C     C_3   0.826989 0.543687 0.282122 0.171725
C43   C     C_1   0.339941 0.140693 0.662564 -0.045161
C44   C     C_1   0.660041 0.639528 0.337423 -0.047580
C45   C     C_1   0.159085 0.098961 0.836987 -0.049226
C46   C     C_1   0.840919 0.600267 0.163020 -0.048216
C47   C     C_1   0.121051 0.088570 0.875213 -0.211624
C48   C     C_1   0.878949 0.590061 0.124786 -0.210616
H19   H     H_    0.165446 0.900694 0.718743 0.117150
H20   H     H_    0.835191 0.387518 0.280791 0.118099
H21   H     H_    0.204792 0.208868 0.633246 0.143065
H22   H     H_    0.794960 0.688716 0.366987 0.145490
H23   H     H_    0.277774 0.439494 0.706410 0.142875
H24   H     H_    0.721393 0.937259 0.294401 0.143500
H25   H     H_    0.223858 0.961147 0.638654 0.133057
H26   H     H_    0.776578 0.443853 0.360926 0.135964
O11   O     O_R   0.942280 0.741210 0.056360 -0.535164
O12   O     O_R   0.057720 0.241210 0.943640 -0.533914
O13   O     O_R   0.077070 0.409690 0.071960 -0.532117
O14   O     O_R   0.922930 0.909690 0.928040 -0.540960
C49   C     C_R   0.101543 0.575121 0.089671 0.700812
C50   C     C_R   0.898225 0.082895 0.911092 0.705844
O15   O     O_R   0.943940 0.411580 0.064250 -0.538867
O16   O     O_R   0.056060 0.911580 0.935750 -0.538247
O17   O     O_R   0.923670 0.239840 0.935920 -0.538488
O18   O     O_R   0.076330 0.739840 0.064080 -0.536317
C51   C     C_R   0.924132 0.580383 0.078946 0.721352
C52   C     C_R   0.075853 0.079766 0.921089 0.728442
O19   O     O_3   0.993540 0.572620 0.957940 -0.370301
O20   O     O_3   0.006460 0.072620 0.042060 -0.367206
V3    V     V_3+5 0.001200 0.298330 0.007800 1.432786
V4    V     V_3+5 0.998800 0.798330 0.992200 1.419264
C53   C     C_2   0.301210 0.001159 0.885190 0.383244
H27   H     H_    0.278809 0.951294 0.925824 0.048910
O21   O     O_2   0.353264 0.083784 0.898361 -0.517102
C54   C     C_2   0.699052 0.525256 0.114555 0.389235
H28   H     H_    0.721479 0.477789 0.073780 0.054626
O22   O     O_2   0.646879 0.616070 0.101632 -0.516208
N1    N     N_2   0.109267 0.153545 0.694419 -0.505543
H29   H     H_    0.104993 0.242385 0.653131 0.253936
C55   C     C_3   0.051200 0.041944 0.693021 -0.525753
H30   H     H_    0.006364 0.135966 0.682558 0.211790
H31   H     H_    0.053237 0.968500 0.741896 0.205074
H32   H     H_    0.047494 0.935712 0.653161 0.188513
N2    N     N_2   0.890642 0.630926 0.305681 -0.500092
H33   H     H_    0.894660 0.713914 0.347166 0.254762
C56   C     C_3   0.949057 0.512754 0.306782 -0.559459
H34   H     H_    0.993604 0.600535 0.317347 0.201048
H35   H     H_    0.947172 0.445712 0.257769 0.205903
H36   H     H_    0.953161 0.401055 0.346448 0.188769
N3    N     N_2   0.185024 0.466675 0.765950 -0.530400
H37   H     H_    0.164044 0.474891 0.715809 0.270140
C57   C     C_3   0.143471 0.531687 0.810755 -0.512923
H38   H     H_    0.127279 0.680474 0.797600 0.181274
H39   H     H_    0.170608 0.525889 0.863512 0.185017
H40   H     H_    0.098673 0.445412 0.805224 0.228697
N4    N     N_2   0.814150 0.961759 0.234928 -0.529628
H41   H     H_    0.834863 0.961446 0.285139 0.269411
C58   C     C_3   0.856093 0.025956 0.190535 -0.520029
H42   H     H_    0.872112 0.171157 0.203741 0.179910
H43   H     H_    0.829343 0.029318 0.137639 0.188643
H44   H     H_    0.901019 0.933177 0.196476 0.226071
C59   C     C_2   0.789597 0.726413 0.690403 0.314469
H45   H     H_    0.763380 0.606469 0.666814 0.054067
O23   O     O_2   0.849669 0.714263 0.707050 -0.534263
C60   C     C_2   0.193978 0.003565 0.299373 0.363975
H46   H     H_    0.189158 0.063106 0.346833 0.033194
O24   O     O_2   0.167127 0.087135 0.247999 -0.537730
C61   C     C_2   0.710713 0.508431 0.809543 0.347463
H47   H     H_    0.737050 0.628110 0.833192 0.052348
O25   O     O_2   0.650666 0.521253 0.792763 -0.517300
C62   C     C_2   0.305821 0.229796 0.200713 0.382128
H48   H     H_    0.310610 0.169966 0.153287 0.050509
O26   O     O_2   0.332612 0.146342 0.252132 -0.534765

loop_
_geom_bond_atom_site_label_1
_geom_bond_atom_site_label_2
_ccdc_geom_bond_type
C36   C38   S    
O18   V4    S    
C15   C17   A    
C12   H6    S    
C55   H30   S    
O1    C3    A    
O2    C4    A    
C13   H7    S    
C2    O7    A    
C41   H19   S    
O12   V3    S    
C14   H8    S    
C57   H38   S    
C27   C29   S    
O5    C3    A    
C42   N2    S    
C21   H3    S    
C33   C45   S    
C22   H4    S    
C6    C49   S    
C2    C31   S    
C46   C48   T    
C26   C36   S    
C56   H35   S    
C27   C33   S    
C57   H39   S    
C35   C37   S    
C54   H28   S    
O16   C52   A    
C38   C44   S    
N2    H33   S    
C29   H15   S    
H9    C35   S    
C39   C41   S    
C24   C62   S    
O14   V4    S    
N1    C55   S    
C23   C61   S    
C49   O18   A    
C53   O21   D    
C28   C54   S    
C8    C12   A    
N2    C56   S    
O19   V4    S    
C37   C43   S    
C20   H2    S    
O13   C49   A    
C29   C37   S    
C22   C24   A    
C58   H44   S    
C54   O22   D    
C28   C30   S    
C25   H11   S    
O6    V2    S    
C5    C50   S    
C5    C21   A    
C40   H22   S    
C9    C59   S    
C31   C43   T    
C3    C8    S    
C27   C53   S    
C30   H16   S    
C26   N4    S    
C39   H21   S    
C60   O24   D    
C56   H36   S    
O15   V3    S    
C57   H40   S    
C15   C23   A    
C9    C17   A    
C25   C33   S    
C50   O17   A    
C19   H1    S    
C26   C34   S    
C37   C39   S    
C35   H23   S    
O4    V2    S    
C7    C11   A    
N4    C58   S    
O11   V4    S    
C6    C22   A    
O14   C50   A    
O6    C4    A    
C26   H12   S    
C48   C51   S    
O20   V4    S    
C34   C46   S    
C47   C52   S    
C55   H31   S    
O1    V2    S    
O2    V1    S    
C45   C47   T    
C16   C24   A    
N3    H37   S    
O4    C2    A    
O19   V3    S    
C33   C41   S    
C9    C11   A    
C25   C35   S    
C59   H45   S    
C5    C19   A    
C10   C12   A    
C6    C20   A    
N4    H41   S    
C40   H26   S    
O15   C51   A    
C39   H25   S    
C27   H13   S    
C58   H42   S    
C28   H14   S    
C10   C18   A    
O13   V3    S    
O10   V1    S    
C60   H46   S    
O3    C1    A    
C11   H5    S    
C61   H47   S    
C13   C15   A    
C14   C16   A    
C29   H17   S    
C25   N3    S    
C16   C18   A    
O7    V1    S    
C30   H18   S    
C1    O8    A    
C42   H20   S    
O8    V2    S    
N1    H29   S    
C18   C20   A    
C61   O25   D    
C8    C14   A    
C41   N1    S    
C4    C7    S    
O5    V1    S    
O20   V3    S    
C21   C23   A    
C1    C32   S    
C55   H32   S    
C62   O26   D    
C34   C42   S    
C7    C13   A    
N3    C57   S    
C28   C34   S    
C36   H24   S    
H10   C36   S    
O16   V4    S    
C17   C19   A    
O9    V2    S    
C10   C60   S    
C53   H27   S    
C59   O23   D    
C38   C40   S    
C62   H48   S    
C32   C44   T    
O3    V1    S    
C40   C42   S    
O11   C51   A    
C56   H34   S    
C30   C38   S    
O12   C52   A    
O17   V3    S    
C58   H43   S    
