data_mof_unit_60904.cif
_audit_creation_date              2012-10-26T17:48:21-0400
_audit_creation_method            fapswitch 2.2
_symmetry_space_group_name_H-M    P1
_symmetry_Int_Tables_number       1
_space_group_crystal_system       triclinic
_cell_length_a                    21.919327
_cell_length_b                    21.919453
_cell_length_c                    47.198485
_cell_angle_alpha                 89.998923
_cell_angle_beta                  90.003389
_cell_angle_gamma                 90.000569
_cell_volume                      22676.9679149

loop_
_atom_site_label
_atom_site_type_symbol
_atom_type_description
_atom_site_fract_x
_atom_site_fract_y
_atom_site_fract_z
_atom_type_partial_charge
Br1   Br    Br    0.679472 0.116345 0.967046 -0.364966
Br2   Br    Br    0.928282 0.820525 0.946231 -0.326513
Br3   Br    Br    0.179469 0.928285 0.946233 -0.326577
Br4   Br    Br    0.071701 0.179480 0.946229 -0.326522
Br5   Br    Br    0.320510 0.571668 0.446215 -0.326408
Br6   Br    Br    0.428283 0.320526 0.446230 -0.326414
Br7   Br    Br    0.679470 0.428282 0.446234 -0.326428
Br8   Br    Br    0.571693 0.679481 0.446226 -0.326435
Br9   Br    Br    0.485382 0.131332 0.849877 -0.412209
Br10  Br    Br    0.868719 0.484760 0.849882 -0.412341
Br11  Br    Br    0.514620 0.868681 0.849877 -0.412168
Br12  Br    Br    0.883637 0.679481 0.967059 -0.364914
Br13  Br    Br    0.131240 0.515226 0.849878 -0.412340
Br14  Br    Br    0.984656 0.631252 0.349879 -0.412511
Br15  Br    Br    0.368737 0.984696 0.349878 -0.412459
Br16  Br    Br    0.015348 0.368761 0.349879 -0.412513
Br17  Br    Br    0.631241 0.015296 0.349881 -0.412479
Br18  Br    Br    0.320515 0.883637 0.967062 -0.364975
Br19  Br    Br    0.116350 0.320523 0.967055 -0.364897
Br20  Br    Br    0.179471 0.616336 0.467040 -0.364955
Br21  Br    Br    0.383639 0.179480 0.467057 -0.364877
Br22  Br    Br    0.820512 0.383630 0.467068 -0.365014
Br23  Br    Br    0.616345 0.820524 0.467052 -0.364867
Br24  Br    Br    0.820516 0.071695 0.946223 -0.326569
C1    C     C_R   0.996675 0.882401 0.000006 0.572249
C2    C     C_R   0.484483 0.053236 0.219896 -0.005142
C3    C     C_R   0.459082 0.962253 0.100647 0.199909
C4    C     C_R   0.537661 0.959017 0.600647 0.199850
C5    C     C_R   0.040849 0.537789 0.600652 0.199883
C6    C     C_R   0.462356 0.041014 0.600642 0.199847
C7    C     C_R   0.959086 0.462226 0.600643 0.199852
C8    C     C_R   0.000007 0.500013 0.085627 0.013724
C9    C     C_R   0.500000 0.999996 0.085628 0.013690
C10   C     C_R   0.500006 0.000010 0.585625 0.013786
C11   C     C_R   0.999979 0.500004 0.585627 0.013809
C12   C     C_R   0.000007 0.500024 0.145269 0.140725
C13   C     C_R   0.946769 0.484470 0.219894 -0.005160
C14   C     C_R   0.500003 0.999991 0.145270 0.140667
C15   C     C_R   0.500007 0.000019 0.645268 0.140561
C16   C     C_R   0.999953 0.500002 0.645270 0.140710
C17   C     C_2   0.683784 0.998918 0.995143 -0.127550
C18   C     C_2   0.001082 0.683785 0.995143 -0.127578
C19   C     C_2   0.316214 0.001080 0.995144 -0.127572
C20   C     C_2   0.998917 0.316215 0.995143 -0.127571
C21   C     C_2   0.183784 0.498918 0.495144 -0.127582
C22   C     C_2   0.501082 0.183785 0.495142 -0.127605
C23   C     C_2   0.816214 0.501080 0.495144 -0.127558
C24   C     C_R   0.515511 0.946748 0.219899 -0.005144
C25   C     C_2   0.498916 0.816215 0.495143 -0.127604
C26   C     C_2   0.783367 0.037201 0.979737 0.166441
C27   C     C_2   0.962791 0.783371 0.979741 0.166442
C28   C     C_2   0.216626 0.962790 0.979743 0.166444
C29   C     C_2   0.037201 0.216631 0.979740 0.166440
C30   C     C_2   0.283366 0.537195 0.479734 0.166446
C31   C     C_2   0.462792 0.283371 0.479741 0.166442
C32   C     C_2   0.716626 0.462788 0.479744 0.166435
C33   C     C_2   0.537199 0.716631 0.479739 0.166443
C34   C     C_2   0.816160 0.010696 0.000599 -0.112233
C35   C     C_R   0.553351 0.015170 0.719902 -0.005105
C36   C     C_2   0.989305 0.816160 0.000602 -0.112231
C37   C     C_2   0.183839 0.989301 0.000604 -0.112241
C38   C     C_2   0.010694 0.183840 0.000601 -0.112237
C39   C     C_2   0.316160 0.510701 0.500600 -0.112270
C40   C     C_2   0.489306 0.316160 0.500602 -0.112234
C41   C     C_2   0.683839 0.489301 0.500604 -0.112260
C42   C     C_2   0.510695 0.683840 0.500601 -0.112246
C43   C     C_R   0.500000 0.000000 0.945411 0.565447
C44   C     C_R   0.999998 0.499999 0.945411 0.565425
C45   C     C_R   0.000000 0.500000 0.445411 0.565429
C46   C     C_R   0.984433 0.553238 0.719898 -0.005134
C47   C     C_R   0.499998 1.000000 0.445411 0.565421
C48   C     C_R   0.617534 0.000062 0.998525 0.554634
C49   C     C_R   0.999938 0.617534 0.998525 0.554628
C50   C     C_R   0.382466 0.999938 0.998525 0.554644
C51   C     C_R   0.000061 0.382466 0.998525 0.554662
C52   C     C_R   0.117534 0.500062 0.498526 0.554712
C53   C     C_R   0.499939 0.117534 0.498524 0.554632
C54   C     C_R   0.882466 0.499938 0.498525 0.554611
C55   C     C_R   0.500061 0.882466 0.498525 0.554667
C56   C     C_R   0.499998 0.999999 0.054455 0.565447
C57   C     C_R   0.446654 0.984871 0.719898 -0.005095
C58   C     C_R   0.000002 0.500001 0.054454 0.565514
C59   C     C_R   0.000003 0.500000 0.554455 0.565693
C60   C     C_R   0.500002 0.000000 0.554454 0.565625
C61   C     C_R   0.947834 0.484547 0.190099 0.410596
C62   C     C_R   0.515447 0.947812 0.190104 0.410592
C63   C     C_R   0.052174 0.515503 0.190103 0.410598
C64   C     C_R   0.484553 0.052171 0.190101 0.410587
C65   C     C_R   0.447724 0.984915 0.690103 0.410565
C66   C     C_R   0.015400 0.447819 0.690103 0.410579
C67   C     C_R   0.552283 0.015128 0.690106 0.410568
C68   C     C_R   0.015466 0.446751 0.719898 -0.005130
C69   C     C_R   0.984491 0.552172 0.690103 0.410587
C70   C     C_3   0.043889 0.364162 0.081701 -0.008855
C71   C     C_3   0.084628 0.320304 0.065391 -0.338777
C72   C     C_3   0.635781 0.043947 0.081657 -0.008834
C73   C     C_3   0.679606 0.084732 0.065352 -0.338701
C74   C     C_3   0.956172 0.635838 0.081648 -0.008816
C75   C     C_3   0.915421 0.679711 0.065349 -0.338743
C76   C     C_3   0.364199 0.956015 0.081675 -0.008858
C77   C     C_3   0.320393 0.915246 0.065348 -0.338714
C78   C     C_3   0.543772 0.864099 0.581708 -0.008912
C79   C     C_R   0.000003 0.500020 0.234921 -0.053091
C80   C     C_3   0.584482 0.820219 0.565395 -0.338803
C81   C     C_3   0.135845 0.544257 0.581822 -0.008988
C82   C     C_3   0.179532 0.584991 0.565409 -0.338816
C83   C     C_3   0.456305 0.135891 0.581653 -0.008868
C84   C     C_3   0.415590 0.179795 0.565354 -0.338765
C85   C     C_3   0.864215 0.455894 0.581662 -0.008862
C86   C     C_3   0.820460 0.415088 0.565325 -0.338680
C87   C     C_3   0.667772 0.110013 0.778337 0.008788
C88   C     C_3   0.723469 0.126714 0.795912 -0.303731
C89   C     C_3   0.888748 0.666926 0.778342 0.008799
C90   C     C_R   0.499996 0.999992 0.234922 -0.053087
C91   C     C_3   0.871626 0.722504 0.795909 -0.303712
C92   C     C_3   0.332177 0.890046 0.778310 0.008775
C93   C     C_3   0.276495 0.873362 0.795897 -0.303724
C94   C     C_3   0.111173 0.333059 0.778341 0.008801
C95   C     C_3   0.128300 0.277482 0.795910 -0.303711
C96   C     C_3   0.166801 0.611400 0.278357 0.008805
C97   C     C_3   0.222374 0.628595 0.295917 -0.303669
C98   C     C_3   0.388761 0.166917 0.278328 0.008777
C99   C     C_3   0.371622 0.222484 0.295899 -0.303662
C100  C     C_3   0.833214 0.388623 0.278346 0.008805
C101  C     C_R   0.500002 0.000018 0.734924 -0.053070
C102  C     C_3   0.777645 0.371421 0.295903 -0.303673
C103  C     C_3   0.611226 0.833079 0.278348 0.008786
C104  C     C_3   0.628363 0.777510 0.295920 -0.303661
C105  C     C_R   0.117599 0.996674 0.000007 0.572245
C106  C     C_R   0.999952 0.499994 0.734923 -0.053078
C107  C     C_R   0.106205 0.531147 0.234855 -0.101886
C108  C     C_R   0.468950 0.106215 0.234850 -0.101912
C109  C     C_R   0.893801 0.468892 0.234847 -0.101878
C110  C     C_R   0.531042 0.893769 0.234856 -0.101905
C111  C     C_R   0.606439 0.030321 0.734858 -0.101934
C112  C     C_R   0.968906 0.606217 0.734853 -0.101913
C113  C     C_R   0.393563 0.969723 0.734851 -0.101957
C114  C     C_R   0.030997 0.393771 0.734853 -0.101908
C115  C     C_R   0.606982 0.031580 0.764525 0.263862
C116  C     C_R   0.003325 0.117599 0.000006 0.572243
C117  C     C_R   0.967639 0.606748 0.764519 0.263873
C118  C     C_R   0.393018 0.968458 0.764517 0.263864
C119  C     C_R   0.032277 0.393239 0.764520 0.263872
C120  C     C_R   0.106733 0.532430 0.264521 0.263869
C121  C     C_R   0.467666 0.106746 0.264516 0.263878
C122  C     C_R   0.893274 0.467600 0.264513 0.263870
C123  C     C_R   0.532320 0.893240 0.264522 0.263876
C124  C     C_R   0.553886 0.015209 0.779890 0.038787
C125  C     C_R   0.984391 0.553771 0.779887 0.038752
C126  C     C_R   0.446115 0.984821 0.779887 0.038819
C127  C     C_R   0.882401 0.003326 0.000006 0.572247
C128  C     C_R   0.015533 0.446216 0.779887 0.038751
C129  C     C_R   0.053768 0.515630 0.279887 0.038710
C130  C     C_R   0.484415 0.053769 0.279885 0.038740
C131  C     C_R   0.946238 0.484396 0.279883 0.038705
C132  C     C_R   0.515567 0.946217 0.279888 0.038734
C133  C     C_R   0.500001 0.000016 0.764937 -0.109344
C134  C     C_R   0.999959 0.499994 0.764936 -0.109340
C135  C     C_R   0.000003 0.500015 0.264933 -0.109339
C136  C     C_R   0.499993 0.999993 0.264935 -0.109351
C137  C     C_R   0.552697 0.013872 0.809778 0.464423
C138  C     C_R   0.496675 0.382401 0.500007 0.572235
C139  C     C_R   0.985750 0.552593 0.809775 0.464399
C140  C     C_R   0.447305 0.986148 0.809774 0.464452
C141  C     C_R   0.014190 0.447394 0.809775 0.464400
C142  C     C_R   0.052592 0.514271 0.309774 0.464374
C143  C     C_R   0.485762 0.052591 0.309773 0.464403
C144  C     C_R   0.947415 0.485748 0.309771 0.464367
C145  C     C_R   0.514215 0.947396 0.309776 0.464394
C146  C     C_R   0.494235 0.055139 0.869363 0.190572
C147  C     C_R   0.944875 0.493979 0.869364 0.190607
C148  C     C_R   0.505766 0.944871 0.869362 0.190580
C149  C     C_R   0.617599 0.496674 0.500007 0.572230
C150  C     C_R   0.055092 0.506009 0.869362 0.190609
C151  C     C_R   0.993939 0.555107 0.369361 0.190613
C152  C     C_R   0.444886 0.993952 0.369362 0.190614
C153  C     C_R   0.006064 0.444902 0.369361 0.190614
C154  C     C_R   0.555096 0.006041 0.369363 0.190605
C155  C     C_R   0.494422 0.054979 0.898976 -0.098187
C156  C     C_R   0.945039 0.494174 0.898977 -0.098178
C157  C     C_R   0.505579 0.945027 0.898975 -0.098196
C158  C     C_R   0.054940 0.505817 0.898975 -0.098176
C159  C     C_R   0.994133 0.554948 0.398975 -0.098165
C160  C     C_R   0.503325 0.617599 0.500006 0.572219
C161  C     C_R   0.445046 0.994147 0.398975 -0.098179
C162  C     C_R   0.005870 0.445058 0.398975 -0.098172
C163  C     C_R   0.554941 0.005849 0.398976 -0.098171
C164  C     C_R   0.500000 0.000002 0.914072 -0.045653
C165  C     C_R   0.999993 0.499997 0.914072 -0.045595
C166  C     C_R   0.000001 0.500002 0.414071 -0.045575
C167  C     C_R   0.499995 0.999999 0.414072 -0.045581
C168  C     C_2   0.716560 0.044010 0.982931 0.152333
C169  C     C_2   0.955983 0.716564 0.982935 0.152324
C170  C     C_2   0.283434 0.955982 0.982938 0.152312
C171  C     C_R   0.382401 0.503327 0.500006 0.572221
C172  C     C_2   0.044010 0.283438 0.982935 0.152326
C173  C     C_2   0.216560 0.544006 0.482929 0.152279
C174  C     C_2   0.455985 0.216564 0.482934 0.152318
C175  C     C_2   0.783434 0.455980 0.482939 0.152303
C176  C     C_2   0.544008 0.783438 0.482933 0.152317
C177  C     C_R   0.500001 0.000006 0.854374 0.244060
C178  C     C_R   0.999980 0.499994 0.854374 0.244070
C179  C     C_R   0.000002 0.500006 0.354372 0.244101
C180  C     C_R   0.499990 0.999996 0.354373 0.244092
C181  C     C_R   0.038020 0.459934 0.130319 -0.053181
C182  C     C_R   0.053238 0.515573 0.219898 -0.005159
C183  C     C_R   0.540062 0.038035 0.130318 -0.053118
C184  C     C_R   0.961997 0.540112 0.130313 -0.053122
C185  C     C_R   0.459943 0.961948 0.130316 -0.053161
C186  C     C_R   0.537953 0.959867 0.630316 -0.053203
C187  C     C_R   0.039982 0.538084 0.630321 -0.053351
C188  C     C_R   0.462063 0.040171 0.630310 -0.053136
C189  C     C_R   0.959932 0.461925 0.630312 -0.053147
C190  C     C_R   0.037716 0.459068 0.100650 0.199906
C191  C     C_R   0.540920 0.037735 0.100650 0.199904
C192  C     C_R   0.962302 0.540970 0.100645 0.199901
Cu1   Cu    Cu3+1 0.000000 0.000000 0.028140 0.963814
Cu2   Cu    Cu3+1 0.438930 0.000010 0.500000 1.072979
Cu3   Cu    Cu3+1 0.999990 0.438930 0.500000 1.072977
Cu4   Cu    Cu3+1 0.561070 0.999990 0.500000 1.072997
Cu5   Cu    Cu3+1 0.500000 0.500000 0.528140 0.963810
Cu6   Cu    Cu3+1 1.000000 1.000000 0.971860 1.205249
Cu7   Cu    Cu3+1 0.500000 0.500000 0.471860 1.205380
Cu8   Cu    Cu3+1 0.500010 0.061070 0.000000 1.072931
Cu9   Cu    Cu3+1 0.938930 0.500010 0.000000 1.072986
Cu10  Cu    Cu3+1 0.499990 0.938930 0.000000 1.072955
Cu11  Cu    Cu3+1 0.061070 0.499990 0.000000 1.072996
Cu12  Cu    Cu3+1 0.000010 0.561070 0.500000 1.073009
H1    H     H_    0.706264 0.956697 0.001195 0.087509
H2    H     H_    0.002392 0.793720 0.020216 0.060369
H3    H     H_    0.112072 0.283298 0.818040 0.214403
H4    H     H_    0.126083 0.633860 0.287959 0.166005
H5    H     H_    0.173601 0.628990 0.256448 0.123352
H6    H     H_    0.264013 0.607618 0.286703 0.174993
H7    H     H_    0.227927 0.678950 0.296105 0.120987
H8    H     H_    0.216619 0.612313 0.318043 0.214423
H9    H     H_    0.366222 0.126215 0.287908 0.165928
H10   H     H_    0.371219 0.173780 0.256415 0.123373
H11   H     H_    0.392692 0.264103 0.286711 0.175032
H12   H     H_    0.321275 0.228121 0.296064 0.120971
H13   H     H_    0.206282 0.002385 0.020218 0.060390
H14   H     H_    0.387846 0.216660 0.318030 0.214421
H15   H     H_    0.873936 0.366167 0.287950 0.166004
H16   H     H_    0.826417 0.371033 0.256437 0.123354
H17   H     H_    0.736004 0.392396 0.286688 0.174993
H18   H     H_    0.772096 0.321065 0.296090 0.120984
H19   H     H_    0.783399 0.387701 0.318029 0.214419
H20   H     H_    0.633752 0.873781 0.287934 0.165949
H21   H     H_    0.628782 0.826225 0.256437 0.123377
H22   H     H_    0.607304 0.735890 0.286726 0.175029
H23   H     H_    0.678710 0.771879 0.296094 0.120981
H24   H     H_    0.997612 0.206279 0.020215 0.060386
H25   H     H_    0.612125 0.783325 0.318048 0.214421
H26   H     H_    0.293723 0.497635 0.520217 0.060448
H27   H     H_    0.502393 0.293720 0.520216 0.060352
H28   H     H_    0.706281 0.502385 0.520218 0.060405
H29   H     H_    0.497616 0.706279 0.520215 0.060367
H30   H     H_    0.147747 0.542691 0.223632 0.175778
H31   H     H_    0.457445 0.147765 0.223625 0.175754
H32   H     H_    0.852260 0.457350 0.223622 0.175783
H33   H     H_    0.043306 0.706264 0.001192 0.087513
H34   H     H_    0.542551 0.852219 0.223632 0.175761
H35   H     H_    0.648071 0.041531 0.723635 0.175719
H36   H     H_    0.957396 0.647767 0.723629 0.175737
H37   H     H_    0.351930 0.958522 0.723624 0.175693
H38   H     H_    0.042502 0.352221 0.723629 0.175740
H39   H     H_    0.489868 0.097922 0.910119 0.184148
H40   H     H_    0.902120 0.489424 0.910122 0.184067
H41   H     H_    0.510133 0.902083 0.910119 0.184144
H42   H     H_    0.097864 0.510569 0.910119 0.184068
H43   H     H_    0.989343 0.597864 0.410119 0.184044
H44   H     H_    0.293736 0.043304 0.001192 0.087524
H45   H     H_    0.402128 0.989373 0.410119 0.184045
H46   H     H_    0.010659 0.402141 0.410119 0.184042
H47   H     H_    0.597860 0.010624 0.410120 0.184050
H48   H     H_    0.067365 0.428739 0.141766 0.161846
H49   H     H_    0.571239 0.067402 0.141763 0.161948
H50   H     H_    0.932654 0.571312 0.141756 0.161884
H51   H     H_    0.428768 0.932579 0.141759 0.161921
H52   H     H_    0.567245 0.928618 0.641760 0.162065
H53   H     H_    0.071124 0.567483 0.641769 0.161817
H54   H     H_    0.432774 0.071426 0.641751 0.162106
H55   H     H_    0.956694 0.293736 0.001193 0.087510
H56   H     H_    0.928776 0.432529 0.641752 0.161953
H57   H     H_    0.001938 0.372175 0.068881 0.125380
H58   H     H_    0.031103 0.342251 0.102163 0.133750
H59   H     H_    0.059482 0.277348 0.060992 0.092580
H60   H     H_    0.098686 0.341072 0.044954 0.197554
H61   H     H_    0.125998 0.309538 0.078021 0.174548
H62   H     H_    0.627735 0.002038 0.068813 0.125360
H63   H     H_    0.657733 0.031091 0.102101 0.133729
H64   H     H_    0.690407 0.126058 0.078006 0.174509
H65   H     H_    0.722547 0.059594 0.060915 0.092567
H66   H     H_    0.206265 0.456698 0.501199 0.087547
H67   H     H_    0.658791 0.098860 0.044935 0.197658
H68   H     H_    0.998070 0.627760 0.068802 0.125383
H69   H     H_    0.969055 0.657772 0.102092 0.133738
H70   H     H_    0.874111 0.690550 0.078005 0.174505
H71   H     H_    0.940600 0.722630 0.060912 0.092536
H72   H     H_    0.901264 0.658920 0.044931 0.197625
H73   H     H_    0.372205 0.997970 0.068857 0.125346
H74   H     H_    0.342252 0.968790 0.102129 0.133745
H75   H     H_    0.277417 0.940354 0.060943 0.092582
H76   H     H_    0.341191 0.901221 0.044913 0.197615
H77   H     H_    0.543307 0.206264 0.501192 0.087503
H78   H     H_    0.309655 0.873858 0.077969 0.174576
H79   H     H_    0.501813 0.872125 0.568894 0.125383
H80   H     H_    0.530994 0.842203 0.602175 0.133715
H81   H     H_    0.559333 0.777253 0.561021 0.092567
H82   H     H_    0.598496 0.840957 0.544945 0.197456
H83   H     H_    0.625879 0.809481 0.578012 0.174646
H84   H     H_    0.128079 0.502083 0.569127 0.125268
H85   H     H_    0.157767 0.531882 0.602336 0.133836
H86   H     H_    0.222686 0.560059 0.561168 0.092729
H87   H     H_    0.158801 0.598526 0.544888 0.197332
H88   H     H_    0.793736 0.543304 0.501190 0.087532
H89   H     H_    0.189937 0.626667 0.577886 0.174840
H90   H     H_    0.498203 0.127788 0.568810 0.125394
H91   H     H_    0.469193 0.157808 0.602100 0.133702
H92   H     H_    0.374275 0.190643 0.578006 0.174559
H93   H     H_    0.440793 0.222704 0.560927 0.092515
H94   H     H_    0.401437 0.159023 0.544931 0.197563
H95   H     H_    0.872188 0.497861 0.568848 0.125309
H96   H     H_    0.842240 0.468639 0.602114 0.133747
H97   H     H_    0.809758 0.373681 0.577940 0.174565
H98   H     H_    0.777461 0.440153 0.560917 0.092608
H99   H     H_    0.456694 0.793736 0.501194 0.087494
H100  H     H_    0.841284 0.401096 0.544890 0.197661
H101  H     H_    0.627247 0.132878 0.787911 0.165929
H102  H     H_    0.674782 0.127491 0.756424 0.123413
H103  H     H_    0.764919 0.105303 0.786730 0.174941
H104  H     H_    0.729512 0.177013 0.796073 0.121036
H105  H     H_    0.717507 0.110547 0.818044 0.214404
H106  H     H_    0.866215 0.626231 0.787930 0.165988
H107  H     H_    0.871189 0.673778 0.756431 0.123378
H108  H     H_    0.892694 0.764116 0.786713 0.174959
H109  H     H_    0.821280 0.728146 0.796081 0.121004
H110  H     H_    0.793722 0.997617 0.020214 0.060390
H111  H     H_    0.887865 0.716691 0.818039 0.214403
H112  H     H_    0.372700 0.867138 0.787866 0.165868
H113  H     H_    0.325120 0.872606 0.756394 0.123423
H114  H     H_    0.235048 0.894827 0.786736 0.174968
H115  H     H_    0.270408 0.823067 0.796040 0.121010
H116  H     H_    0.282510 0.889480 0.818033 0.214394
H117  H     H_    0.133710 0.373755 0.787928 0.165984
H118  H     H_    0.128722 0.326206 0.756430 0.123378
H119  H     H_    0.107226 0.235870 0.786716 0.174960
H120  H     H_    0.178646 0.271837 0.796079 0.121001
N1    N     N_R   0.000005 0.500026 0.175798 -0.386869
N2    N     N_R   0.500001 0.999991 0.175799 -0.386862
N3    N     N_R   0.500005 0.000021 0.675799 -0.386821
N4    N     N_R   0.999946 0.499997 0.675800 -0.386843
N5    N     N_R   0.500001 0.000008 0.823884 -0.386202
N6    N     N_R   0.999974 0.499994 0.823883 -0.386198
N7    N     N_R   0.000003 0.500008 0.323881 -0.386179
N8    N     N_R   0.499988 0.999994 0.323882 -0.386192
O1    O     O_R   0.999970 0.911020 0.023770 -0.525302
O2    O     O_R   0.088970 0.000000 0.976240 -0.446351
O3    O     O_R   1.000000 0.088970 0.976240 -0.446353
O4    O     O_R   0.911030 0.000000 0.976240 -0.446352
O5    O     O_R   0.500000 0.411030 0.476240 -0.446344
O6    O     O_R   0.588970 0.500000 0.476240 -0.446344
O7    O     O_R   0.500000 0.588970 0.476240 -0.446351
O8    O     O_R   0.411030 0.500000 0.476240 -0.446337
O9    O     O_R   0.500030 0.051590 0.958940 -0.495065
O10   O     O_R   0.948410 0.500030 0.958940 -0.495062
O11   O     O_R   0.499970 0.948410 0.958940 -0.495066
O12   O     O_R   0.088980 0.999970 0.023770 -0.525302
O13   O     O_R   0.051590 0.499970 0.958940 -0.495052
O14   O     O_R   0.000030 0.551590 0.458940 -0.495051
O15   O     O_R   0.448410 0.000030 0.458940 -0.495065
O16   O     O_R   0.999970 0.448410 0.458940 -0.495057
O17   O     O_R   0.551590 0.999970 0.458940 -0.495061
O18   O     O_R   0.589030 0.051570 0.000000 -0.465630
O19   O     O_R   0.948430 0.589030 0.000000 -0.465565
O20   O     O_R   0.410970 0.948430 0.000000 -0.465619
O21   O     O_R   0.051570 0.410970 0.000000 -0.465551
O22   O     O_R   0.089030 0.551570 0.500000 -0.465652
O23   O     O_R   0.000030 0.088980 0.023770 -0.525304
O24   O     O_R   0.448430 0.089030 0.500000 -0.465524
O25   O     O_R   0.910970 0.448430 0.500000 -0.465673
O26   O     O_R   0.551570 0.910970 0.500000 -0.465510
O27   O     O_R   0.589020 0.948510 0.000000 -0.512450
O28   O     O_R   0.051490 0.589020 0.000000 -0.512486
O29   O     O_R   0.410980 0.051490 0.000000 -0.512438
O30   O     O_R   0.948510 0.410980 0.000000 -0.512473
O31   O     O_R   0.089020 0.448510 0.500000 -0.512401
O32   O     O_R   0.551490 0.089020 0.500000 -0.512511
O33   O     O_R   0.910980 0.551490 0.500000 -0.512469
O34   O     O_R   0.911020 0.000030 0.023770 -0.525299
O35   O     O_R   0.448510 0.910980 0.500000 -0.512498
O36   O     O_R   0.499980 0.051580 0.041060 -0.481102
O37   O     O_R   0.948420 0.499980 0.041060 -0.481122
O38   O     O_R   0.500020 0.948420 0.041060 -0.481090
O39   O     O_R   0.051580 0.500020 0.041060 -0.481113
O40   O     O_R   0.999980 0.551580 0.541060 -0.480996
O41   O     O_R   0.448420 0.999980 0.541060 -0.481153
O42   O     O_R   0.000020 0.448420 0.541060 -0.481048
O43   O     O_R   0.551580 0.000020 0.541060 -0.481136
O44   O     O_2   0.897298 0.468606 0.175540 -0.490268
O45   O     O_R   0.499970 0.411020 0.523770 -0.525305
O46   O     O_2   0.531368 0.897268 0.175549 -0.490293
O47   O     O_2   0.102711 0.531446 0.175547 -0.490268
O48   O     O_2   0.468634 0.102715 0.175544 -0.490299
O49   O     O_2   0.397079 0.969306 0.675547 -0.490381
O50   O     O_2   0.031330 0.397278 0.675548 -0.490326
O51   O     O_2   0.602930 0.030740 0.675555 -0.490370
O52   O     O_2   0.968558 0.602715 0.675548 -0.490324
O53   O     O_2   0.603576 0.026205 0.824801 -0.402660
O54   O     O_2   0.973082 0.603389 0.824796 -0.402605
O55   O     O_2   0.396427 0.973807 0.824795 -0.402655
O56   O     O_R   0.588980 0.499970 0.523770 -0.525303
O57   O     O_2   0.026865 0.396598 0.824796 -0.402608
O58   O     O_2   0.103378 0.526976 0.324797 -0.402592
O59   O     O_2   0.473081 0.103385 0.324793 -0.402593
O60   O     O_2   0.896627 0.473039 0.324790 -0.402611
O61   O     O_2   0.526892 0.896602 0.324798 -0.402602
O62   O     O_3   0.075819 0.419177 0.086450 -0.530110
O63   O     O_3   0.580783 0.075872 0.086451 -0.530113
O64   O     O_3   0.924202 0.580864 0.086441 -0.530117
O65   O     O_3   0.419224 0.924117 0.086444 -0.530098
O66   O     O_3   0.575732 0.919099 0.586445 -0.530103
O67   O     O_R   0.500030 0.588980 0.523770 -0.525313
O68   O     O_3   0.080659 0.575971 0.586447 -0.530058
O69   O     O_3   0.424293 0.080940 0.586438 -0.530116
O70   O     O_3   0.919270 0.424049 0.586437 -0.530100
O71   O     O_3   0.660780 0.045960 0.778290 -0.503045
O72   O     O_3   0.952855 0.660438 0.778282 -0.503013
O73   O     O_3   0.339214 0.954095 0.778280 -0.503038
O74   O     O_3   0.047065 0.339548 0.778282 -0.503012
O75   O     O_3   0.160407 0.547283 0.278285 -0.502973
O76   O     O_3   0.452869 0.160433 0.278277 -0.502975
O77   O     O_3   0.839600 0.452742 0.278273 -0.502977
O78   O     O_R   0.411020 0.500030 0.523770 -0.525310
O79   O     O_3   0.547117 0.839553 0.278286 -0.502981
O80   O     O_R   0.000000 0.911030 0.976240 -0.446350

loop_
_geom_bond_atom_site_label_1
_geom_bond_atom_site_label_2
_ccdc_geom_bond_type
C129  C142  A    
C102  H18   S    
Cu8   O9    S    
C79   C182  A    
C42   H29   S    
C128  C141  A    
C34   C127  S    
C95   H119  S    
C78   H79   S    
C15   N3    S    
C100  O77   S    
C19   C170  D    
C87   H102  S    
C151  C159  A    
C72   H62   S    
C85   H95   S    
Cu12  O22   S    
C28   C37   D    
C81   H84   S    
C22   C174  D    
C98   H9    S    
Cu7   O8    S    
C91   H109  S    
C71   H60   S    
C3    C185  A    
C80   H83   S    
Cu6   O2    S    
Br12  C169  S    
C84   H93   S    
C66   N4    A    
C1    C36   S    
C86   H98   S    
C99   H11   S    
C81   O68   S    
C95   H3    S    
C183  H49   S    
C38   H24   S    
C46   C112  A    
C1    O1    A    
C60   O41   A    
C56   O38   A    
C63   N1    A    
C88   H105  S    
C37   H13   S    
C54   O33   A    
C20   C172  D    
C67   N3    A    
Br22  C175  S    
C46   C69   A    
C50   O29   A    
Cu1   O34   S    
C127  O34   A    
Br10  C147  S    
C20   H55   S    
C153  C162  A    
C103  H21   S    
C94   H118  S    
C68   C106  A    
C2    C90   A    
C112  C117  A    
Br8   C33   S    
C66   C68   A    
Cu11  O21   S    
Cu11  O39   S    
C143  N8    A    
C92   H112  S    
C35   C67   A    
Cu3   O16   S    
Cu2   O35   S    
C22   H77   S    
C63   O47   S    
C160  O67   A    
C141  N6    A    
C181  C190  A    
C73   H65   S    
C130  C143  A    
C24   C90   A    
C43   O11   A    
C5    C11   A    
C18   C49   S    
C62   N2    A    
C43   O9    A    
Cu9   O19   S    
C22   C53   S    
Br3   C28   S    
C162  H46   S    
C9    C56   S    
C111  H35   S    
Cu7   O6    S    
C145  O61   S    
C70   O62   S    
C114  C119  A    
C65   O49   S    
C145  N8    A    
C44   C165  S    
C16   N4    S    
Cu10  O27   S    
C138  O45   A    
C45   O14   A    
C75   H71   S    
Br1   C168  S    
C78   O66   S    
C97   H6    S    
C30   C39   D    
C29   C172  S    
C103  H20   S    
Cu3   O25   S    
C60   O43   A    
Cu2   O15   S    
C117  O72   S    
C89   C91   S    
C189  H56   S    
C65   N3    A    
C113  C118  A    
Cu5   O45   S    
Cu11  O28   S    
C190  O62   S    
C126  C133  A    
C180  N8    S    
C87   C88   S    
C121  O76   S    
C150  C178  A    
C33   C42   D    
C150  C158  A    
C9    C191  A    
C3    C9    A    
C16   C187  A    
C116  O23   A    
C108  C121  A    
C24   C110  A    
C69   N4    A    
C137  N5    A    
C156  C165  A    
C93   H114  S    
C21   C173  D    
C139  N6    A    
C85   O70   S    
C12   C184  A    
C51   O21   A    
C188  H54   S    
C148  C157  A    
C109  H32   S    
C80   H82   S    
C83   C84   S    
C187  H53   S    
Cu3   Cu12  S    
C55   O35   A    
C125  C134  A    
C56   O36   A    
C37   C105  S    
C8    C190  A    
Br19  C172  S    
C178  N6    S    
Cu6   O80   S    
C72   C73   S    
Cu1   O12   S    
C23   C175  D    
C10   C60   S    
C18   H33   S    
C89   H107  S    
C156  H40   S    
C82   H87   S    
C104  H25   S    
C70   H57   S    
C157  H41   S    
C105  O12   A    
Br24  C26   S    
C115  C124  A    
C104  H23   S    
C159  H43   S    
C14   C183  A    
C6    C10   A    
C131  C135  A    
Br5   C30   S    
C132  C136  A    
Cu12  O33   S    
C27   C169  S    
C119  O74   S    
C143  O59   S    
C185  H51   S    
Br23  C176  S    
C144  O60   S    
Cu5   O56   S    
C18   C169  D    
Cu5   O78   S    
C45   O16   A    
C96   H5    S    
C107  H30   S    
Cu2   Cu4   S    
C97   H8    S    
C2    C108  A    
C90   C136  A    
C121  C130  A    
C74   C75   S    
C58   O37   A    
C34   H110  S    
C52   O31   A    
C24   C62   A    
C100  H16   S    
Cu12  O14   S    
C96   C97   S    
Cu5   O67   S    
C116  O3    A    
C100  C102  S    
C57   C101  A    
C102  H19   S    
Cu8   O29   S    
C45   C166  S    
C93   H116  S    
C115  O71   S    
C7    C189  A    
C35   C101  A    
C78   H80   S    
C139  O54   S    
C4    O66   S    
C146  C155  A    
C87   H101  S    
C147  C178  A    
C179  N7    S    
C57   C65   A    
C98   H10   S    
Cu7   O7    S    
C71   H59   S    
C61   O44   S    
C76   C77   S    
Cu9   Cu11  S    
Cu6   O3    S    
C124  C133  A    
C71   H61   S    
C8    C192  A    
C141  O57   S    
C126  C140  A    
C57   C113  A    
C27   C36   D    
C23   C54   S    
C38   C116  S    
C74   H69   S    
C53   O32   A    
C122  O77   S    
Cu4   O26   S    
C142  N7    A    
C163  H47   S    
Br4   C29   S    
C21   H66   S    
C152  C180  A    
C96   O75   S    
Br6   C31   S    
C68   C114  A    
C14   N2    S    
C47   O15   A    
C152  C161  A    
C44   O10   A    
Cu10  O20   S    
C110  C123  A    
C58   O39   A    
C30   C173  S    
Br15  C152  S    
C3    O65   S    
C21   C52   S    
C36   H2    S    
Cu9   O37   S    
C55   O26   A    
C101  C133  A    
C39   H26   S    
Br18  C170  S    
C4    C186  A    
C46   C106  A    
C76   H73   S    
C77   H76   S    
C88   H103  S    
C192  O64   S    
C122  C131  A    
C59   O42   A    
C74   O64   S    
C153  C179  A    
C5    C187  A    
C26   C168  S    
C72   O63   S    
C40   H27   S    
C52   O22   A    
C104  H22   S    
C23   H88   S    
C4    C10   A    
Br11  C148  S    
C53   O24   A    
C102  H17   S    
C67   O51   S    
C96   H4    S    
Br9   C146  S    
C95   H120  S    
Br7   C32   S    
C120  O75   S    
Cu8   O18   S    
C157  C164  A    
C161  C167  A    
Br13  C150  S    
C128  C134  A    
C171  O8    A    
C26   C34   D    
C123  O79   S    
C85   H96   S    
C81   H85   S    
C13   C79   A    
C11   C59   S    
C69   O52   S    
Cu7   O5    S    
C54   O25   A    
C186  H52   S    
C25   C55   S    
C15   C186  A    
C63   C182  A    
C49   O19   A    
C181  H48   S    
C131  C144  A    
C183  C191  A    
C1    O80   A    
C100  H15   S    
C123  C132  A    
C19   H44   S    
C154  C163  A    
C83   H90   S    
C119  C128  A    
C158  H42   S    
C39   C171  S    
C103  C104  S    
C159  C166  A    
C8    C58   S    
C43   C164  S    
Cu1   Cu6   S    
Cu1   O23   S    
C73   H67   S    
C61   N1    A    
C12   N1    S    
C74   H68   S    
C140  O55   S    
C155  C164  A    
C81   C82   S    
C111  C115  A    
C127  O4    A    
C106  C134  A    
C118  C126  A    
C94   H117  S    
C151  C179  A    
Cu8   O36   S    
C85   C86   S    
Cu10  O38   S    
C35   C111  A    
C59   O40   A    
Cu4   O32   S    
Cu9   O30   S    
C12   C181  A    
C70   C71   S    
C137  O53   S    
Br20  C173  S    
Cu3   O31   S    
Br2   C27   S    
C149  O6    A    
C2    C64   A    
C109  C122  A    
C138  O5    A    
Cu2   O24   S    
C107  C120  A    
C76   O65   S    
C155  H39   S    
Br17  C154  S    
Cu11  O13   S    
C6    O69   S    
C162  C166  A    
C154  C180  A    
C112  H36   S    
C72   H63   S    
Br21  C174  S    
Cu3   O42   S    
C89   H106  S    
C64   O48   S    
C117  C125  A    
C70   H58   S    
C91   H108  S    
C184  H50   S    
Cu9   O10   S    
Br14  C151  S    
C124  C137  A    
C13   C61   A    
C6    C188  A    
C31   C174  S    
C32   C41   D    
C41   H28   S    
C132  C145  A    
C92   C93   S    
C142  O58   S    
C83   O69   S    
C120  C129  A    
C94   C95   S    
C146  C177  A    
C75   H72   S    
C82   H89   S    
C113  H37   S    
C105  O2    A    
C97   H7    S    
C16   C189  A    
C15   C188  A    
C125  C139  A    
C158  C165  A    
C118  O73   S    
C49   O28   A    
C50   O20   A    
C163  C167  A    
C32   C175  S    
C103  O79   S    
C144  N7    A    
C110  H34   S    
C149  O56   A    
C177  N5    S    
C98   O76   S    
C108  H31   S    
C87   O71   S    
C84   H94   S    
C28   C170  S    
C94   O74   S    
C40   C138  S    
C25   H99   S    
C48   O18   A    
C93   H115  S    
C88   H104  S    
C77   H78   S    
C114  H38   S    
C92   H113  S    
C86   H97   S    
C171  O78   A    
C129  C135  A    
C20   C51   S    
C130  C136  A    
C140  N5    A    
C161  H45   S    
C29   C38   D    
C91   H111  S    
C66   O50   S    
C31   C40   D    
C80   H81   S    
Cu6   O4    S    
C78   C80   S    
C92   O73   S    
C17   C48   S    
C5    O68   S    
C7    O70   S    
C17   H1    S    
C33   C176  S    
C13   C109  A    
C147  C156  A    
Cu2   O41   S    
C86   H100  S    
Cu12  O40   S    
Br16  C153  S    
C82   H86   S    
C99   H12   S    
C83   H91   S    
C42   C160  S    
C84   H92   S    
C17   C168  D    
C41   C149  S    
Cu8   Cu10  S    
C191  O63   S    
Cu4   O17   S    
C160  O7    A    
C51   O30   A    
C44   O13   A    
C73   H64   S    
C47   C167  S    
Cu5   Cu7   S    
C75   H70   S    
C79   C135  A    
C19   C50   S    
C62   O46   S    
C89   O72   S    
C7    C11   A    
C14   C185  A    
C76   H74   S    
C148  C177  A    
C64   N2    A    
C77   H75   S    
C47   O17   A    
C48   O27   A    
C184  C192  A    
Cu4   O43   S    
Cu10  O11   S    
Cu1   O1    S    
C98   C99   S    
C107  C182  A    
C99   H14   S    
C25   C176  D    
