data_mof_unit_41588.cif
_audit_creation_date              2013-03-05T16:36:35-0500
_audit_creation_method            fapswitch 2.2
_symmetry_space_group_name_H-M    P1
_symmetry_Int_Tables_number       1
_space_group_crystal_system       triclinic
_cell_length_a                    18.867353
_cell_length_b                    18.725066
_cell_length_c                    10.551788
_cell_angle_alpha                 90.149059
_cell_angle_beta                  91.47042
_cell_angle_gamma                 89.798895
_cell_volume                      3726.6045448

loop_
_atom_site_label
_atom_site_type_symbol
_atom_site_description
_atom_site_fract_x
_atom_site_fract_y
_atom_site_fract_z
_atom_type_partial_charge
O1    O     O_R   0.398180 0.560840 0.499970 -0.568743
O2    O     O_R   0.601820 0.439160 0.500030 -0.563631
O3    O     O_R   0.601820 0.560840 0.500030 -0.553979
O4    O     O_R   0.398180 0.439160 0.499970 -0.581534
C1    C     C_R   0.363905 0.499470 0.499651 0.928037
C2    C     C_R   0.636405 0.499455 0.502601 0.953198
O5    O     O_R   0.499990 0.560810 0.316770 -0.577016
O6    O     O_R   0.500010 0.439190 0.683230 -0.603195
O7    O     O_R   0.500010 0.560810 0.683230 -0.578537
O8    O     O_R   0.499990 0.439190 0.316770 -0.607267
C3    C     C_R   0.507144 0.499827 0.258003 0.904523
C4    C     C_R   0.485977 0.500326 0.737294 0.885871
Zn1   Zn    Zn3+2 0.500000 0.581210 0.500000 1.071928
Zn2   Zn    Zn3+2 0.500000 0.418790 0.500000 1.089988
H1    H     H_    0.519075 0.252338 0.070476 0.192127
H2    H     H_    0.446220 0.747287 0.909298 0.141396
H3    H     H_    0.423929 0.259369 0.911604 0.192333
H4    H     H_    0.537616 0.745353 0.077736 0.139005
C5    C     C_R   0.538742 0.630276 0.095255 0.000342
C6    C     C_R   0.430366 0.374204 0.890564 -0.015092
C7    C     C_R   0.441836 0.632406 0.889901 0.031190
C8    C     C_R   0.530200 0.366972 0.092167 -0.037750
C9    C     C_R   0.515542 0.695306 0.043649 -0.160387
C10   C     C_R   0.448095 0.308417 0.945631 -0.024082
C11   C     C_R   0.465365 0.696352 0.944967 -0.161063
C12   C     C_R   0.501120 0.304553 0.039128 0.016248
C13   C     C_R   0.468904 0.566329 0.937238 0.095653
C14   C     C_R   0.503565 0.434393 0.051370 0.006642
C15   C     C_R   0.507509 0.565382 0.052491 0.091710
C16   C     C_R   0.464420 0.436851 0.936646 0.012757
C17   C     C_R   0.462990 0.501560 0.869984 -0.200589
C18   C     C_R   0.514739 0.499474 0.118364 -0.194569
C19   C     C_R   0.745303 0.426905 0.561958 0.318270
C20   C     C_R   0.245390 0.555476 0.554726 0.350298
C21   C     C_R   0.255201 0.426623 0.540236 0.279345
C22   C     C_R   0.759676 0.556441 0.548803 0.314956
C23   C     C_R   0.809958 0.422007 0.627916 -0.201300
C24   C     C_R   0.180168 0.547608 0.613593 -0.173262
C25   C     C_R   0.193120 0.419598 0.607281 -0.197379
C26   C     C_R   0.826443 0.548534 0.609869 -0.196800
H5    H     H_    0.831267 0.369696 0.651111 0.193072
H6    H     H_    0.147339 0.594479 0.626937 0.180267
H7    H     H_    0.171888 0.366554 0.620578 0.190987
H8    H     H_    0.861801 0.593841 0.617494 0.197611
C27   C     C_R   0.852083 0.481875 0.647980 -0.021896
C28   C     C_R   0.153463 0.479721 0.640201 -0.015443
C29   C     C_R   0.715185 0.495151 0.531554 -0.275789
C30   C     C_R   0.286296 0.494803 0.524878 -0.282920
C31   C     C_R   0.968029 0.521218 0.747916 -0.145378
C32   C     C_R   0.037875 0.419759 0.601538 -0.140094
C33   C     C_R   0.042169 0.520561 0.745939 -0.144793
C34   C     C_R   0.964682 0.420084 0.604314 -0.143311
H9    H     H_    0.941339 0.561993 0.802069 0.166367
H10   H     H_    0.062510 0.382548 0.537417 0.160638
H11   H     H_    0.071550 0.560683 0.799218 0.165202
H12   H     H_    0.936274 0.383033 0.542763 0.161774
C35   C     C_R   0.077601 0.471358 0.668756 0.137187
C36   C     C_R   0.928783 0.472315 0.673527 0.135076
C37   C     C_R   0.559053 0.726588 0.544966 0.370964
C38   C     C_R   0.477009 0.270418 0.395905 0.395707
C39   C     C_R   0.442210 0.729451 0.457689 0.329210
C40   C     C_R   0.523781 0.273073 0.606582 0.408334
C41   C     C_R   0.563496 0.801130 0.527573 -0.298691
C42   C     C_R   0.492397 0.196795 0.390900 -0.244105
C43   C     C_R   0.440111 0.803708 0.480358 -0.300375
C44   C     C_R   0.514421 0.198369 0.612780 -0.280468
H13   H     H_    0.613682 0.827739 0.542923 0.226129
H14   H     H_    0.487318 0.168895 0.301377 0.201344
H15   H     H_    0.390776 0.832521 0.467289 0.227075
H16   H     H_    0.520803 0.171443 0.702732 0.208008
C45   C     C_R   0.502459 0.841783 0.504291 -0.052102
C46   C     C_R   0.504128 0.158117 0.502301 -0.031429
N1    N     N_R   0.500000 0.689440 0.500000 -0.206470
N2    N     N_R   0.500000 0.310560 0.500000 -0.176709
C47   C     C_R   0.461863 0.962199 0.413251 -0.048152
C48   C     C_R   0.552095 0.037578 0.583134 -0.060803
C49   C     C_R   0.545913 0.962047 0.593472 -0.046428
C50   C     C_R   0.455752 0.037679 0.423667 -0.068457
C51   C     C_R   0.504079 0.076711 0.503120 -0.037993
C52   C     C_R   0.503572 0.923111 0.503708 -0.034000
C53   C     C_2   0.603680 0.631247 0.175491 0.505172
H17   H     H_    0.619321 0.680051 0.224166 0.098669
O9    O     O_2   0.642281 0.578807 0.181738 -0.543494
C54   C     C_2   0.372248 0.377687 0.793730 0.469586
H18   H     H_    0.354484 0.428705 0.756327 0.060012
O10   O     O_2   0.342201 0.323542 0.757220 -0.523906
C55   C     C_2   0.384554 0.636625 0.791797 0.465324
H19   H     H_    0.375254 0.686029 0.740316 0.090679
O11   O     O_2   0.345392 0.585988 0.771318 -0.606890
C56   C     C_2   0.593818 0.360791 0.176330 0.525998
H20   H     H_    0.622711 0.408274 0.205641 0.102446
O12   O     O_2   0.615445 0.302393 0.211585 -0.510203
N3    N     N_R   0.717097 0.361881 0.509498 0.248710
O13   O     O_R   0.704997 0.358510 0.388022 -0.351660
O14   O     O_R   0.723346 0.302397 0.572505 -0.323372
N4    N     N_R   0.260633 0.622710 0.499737 0.232295
O15   O     O_R   0.258952 0.680028 0.569564 -0.354158
O16   O     O_R   0.250431 0.628434 0.377837 -0.281236
N5    N     N_R   0.276632 0.367040 0.465132 0.253265
O17   O     O_R   0.287010 0.305102 0.518013 -0.312070
O18   O     O_R   0.262318 0.369268 0.343953 -0.292469
N6    N     N_R   0.744117 0.624401 0.490786 0.253103
O19   O     O_R   0.702895 0.627855 0.391097 -0.364567
O20   O     O_R   0.784631 0.679133 0.515584 -0.310758
N7    N     N_R   0.614351 0.693552 0.621040 0.229228
O21   O     O_R   0.673899 0.727310 0.639196 -0.319489
O22   O     O_R   0.598007 0.646948 0.705861 -0.366047
N8    N     N_R   0.429387 0.297611 0.298139 0.200094
O23   O     O_R   0.400832 0.253436 0.216234 -0.383662
O24   O     O_R   0.399045 0.359091 0.309222 -0.284916
N9    N     N_R   0.386458 0.700183 0.378269 0.244307
O25   O     O_R   0.331344 0.739768 0.350446 -0.288138
O26   O     O_R   0.399883 0.647812 0.301972 -0.334310
N10   N     N_R   0.563170 0.306025 0.709942 0.215417
O27   O     O_R   0.575437 0.269879 0.813323 -0.406709
O28   O     O_R   0.605951 0.358190 0.688293 -0.315376
C57   C     C_2   0.427359 0.923842 0.304642 0.501016
H21   H     H_    0.457856 0.885422 0.251189 0.063627
O29   O     O_2   0.364211 0.930989 0.279500 -0.475894
C58   C     C_2   0.610362 0.075858 0.651900 0.515491
H22   H     H_    0.642078 0.114179 0.601409 0.109529
O30   O     O_2   0.620371 0.068660 0.765937 -0.485114
C59   C     C_2   0.581287 0.923543 0.700847 0.498592
H23   H     H_    0.551310 0.885316 0.754843 0.063398
O31   O     O_2   0.644575 0.930485 0.724506 -0.477462
C60   C     C_2   0.396688 0.075897 0.356558 0.520339
H24   H     H_    0.364772 0.113834 0.408387 0.108877
O32   O     O_2   0.386268 0.069167 0.242478 -0.482058

loop_
_geom_bond_atom_site_label_1
_geom_bond_atom_site_label_2
_geom_bond_distance
_ccdc_geom_bond_type
C55   H19   1.085461 S    
C7    C55   1.479276 S    
N3    O13   1.297596 A    
C13   C15   1.401554 A    
C21   C25   1.390621 A    
N9    O25   1.302681 A    
C47   C57   1.487863 S    
C48   C51   1.424711 A    
O3    C2    1.319748 A    
N10   O27   1.300553 A    
C59   H23   1.085531 S    
C6    C16   1.418328 A    
O5    C3    1.306221 A    
N7    O22   1.295303 A    
C32   H10   1.082009 S    
O1    C1    1.320550 A    
C42   H14   1.080546 S    
C20   N4    1.421007 S    
C40   N10   1.442427 S    
C46   C51   1.524385 S    
C57   O29   1.220911 D    
C16   C17   1.402469 A    
C43   H15   1.080198 S    
C59   O31   1.220928 D    
N8    O23   1.302668 A    
C22   C29   1.432723 A    
C22   N6    1.439632 S    
O7    Zn1   1.971749 S    
C37   N7    1.438975 S    
C44   C46   1.396282 A    
C6    C10   1.399223 A    
C31   C33   1.399527 A    
N4    O16   1.300336 A    
C32   C34   1.382015 A    
C33   C35   1.406679 A    
C47   C52   1.423753 A    
C37   N1    1.388152 A    
C26   H8    1.082651 S    
O3    Zn1   1.957251 S    
C9    C11   1.389340 A    
C38   N8    1.443173 S    
C7    C13   1.423705 A    
N3    O14   1.302101 A    
C8    C14   1.420907 A    
O4    Zn2   1.957255 S    
O2    C2    1.305887 A    
C21   N5    1.430029 S    
C21   C30   1.418293 A    
C45   C52   1.523121 S    
C53   O9    1.221411 D    
C58   O30   1.220962 D    
C53   H17   1.085211 S    
C26   C27   1.393592 A    
C1    C30   1.497872 S    
C41   H13   1.079865 S    
C27   C36   1.475561 S    
H3    C10   1.083116 S    
C2    C29   1.511664 S    
C40   C44   1.412460 A    
C13   C17   1.406887 A    
H4    C9    1.083680 S    
C22   C26   1.407674 A    
C48   C49   1.424233 A    
O8    Zn2   1.971749 S    
C50   C60   1.487255 S    
C50   C51   1.425024 A    
H1    C12   1.083391 S    
C25   H7    1.083108 S    
C39   N1    1.385816 A    
C43   C45   1.394825 A    
C19   C23   1.391706 A    
C31   C36   1.405051 A    
C20   C24   1.401008 A    
C5    C9    1.399398 A    
C49   C59   1.486941 S    
C56   O12   1.221414 D    
N5    O17   1.300374 A    
C14   C18   1.420887 A    
O6    C4    1.307014 A    
N4    O15   1.301035 A    
C8    C56   1.479067 S    
N9    O26   1.295595 A    
C48   C58   1.486862 S    
C54   H18   1.083362 S    
N6    O20   1.302669 A    
C34   C36   1.402024 A    
C25   C28   1.397615 A    
N5    O18   1.300818 A    
C41   C45   1.395111 A    
C3    C18   1.484050 S    
O8    C3    1.304222 A    
C6    C54   1.480879 S    
C4    C17   1.476446 S    
C19   C29   1.430580 A    
O6    Zn2   1.969799 S    
O1    Zn1   1.959881 S    
C23   C27   1.389103 A    
C5    C15   1.419849 A    
Zn2   N2    2.026612 S    
C58   H22   1.085441 S    
C49   C52   1.424271 A    
H2    C11   1.083627 S    
C7    C11   1.398333 A    
C60   O32   1.220979 D    
Zn1   N1    2.026612 S    
C32   C35   1.404491 A    
C10   C12   1.388754 A    
C54   O10   1.220046 D    
O4    C1    1.299360 A    
C19   N3    1.434590 S    
N10   O28   1.293820 A    
C24   H6    1.083421 S    
C15   C18   1.422407 A    
N7    O21   1.300713 A    
C37   C41   1.411344 A    
C38   C42   1.408957 A    
C14   C16   1.402547 A    
C28   C35   1.479158 S    
C57   H21   1.085545 S    
C56   H20   1.084747 S    
C44   H16   1.079729 S    
C60   H24   1.085443 S    
C31   H9    1.082969 S    
C38   N2    1.390382 A    
N8    O24   1.290278 A    
C33   H11   1.082841 S    
C42   C46   1.394721 A    
C23   H5    1.083720 S    
N6    O19   1.293673 A    
O2    Zn2   1.959877 S    
C47   C50   1.421867 A    
C24   C28   1.400787 A    
O7    C4    1.300559 A    
C39   C43   1.410876 A    
O5    Zn1   1.969799 S    
C20   C30   1.410688 A    
C8    C12   1.402022 A    
C55   O11   1.219580 D    
C40   N2    1.390982 A    
C5    C53   1.471433 S    
C34   H12   1.082972 S    
C39   N9    1.437201 S    
