data_mof_unit_52191.cif
_audit_creation_date              2012-12-10T18:59:15-0500
_audit_creation_method            fapswitch 2.2
_symmetry_space_group_name_H-M    P1
_symmetry_Int_Tables_number       1
_space_group_crystal_system       triclinic
_cell_length_a                    10.772886
_cell_length_b                    10.821408
_cell_length_c                    9.553985
_cell_angle_alpha                 89.965103
_cell_angle_beta                  89.993032
_cell_angle_gamma                 89.808519
_cell_volume                      1113.77606797

loop_
_atom_site_label
_atom_site_type_symbol
_atom_type_description
_atom_site_fract_x
_atom_site_fract_y
_atom_site_fract_z
_atom_type_partial_charge
C1    C     C_R   0.502489 0.262360 0.499977 0.798359
C2    C     C_R   0.064896 0.609739 0.564637 0.099187
C3    C     C_R   0.128758 0.510656 0.499886 -0.097473
C4    C     C_R   0.064381 0.416969 0.431150 -0.212198
C5    C     C_R   0.936242 0.416797 0.431087 -0.206647
C6    C     C_R   0.870965 0.510714 0.499054 -0.096726
C7    C     C_R   0.518386 0.063685 0.625373 0.132189
C8    C     C_R   0.515268 0.129268 0.499671 -0.099580
C9    C     C_R   0.529574 0.064403 0.373236 -0.221843
C10   C     C_R   0.529123 0.935634 0.373321 -0.210693
C11   C     C_R   0.514762 0.870806 0.499844 -0.095745
C12   C     C_R   0.262568 0.503171 0.500036 0.789702
C13   C     C_R   0.518427 0.936422 0.625628 0.110034
C14   C     C_3   0.433943 0.930946 0.749614 -0.468751
C15   C     C_3   0.433989 0.071159 0.749054 -0.465647
C16   C     C_R   0.604863 0.529579 0.073586 0.263807
C17   C     C_R   0.400733 0.457891 0.074354 -0.082123
C18   C     C_R   0.400683 0.457989 0.925673 -0.084799
C19   C     C_R   0.605154 0.528907 0.926452 0.267482
C20   C     C_3   0.676485 0.646559 0.920365 -0.515252
C21   C     C_3   0.674779 0.648014 0.079346 -0.497616
C22   C     C_R   0.502206 0.737692 0.499972 0.777104
C23   C     C_R   0.737359 0.502828 0.499827 0.786479
C24   C     C_R   0.128173 0.710045 0.626486 -0.184047
C25   C     C_R   0.062492 0.808341 0.685582 -0.138171
C26   C     C_R   0.933373 0.809458 0.682505 -0.135810
C27   C     C_R   0.869130 0.712032 0.620957 -0.204091
C28   C     C_R   0.933680 0.610283 0.563013 0.096446
Cu1   Cu    Cu3+1 0.499990 0.499980 0.640670 0.934344
Cu2   Cu    Cu3+1 0.500010 0.500020 0.359330 0.938398
H1    H     H_    0.113763 0.342199 0.379869 0.141896
H2    H     H_    0.480095 0.891162 0.843364 0.193512
H3    H     H_    0.342025 0.112232 0.723112 0.193830
H4    H     H_    0.480790 0.111729 0.841928 0.198555
H5    H     H_    0.319647 0.425090 0.129467 0.146360
H6    H     H_    0.319551 0.425311 0.870638 0.147924
H7    H     H_    0.771106 0.632231 0.877175 0.210325
H8    H     H_    0.623159 0.723441 0.872097 0.209397
H9    H     H_    0.768354 0.636032 0.126591 0.204132
H10   H     H_    0.618820 0.725100 0.123447 0.205855
H11   H     H_    0.111859 0.884761 0.732454 0.128853
H12   H     H_    0.882734 0.886592 0.726946 0.136298
H13   H     H_    0.768967 0.718087 0.617941 0.140960
H14   H     H_    0.887578 0.341788 0.380002 0.145624
H15   H     H_    0.534662 0.112438 0.273941 0.165638
H16   H     H_    0.533590 0.887731 0.274048 0.157925
H17   H     H_    0.342038 0.890672 0.724316 0.192073
N1    N     N_R   0.500790 0.500930 0.147930 -0.187444
N2    N     N_R   0.500790 0.500890 0.852020 -0.186091
O1    O     O_R   0.500000 0.319640 0.618810 -0.575400
O2    O     O_R   0.500010 0.319680 0.381230 -0.586399
O3    O     O_R   0.319640 0.499980 0.618820 -0.590508
O4    O     O_R   0.319650 0.500020 0.381230 -0.580612
O5    O     O_R   0.499990 0.680320 0.618770 -0.587241
O6    O     O_R   0.500000 0.680360 0.381190 -0.579558
O7    O     O_R   0.680350 0.499980 0.618770 -0.582030
O8    O     O_R   0.680360 0.500020 0.381180 -0.579451
H18   H     H_    0.228353 0.714491 0.627728 0.139252

loop_
_geom_bond_atom_site_label_1
_geom_bond_atom_site_label_2
_ccdc_geom_bond_type
C10   H16   S    
Cu2   O2    S    
C15   H4    S    
C9    H15   S    
C16   C21   S    
Cu1   O7    S    
C1    C8    S    
C20   H8    S    
C9    C10   A    
C19   N2    A    
C11   C22   S    
C12   O4    A    
C21   H9    S    
C17   N1    A    
C7    C13   A    
Cu1   O5    S    
C16   N1    A    
C7    C15   S    
C17   C18   A    
C23   O7    A    
C22   O5    A    
Cu1   N2    S    
C13   C14   S    
C20   C21   S    
C20   H7    S    
C1    O2    A    
C26   C27   A    
C22   O6    A    
C21   H10   S    
C16   C19   A    
C6    C23   S    
Cu2   N1    S    
C12   O3    A    
C5    H14   S    
C2    C3    A    
Cu1   O1    S    
C2    C24   A    
C5    C6    A    
Cu2   O4    S    
C4    H1    S    
C7    C8    A    
C10   C11   A    
Cu1   Cu2   S    
C3    C4    A    
Cu2   O8    S    
C27   H13   S    
C11   C13   A    
C24   C25   A    
C26   H12   S    
C24   H18   S    
C1    O1    A    
C25   H11   S    
C27   C28   A    
C23   O8    A    
C14   C15   S    
C4    C5    A    
C2    C28   A    
C3    C12   S    
C17   H5    S    
C25   C26   A    
C14   H17   S    
C18   H6    S    
Cu2   O6    S    
C15   H3    S    
C6    C28   A    
C19   C20   S    
C18   N2    A    
C14   H2    S    
C8    C9    A    
Cu1   O3    S    
