data_mof_unit_43080.cif
_audit_creation_date              2012-10-26T20:40:18-0400
_audit_creation_method            fapswitch 2.2
_symmetry_space_group_name_H-M    P1
_symmetry_Int_Tables_number       1
_space_group_crystal_system       triclinic
_cell_length_a                    15.07477
_cell_length_b                    10.843543
_cell_length_c                    9.639339
_cell_angle_alpha                 89.551448
_cell_angle_beta                  90.559448
_cell_angle_gamma                 92.753291
_cell_volume                      1573.74743358

loop_
_atom_site_label
_atom_site_type_symbol
_atom_type_description
_atom_site_fract_x
_atom_site_fract_y
_atom_site_fract_z
_atom_type_partial_charge
C1    C     C_R   0.504064 0.262562 0.501422 0.559133
C2    C     C_R   0.181868 0.436259 0.386084 0.211544
C3    C     C_R   0.231320 0.490968 0.497163 0.003682
C4    C     C_R   0.328696 0.495971 0.499175 0.585201
C5    C     C_R   0.187538 0.542162 0.608990 -0.174969
C6    C     C_R   0.534566 0.108379 0.760624 -0.102190
C7    C     C_R   0.520035 0.041587 0.884369 0.008476
C8    C     C_R   0.464600 0.931983 0.880498 0.023673
C9    C     C_R   0.445669 0.878939 0.750859 -0.081385
C10   C     C_R   0.477913 0.934736 0.628267 0.008245
C11   C     C_R   0.505984 0.059518 0.631756 0.005678
C12   C     C_R   0.909360 0.544045 0.614532 0.016175
C13   C     C_R   0.505868 0.127734 0.505415 -0.000990
C14   C     C_R   0.495887 0.064702 0.379934 -0.154569
C15   C     C_R   0.491137 0.937075 0.378327 -0.168616
C16   C     C_R   0.492689 0.736658 0.499968 0.527279
C17   C     C_R   0.483244 0.870457 0.502022 -0.003630
C18   C     C_R   0.616855 0.666052 0.143852 -0.102589
C19   C     C_R   0.673385 0.748073 0.071910 -0.181326
C20   C     C_R   0.673595 0.747683 0.928894 -0.173893
C21   C     C_R   0.617148 0.665534 0.856822 -0.084687
C22   C     C_R   0.557387 0.581586 0.925512 0.149799
C23   C     C_R   0.945222 0.397502 0.272852 -0.151839
C24   C     C_R   0.557305 0.581667 0.074826 0.143998
C25   C     C_R   0.446606 0.420907 0.073499 -0.003063
C26   C     C_R   0.446325 0.421237 0.925967 -0.017111
C27   C     C_R   0.670975 0.500327 0.500559 0.533290
C28   C     C_R   0.816798 0.544506 0.615239 -0.142106
C29   C     C_R   0.767477 0.498766 0.501192 -0.011644
C30   C     C_R   0.810411 0.451092 0.386708 -0.135624
C31   C     C_R   0.902529 0.447663 0.385722 0.011622
C32   C     C_R   0.952537 0.494879 0.499448 0.064076
C33   C     C_3   0.561117 0.092010 0.017605 -0.262880
C34   C     C_R   0.037264 0.393200 0.272387 -0.102276
C35   C     C_3   0.662256 0.115442 0.008779 -0.298958
C36   C     C_3   0.701509 0.153580 0.149608 -0.449951
C37   C     C_3   0.429401 0.871076 0.012816 -0.265747
C38   C     C_3   0.351979 0.774419 0.995118 -0.317857
C39   C     C_3   0.315010 0.732240 0.135399 -0.424565
C40   C     C_R   0.088728 0.440418 0.384539 0.032371
C41   C     C_R   0.045656 0.492741 0.498183 0.024061
C42   C     C_R   0.095272 0.542172 0.611212 0.003111
C43   C     C_R   0.051875 0.591636 0.724624 -0.119495
C44   C     C_R   0.959419 0.591969 0.726609 -0.130926
Cl1   Cl    Cl    0.234988 0.354031 0.254731 -0.674042
Cu1   Cu    Cu3+1 0.499990 0.499990 0.640660 0.908387
Cu2   Cu    Cu3+1 0.500010 0.500010 0.359340 0.930633
H1    H     H_    0.783300 0.582027 0.703355 0.116756
H2    H     H_    0.772009 0.414919 0.299075 0.124093
H3    H     H_    0.402359 0.356240 0.871074 0.137787
H4    H     H_    0.907344 0.361052 0.184899 0.108312
H5    H     H_    0.067204 0.353657 0.182593 0.180716
H6    H     H_    0.225560 0.583091 0.694528 0.127032
H7    H     H_    0.089481 0.629684 0.812008 0.114071
H8    H     H_    0.927090 0.630115 0.815424 0.110428
H9    H     H_    0.493092 0.114669 0.283069 0.135176
H10   H     H_    0.670807 0.238316 0.186616 0.169057
H11   H     H_    0.689850 0.078287 0.227092 0.154614
H12   H     H_    0.573047 0.194630 0.765913 0.146580
H13   H     H_    0.774208 0.172904 0.140090 0.139733
H14   H     H_    0.693438 0.030195 0.974416 0.167315
H15   H     H_    0.679008 0.190478 0.933133 0.158706
H16   H     H_    0.529561 0.179211 0.043881 0.141412
H17   H     H_    0.549745 0.024923 0.102663 0.136369
H18   H     H_    0.367882 0.691437 0.199114 0.209510
H19   H     H_    0.288515 0.811319 0.191692 0.154863
H20   H     H_    0.260438 0.661078 0.119742 0.172606
H21   H     H_    0.297677 0.814341 0.933028 0.163486
H22   H     H_    0.375243 0.691800 0.941441 0.175043
H23   H     H_    0.404944 0.794761 0.744005 0.138919
H24   H     H_    0.485265 0.825726 0.064099 0.151887
H25   H     H_    0.405739 0.944851 0.080782 0.148939
H26   H     H_    0.493118 0.890162 0.280887 0.121061
H27   H     H_    0.403635 0.354788 0.127934 0.181939
H28   H     H_    0.622573 0.673221 0.253299 0.189876
H29   H     H_    0.717630 0.812156 0.127859 0.121623
H30   H     H_    0.718234 0.811084 0.872998 0.113425
H31   H     H_    0.623615 0.671450 0.747452 0.185492
N1    N     N_R   0.500860 0.501210 0.147910 -0.256001
N2    N     N_R   0.500890 0.501290 0.852040 -0.257688
O1    O     O_R   0.499990 0.319640 0.618810 -0.510352
O2    O     O_R   0.500000 0.319660 0.381240 -0.496555
O3    O     O_R   0.370250 0.499960 0.618800 -0.514617
O4    O     O_R   0.370260 0.499980 0.381230 -0.449959
O5    O     O_R   0.500000 0.680340 0.618760 -0.532994
O6    O     O_R   0.500010 0.680360 0.381190 -0.541653
O7    O     O_R   0.629740 0.500020 0.618770 -0.523997
O8    O     O_R   0.629750 0.500040 0.381200 -0.526519

loop_
_geom_bond_atom_site_label_1
_geom_bond_atom_site_label_2
_ccdc_geom_bond_type
C14   H9    S    
C5    C42   A    
C18   H28   S    
C27   C29   S    
C39   H18   S    
C41   C42   A    
C19   C20   A    
Cu2   N1    S    
C7    C8    A    
C28   C29   A    
C37   C38   S    
C20   H30   S    
C12   C28   A    
C34   C40   A    
C5    H6    S    
C19   H29   S    
C18   C19   A    
C36   H11   S    
C26   H3    S    
C30   C31   A    
C10   C17   A    
C1    O1    A    
C25   H27   S    
Cu2   O2    S    
C24   N1    A    
C35   C36   S    
C8    C9    A    
C21   H31   S    
C32   C41   A    
C18   C24   A    
C9    C10   A    
Cu1   O5    S    
C38   H22   S    
C21   C22   A    
C12   C32   A    
C16   O6    A    
C7    C33   S    
C2    Cl1   S    
Cu2   O6    S    
C9    H23   S    
C36   H10   S    
C6    C11   A    
C16   C17   S    
C36   H13   S    
C25   C26   A    
C26   N2    A    
C23   C31   A    
C43   C44   A    
C29   C30   A    
Cu1   O1    S    
C43   H7    S    
C23   H4    S    
C31   C32   A    
C4    O4    A    
C33   H16   S    
C23   C34   A    
C35   H14   S    
Cu2   O4    S    
C27   O7    A    
C40   C41   A    
C15   H26   S    
C30   H2    S    
C38   H21   S    
C37   H24   S    
C16   O5    A    
C39   H19   S    
C22   C24   A    
C1    C13   S    
C8    C37   S    
C3    C4    S    
Cu1   O7    S    
C15   C17   A    
Cu1   Cu2   S    
C28   H1    S    
C25   N1    A    
C39   H20   S    
C6    H12   S    
C3    C5    A    
C6    C7    A    
C34   H5    S    
Cu2   O8    S    
C2    C3    A    
C1    O2    A    
C22   N2    A    
C12   C44   A    
Cu1   N2    S    
C11   C13   A    
C44   H8    S    
C38   C39   S    
C4    O3    A    
C33   H17   S    
C33   C35   S    
C35   H15   S    
C27   O8    A    
C10   C11   A    
Cu1   O3    S    
C2    C40   A    
C20   C21   A    
C42   C43   A    
C37   H25   S    
C14   C15   A    
C13   C14   A    
