data_mof_unit_21721.cif
_audit_creation_date              2012-12-10T18:46:19-0500
_audit_creation_method            fapswitch 2.2
_symmetry_space_group_name_H-M    P1
_symmetry_Int_Tables_number       1
_space_group_crystal_system       triclinic
_cell_length_a                    9.979629
_cell_length_b                    10.600606
_cell_length_c                    12.865806
_cell_angle_alpha                 88.640594
_cell_angle_beta                  73.131889
_cell_angle_gamma                 88.70408
_cell_volume                      1301.97249337

loop_
_atom_site_label
_atom_site_type_symbol
_atom_type_description
_atom_site_fract_x
_atom_site_fract_y
_atom_site_fract_z
_atom_type_partial_charge
C1    C     C_R   0.499228 0.739224 0.498740 1.018669
C2    C     C_R   0.388658 0.451925 0.820514 -0.229388
C3    C     C_R   0.464699 0.934088 0.595995 0.352771
C4    C     C_R   0.425748 0.489132 0.704099 0.987634
C5    C     C_R   0.463201 0.063449 0.594733 -0.132049
C6    C     C_R   0.502942 0.128340 0.495703 -0.160660
C7    C     C_R   0.534327 0.066972 0.395934 0.056051
C8    C     C_R   0.529420 0.936585 0.396930 0.389025
C9    C     C_R   0.497084 0.871809 0.497134 -0.286347
C10   C     C_R   0.955505 0.420567 0.434949 0.468297
C11   C     C_R   0.098142 0.420926 0.435120 -0.079249
C12   C     C_R   0.448033 0.364097 0.978532 0.021439
C13   C     C_R   0.045252 0.579008 0.565257 -0.069474
C14   C     C_R   0.901804 0.579538 0.565207 0.127991
C15   C     C_R   0.501474 0.260792 0.498235 0.893078
C16   C     C_R   0.575569 0.499434 0.295777 0.935358
C17   C     C_R   0.781963 0.486222 0.999794 0.044874
C18   C     C_R   0.616202 0.478698 0.178952 -0.191589
C19   C     C_R   0.264733 0.499980 0.892895 0.374904
C20   C     C_R   0.216691 0.447116 0.998209 0.003201
C21   C     C_R   0.305477 0.366913 0.036593 0.315728
C22   C     C_R   0.482488 0.379651 0.865147 -0.167585
C23   C     C_R   0.555080 0.387907 0.027584 0.078585
C24   C     C_R   0.693035 0.410190 0.960251 -0.094652
C25   C     C_R   0.728695 0.366687 0.852657 0.300691
C26   C     C_R   0.620509 0.345575 0.806854 0.397249
C27   C     C_R   0.523578 0.413842 0.137839 -0.252345
C28   C     C_R   0.740099 0.524736 0.108228 0.440541
Cl1   Cl    Cl    0.831317 0.644862 0.150773 -0.455717
Cl2   Cl    Cl    0.562679 0.855817 0.273249 -0.464232
Cl3   Cl    Cl    0.907505 0.315892 0.349066 -0.524594
Cl4   Cl    Cl    0.902120 0.324830 0.778063 -0.554171
Cl5   Cl    Cl    0.186270 0.639378 0.858304 -0.476192
Cl6   Cl    Cl    0.236480 0.264788 0.149182 -0.559655
Cl7   Cl    Cl    0.652679 0.241919 0.698650 -0.517666
Cl8   Cl    Cl    0.427836 0.853149 0.722000 -0.478603
H1    H     H_    0.431695 0.113270 0.670763 0.212561
H2    H     H_    0.879782 0.581473 0.861015 0.219734
H3    H     H_    0.096921 0.517841 0.139233 0.258958
H4    H     H_    0.023295 0.399760 0.089643 0.252661
H5    H     H_    0.173130 0.357376 0.383066 0.192571
H6    H     H_    0.077903 0.642424 0.617653 0.180199
H7    H     H_    0.423178 0.391307 0.192538 0.215067
H8    H     H_    0.483533 0.195384 0.294182 0.200205
H9    H     H_    0.655193 0.191339 0.289070 0.225737
H10   H     H_    0.800272 0.644397 0.713743 0.185633
H11   H     H_    0.839640 0.756106 0.614154 0.214716
H12   H     H_    0.979058 0.469524 0.903509 0.263450
N1    N     N_R   0.142790 0.500030 0.500030 -0.111894
N2    N     N_R   0.857180 0.499940 0.500010 -0.100625
N3    N     N_3   0.568221 0.135670 0.294440 -0.343544
N4    N     N_3   0.803183 0.664296 0.633280 -0.355194
N5    N     N_3   0.904011 0.540930 0.928233 -0.323044
N6    N     N_3   0.082670 0.481414 0.068395 -0.345796
O1    O     O_R   0.385370 0.683250 0.500010 -0.593253
O2    O     O_R   0.614700 0.683220 0.500010 -0.578219
O3    O     O_R   0.328400 0.499990 0.653620 -0.572027
O4    O     O_R   0.557730 0.499960 0.653620 -0.592391
O5    O     O_R   0.385300 0.316780 0.499990 -0.624808
O6    O     O_R   0.614630 0.316750 0.499990 -0.526679
O7    O     O_R   0.442270 0.500040 0.346380 -0.629720
O8    O     O_R   0.671600 0.500010 0.346380 -0.554788
Zn1   Zn    Zn3+2 0.346870 0.500020 0.500000 1.027568
Zn2   Zn    Zn3+2 0.653130 0.499980 0.500000 1.091006

loop_
_geom_bond_atom_site_label_1
_geom_bond_atom_site_label_2
_ccdc_geom_bond_type
C4    O3    A    
C2    C22   A    
H11   N4    S    
C2    C4    S    
C23   C24   A    
O2    Zn2   S    
O3    Zn1   S    
C6    C7    A    
C3    C9    A    
H10   N4    S    
N2    Zn2   S    
C15   O6    A    
C18   C27   A    
O5    Zn1   S    
C19   C20   A    
O6    Zn2   S    
C8    Cl2   S    
C25   Cl4   S    
C1    O1    A    
C10   C11   A    
C7    N3    S    
C7    C8    A    
C13   C14   A    
C24   C25   A    
C12   C23   A    
C28   Cl1   S    
C14   N2    A    
H2    N5    S    
C16   O8    A    
C3    Cl8   S    
C11   N1    A    
C5    C6    A    
C10   Cl3   S    
H8    N3    S    
C20   N6    S    
C13   H6    S    
C1    O2    A    
C11   H5    S    
H4    N6    S    
N1    Zn1   S    
O4    Zn2   S    
H12   N5    S    
C12   C22   A    
C13   N1    A    
C6    C15   S    
H3    N6    S    
C16   O7    A    
H9    N3    S    
C22   C26   A    
C17   C24   A    
C1    C9    S    
C17   N5    S    
C26   Cl7   S    
C18   C28   A    
C20   C21   A    
C16   C18   S    
C19   Cl5   S    
C4    O4    A    
O7    Zn1   S    
C27   H7    S    
C5    H1    S    
O8    Zn2   S    
C21   Cl6   S    
C25   C26   A    
C2    C19   A    
C17   C28   A    
C15   O5    A    
C12   C21   A    
C14   N4    S    
C23   C27   A    
O1    Zn1   S    
C8    C9    A    
C3    C5    A    
C10   N2    A    
