data_mof_unit_11025.cif
_audit_creation_date              2012-12-11T16:44:22-0500
_audit_creation_method            fapswitch 2.2
_symmetry_space_group_name_H-M    P1
_symmetry_Int_Tables_number       1
_space_group_crystal_system       triclinic
_cell_length_a                    27.270666
_cell_length_b                    7.198206
_cell_length_c                    22.736446
_cell_angle_alpha                 89.996542
_cell_angle_beta                  101.235129
_cell_angle_gamma                 90.002984
_cell_volume                      4377.62886994

loop_
_atom_site_label
_atom_site_type_symbol
_atom_type_description
_atom_site_fract_x
_atom_site_fract_y
_atom_site_fract_z
_atom_type_partial_charge
O1    O     O_R   0.707300 0.594030 0.176840 -0.523392
O2    O     O_R   0.292700 0.405970 0.823160 -0.531341
O3    O     O_R   0.792700 0.094030 0.323160 -0.523385
O4    O     O_R   0.207300 0.905970 0.676840 -0.530757
O5    O     O_R   0.697330 0.262360 0.295660 -0.541256
O6    O     O_R   0.302670 0.737640 0.704340 -0.541213
O7    O     O_R   0.802670 0.762360 0.204340 -0.541304
O8    O     O_R   0.197330 0.237640 0.795660 -0.543462
C1    C     C_R   0.685023 0.432689 0.312121 0.694595
C2    C     C_R   0.315079 0.567258 0.688016 0.705739
C3    C     C_R   0.814984 0.932705 0.187900 0.694765
C4    C     C_R   0.184927 0.067263 0.811981 0.700618
O9    O     O_R   0.701410 0.264250 0.175600 -0.549595
O10   O     O_R   0.298590 0.735750 0.824400 -0.545131
O11   O     O_R   0.798590 0.764250 0.324400 -0.549601
O12   O     O_R   0.201410 0.235750 0.675600 -0.544521
O13   O     O_R   0.796800 0.094950 0.202240 -0.536041
O14   O     O_R   0.203200 0.905050 0.797760 -0.536925
O15   O     O_R   0.703200 0.594950 0.297760 -0.536028
O16   O     O_R   0.296800 0.405050 0.702240 -0.537664
C5    C     C_R   0.689912 0.432269 0.153290 0.748291
C6    C     C_R   0.310262 0.567408 0.846414 0.751682
C7    C     C_R   0.810083 0.932266 0.346713 0.748351
C8    C     C_R   0.189728 0.067407 0.653593 0.756477
O17   O     O_3   0.781290 0.427390 0.258880 -0.375973
O18   O     O_3   0.218710 0.572610 0.741120 -0.377578
O19   O     O_3   0.718710 0.927390 0.241120 -0.375989
O20   O     O_3   0.281290 0.072610 0.758880 -0.377141
V1    V     V_3+5 0.744190 0.152150 0.248350 1.424744
V2    V     V_3+5 0.255810 0.847850 0.751650 1.426899
V3    V     V_3+5 0.755810 0.652150 0.251650 1.424720
V4    V     V_3+5 0.244190 0.347850 0.748350 1.425252
C9    C     C_R   0.154023 0.060623 0.595860 -0.118270
C10   C     C_R   0.845030 0.933092 0.405284 -0.126003
C11   C     C_R   0.345960 0.560628 0.904151 -0.114719
C12   C     C_R   0.654957 0.433094 0.094723 -0.125993
C13   C     C_R   0.139284 0.093537 0.488186 -0.155714
C14   C     C_R   0.864375 0.814217 0.506573 -0.166775
C15   C     C_R   0.360698 0.593653 0.011821 -0.155787
C16   C     C_R   0.635595 0.314153 0.993447 -0.166842
C17   C     C_R   0.172068 0.087038 0.543182 -0.247607
C18   C     C_R   0.831077 0.835821 0.452529 -0.243553
C19   C     C_R   0.327913 0.587133 0.956825 -0.248632
C20   C     C_R   0.668901 0.335802 0.047481 -0.243598
C21   C     C_R   0.102100 0.039849 0.593530 0.378146
C22   C     C_R   0.893524 0.010604 0.412562 0.362937
C23   C     C_R   0.397881 0.539798 0.906487 0.377792
C24   C     C_R   0.606463 0.510596 0.087449 0.362937
C25   C     C_R   0.068247 0.027444 0.536581 -0.018342
C26   C     C_R   0.930560 0.966775 0.465096 -0.021796
C27   C     C_R   0.431732 0.527423 0.963438 -0.018907
C28   C     C_R   0.569419 0.466743 0.034923 -0.021834
C29   C     C_R   0.087878 0.065546 0.484399 0.091666
C30   C     C_R   0.913803 0.876381 0.513122 0.092890
C31   C     C_R   0.412103 0.565609 0.015613 0.092274
C32   C     C_R   0.586169 0.376306 0.986903 0.092940
C33   C     C_R   0.016061 0.980051 0.529008 0.060154
C34   C     C_R   0.983313 0.003961 0.471753 0.057337
C35   C     C_R   0.483915 0.479994 0.971016 0.060256
C36   C     C_R   0.516667 0.503950 0.028266 0.057485
C37   C     C_R   0.005250 0.045233 0.422050 -0.164105
C38   C     C_R   0.996581 0.892945 0.574993 -0.162439
C39   C     C_R   0.494732 0.545300 0.077964 -0.164397
C40   C     C_R   0.503386 0.392815 0.925042 -0.162518
C41   C     C_R   0.056348 0.072888 0.428265 -0.197752
C42   C     C_R   0.946769 0.841360 0.566964 -0.205689
C43   C     C_R   0.443635 0.572989 0.071745 -0.198377
C44   C     C_R   0.553196 0.341230 0.933070 -0.205801
H1    H     H_    0.071447 0.099357 0.388330 0.127498
H2    H     H_    0.934084 0.769605 0.603198 0.127132
H3    H     H_    0.428539 0.599522 0.111677 0.126933
H4    H     H_    0.565875 0.269433 0.896844 0.126978
H5    H     H_    0.793951 0.776562 0.447515 0.143171
H6    H     H_    0.211696 0.107294 0.544838 0.143418
H7    H     H_    0.706026 0.276548 0.052492 0.143129
H8    H     H_    0.288286 0.607443 0.955164 0.127689
H9    H     H_    0.154315 0.119267 0.448177 0.131900
H10   H     H_    0.851934 0.741422 0.542758 0.133253
H11   H     H_    0.345668 0.619451 0.051825 0.129950
H12   H     H_    0.648030 0.241332 0.957266 0.133202
H13   H     H_    0.984463 0.042785 0.376711 0.187645
H14   H     H_    0.019848 0.848490 0.616369 0.187824
H15   H     H_    0.515521 0.542899 0.123302 0.187474
H16   H     H_    0.480114 0.348310 0.883676 0.187710
C45   C     C_R   0.857758 0.111099 0.117318 -0.198675
C46   C     C_R   0.141798 0.887812 0.881950 -0.234476
C47   C     C_R   0.642394 0.610901 0.382897 -0.198674
C48   C     C_R   0.358053 0.387797 0.617963 -0.203444
H17   H     H_    0.833012 0.226669 0.120751 0.154385
H18   H     H_    0.165713 0.770737 0.877359 0.126485
H19   H     H_    0.667175 0.726377 0.379475 0.154526
H20   H     H_    0.333254 0.272495 0.621491 0.157241
C49   C     C_R   0.894204 0.131047 0.081533 0.007676
C50   C     C_R   0.105854 0.868816 0.918332 -0.071889
C51   C     C_R   0.606041 0.630760 0.418826 0.007146
C52   C     C_R   0.394593 0.366790 0.582472 0.006533
C53   C     C_R   0.926706 0.980069 0.076829 0.004440
C54   C     C_R   0.073433 0.019579 0.923281 0.028280
C55   C     C_R   0.573494 0.479904 0.423485 0.003140
C56   C     C_R   0.427192 0.517363 0.577562 0.002354
C57   C     C_R   0.922474 0.816562 0.109395 -0.132132
C58   C     C_R   0.077798 0.183777 0.891155 -0.099642
C59   C     C_R   0.577640 0.316465 0.390867 -0.132135
C60   C     C_R   0.422884 0.681750 0.609657 -0.157913
H21   H     H_    0.947317 0.700768 0.106975 0.138714
H22   H     H_    0.053094 0.299651 0.894017 0.161547
H23   H     H_    0.552798 0.200683 0.393359 0.138395
H24   H     H_    0.447589 0.797696 0.606695 0.160199
C61   C     C_R   0.886012 0.799056 0.144739 -0.114921
C62   C     C_R   0.114240 0.201540 0.855754 -0.142260
C63   C     C_R   0.614030 0.299016 0.355409 -0.115361
C64   C     C_R   0.386343 0.700146 0.644914 -0.141266
H25   H     H_    0.883860 0.670738 0.168977 0.129079
H26   H     H_    0.116592 0.330431 0.831887 0.122569
H27   H     H_    0.616125 0.170759 0.331125 0.128893
H28   H     H_    0.384121 0.828962 0.668860 0.131404
C65   C     C_R   0.853249 0.946286 0.149289 -0.071973
C66   C     C_R   0.146640 0.053538 0.850559 -0.037468
C67   C     C_R   0.646804 0.446222 0.350817 -0.071874
C68   C     C_R   0.353497 0.553214 0.649603 -0.062412
C69   C     C_R   0.015274 0.962512 0.061269 -0.115657
C70   C     C_R   0.984725 0.034071 0.938587 -0.115674
C71   C     C_R   0.484863 0.467393 0.438980 -0.113456
C72   C     C_R   0.515912 0.528207 0.562217 -0.114504
H29   H     H_    0.027693 0.936395 0.108750 0.112204
H30   H     H_    0.972331 0.060472 0.891119 0.109684
H31   H     H_    0.472282 0.445304 0.391307 0.109914
H32   H     H_    0.528477 0.550513 0.609881 0.111131
C73   C     C_R   0.050754 0.975154 0.024410 -0.072861
C74   C     C_R   0.949218 0.020651 0.975403 -0.089895
C75   C     C_R   0.449490 0.479791 0.475998 -0.080092
C76   C     C_R   0.551296 0.515638 0.525203 -0.093986
H33   H     H_    0.089973 0.957341 0.043999 0.108071
H34   H     H_    0.909994 0.038252 0.955814 0.112603
H35   H     H_    0.410165 0.465732 0.456363 0.104145
H36   H     H_    0.590619 0.529804 0.544830 0.112898
C77   C     C_R   0.035800 0.010578 0.962693 0.113499
C78   C     C_R   0.964219 0.986931 0.037233 0.107094
C79   C     C_R   0.464714 0.509199 0.538016 0.121217
C80   C     C_R   0.536056 0.486745 0.463153 0.109557
O21   O     O_3   0.903398 0.127677 0.368132 -0.574200
C81   C     C_3   0.899032 0.312797 0.386862 -0.214126
H37   H     H_    0.927615 0.345774 0.427544 0.135442
H38   H     H_    0.860854 0.341939 0.395176 0.146110
H39   H     H_    0.905481 0.407125 0.350539 0.160362
O22   O     O_3   0.085551 0.040745 0.647277 -0.574621
C82   C     C_3   0.069635 0.222053 0.657861 -0.280871
H40   H     H_    0.036970 0.264834 0.623120 0.149087
H41   H     H_    0.100517 0.324586 0.660258 0.149597
H42   H     H_    0.057740 0.223696 0.701822 0.165428
O23   O     O_3   0.596595 0.627677 0.131874 -0.574259
C83   C     C_3   0.600968 0.812793 0.113135 -0.214428
H43   H     H_    0.572387 0.845769 0.072451 0.135464
H44   H     H_    0.639147 0.841923 0.104821 0.146198
H45   H     H_    0.594522 0.907129 0.149453 0.160236
O24   O     O_3   0.414431 0.540611 0.852740 -0.574533
C84   C     C_3   0.430361 0.721889 0.842129 -0.280786
H46   H     H_    0.463024 0.764695 0.876870 0.148919
H47   H     H_    0.399485 0.824445 0.839707 0.149432
H48   H     H_    0.442266 0.723457 0.798174 0.165923
C85   C     C_2   0.898292 0.313158 0.051693 0.715419
O25   O     O_2   0.861588 0.413676 0.038841 -0.564594
O26   O     O_R   0.944115 0.372702 0.039522 -0.657088
H49   H     H_    0.941603 0.496754 0.018014 0.306386
C86   C     C_2   0.101292 0.686554 0.947918 0.763322
O27   O     O_2   0.059999 0.625642 0.950583 -0.538567
O28   O     O_R   0.143385 0.580682 0.972301 -0.645175
H50   H     H_    0.176122 0.647809 0.972991 0.248356
C87   C     C_2   0.602141 0.812556 0.448942 0.715711
O29   O     O_2   0.638826 0.913337 0.461398 -0.564574
O30   O     O_R   0.556512 0.871555 0.461821 -0.658529
H51   H     H_    0.559120 0.995785 0.483225 0.306188
C88   C     C_2   0.398333 0.183742 0.553148 0.710560
O31   O     O_2   0.438107 0.130889 0.541872 -0.560098
O32   O     O_R   0.356279 0.068700 0.539831 -0.674752
H52   H     H_    0.363360 0.947804 0.520172 0.300574

loop_
_geom_bond_atom_site_label_1
_geom_bond_atom_site_label_2
_ccdc_geom_bond_type
O17   V3    S    
C55   C59   A    
O30   H51   S    
C48   C52   A    
O1    C5    A    
C86   O27   D    
C47   H19   S    
O19   V1    S    
C9    C21   A    
C87   O29   D    
C72   C79   A    
O3    C7    A    
C82   H40   S    
C10   C18   A    
C56   C60   A    
C11   C23   A    
C62   C66   A    
C85   O25   D    
C61   C65   A    
C33   C38   A    
C5    C12   S    
C88   O31   D    
O7    C3    A    
C6    C11   S    
C35   C40   A    
C26   C30   A    
C36   C39   A    
C40   C44   A    
O2    V4    S    
O9    V1    S    
O24   C84   S    
C82   H41   S    
C14   C18   A    
C75   H35   S    
O4    C8    A    
C51   C55   A    
C23   O24   S    
C50   C54   A    
C57   C61   A    
C60   H24   S    
O1    V3    S    
O13   V1    S    
C31   C43   A    
C72   C76   A    
C59   C63   A    
O3    V1    S    
C40   H16   S    
C46   C50   A    
C17   H6    S    
C45   C49   A    
C1    O15   A    
C84   H46   S    
C15   C31   A    
C76   C80   A    
O26   H49   S    
C2    O16   A    
C16   C32   A    
C47   C51   A    
O2    C6    A    
O23   C83   S    
C16   H12   S    
C58   H22   S    
C10   C22   A    
C49   C85   S    
C48   C68   A    
C11   C19   A    
C62   H26   S    
C16   C20   A    
C43   H3    S    
C37   H13   S    
C76   H36   S    
C72   H32   S    
C13   C29   A    
C34   C37   A    
O11   C7    A    
C38   H14   S    
O15   V3    S    
C35   C36   A    
O12   C8    A    
C87   O30   S    
C81   H39   S    
C47   C67   A    
C74   H34   S    
O10   V2    S    
C50   C86   S    
C85   O26   S    
C22   O21   S    
O5    V1    S    
C88   O32   S    
C57   H21   S    
C39   C43   A    
O7    V3    S    
C52   C88   S    
C38   C42   A    
C54   C77   S    
C21   O22   S    
O8    V4    S    
C48   H20   S    
C82   H42   S    
C2    C68   S    
C46   H18   S    
O28   H50   S    
C60   C64   A    
C45   H17   S    
O18   V4    S    
C86   O28   S    
C15   C19   A    
C14   H10   S    
C32   C44   A    
C13   H9    S    
C71   C80   A    
C39   H15   S    
C44   H4    S    
C26   C34   A    
C69   C78   A    
C70   H30   S    
C20   H7    S    
O5    C1    A    
C56   C79   S    
C63   H27   S    
C71   H31   S    
O32   H52   S    
C14   C30   A    
C83   H45   S    
C21   C25   A    
O8    C4    A    
C7    C10   S    
O9    C5    A    
C46   C66   A    
C45   C65   A    
C51   C87   S    
C4    C66   S    
C63   C67   A    
O6    V2    S    
C83   H44   S    
C69   H29   S    
C84   H48   S    
O14   V2    S    
C1    C67   S    
C73   H33   S    
C55   C80   S    
C12   C20   A    
C27   C35   A    
C84   H47   S    
C3    C65   S    
C49   C53   A    
C53   C78   S    
C64   H28   S    
C81   H38   S    
C29   C41   A    
C64   C68   A    
O22   C82   S    
O16   V4    S    
C19   H8    S    
C3    O13   A    
C18   H5    S    
C71   C75   A    
C70   C77   A    
C69   C73   A    
O6    C2    A    
C25   C33   A    
C23   C27   A    
O11   V3    S    
C30   C42   A    
C61   H25   S    
O12   V4    S    
C22   C26   A    
C8    C9    S    
C9    C17   A    
O10   C6    A    
O20   V2    S    
C54   C58   A    
O21   C81   S    
C33   C34   A    
C42   H2    S    
C58   C62   A    
C41   H1    S    
C52   C56   A    
C12   C24   A    
C27   C31   A    
C13   C17   A    
O4    V2    S    
C25   C29   A    
C75   C79   A    
C37   C41   A    
C24   C28   A    
C73   C77   A    
C83   H43   S    
C28   C36   A    
C24   O23   S    
C4    O14   A    
C81   H37   S    
C59   H23   S    
C70   C74   A    
C53   C57   A    
C28   C32   A    
C15   H11   S    
C74   C78   A    
