data_mof_unit_42430.cif
_audit_creation_date              2012-12-10T17:02:05-0500
_audit_creation_method            fapswitch 2.2
_symmetry_space_group_name_H-M    P1
_symmetry_Int_Tables_number       1
_space_group_crystal_system       triclinic
_cell_length_a                    10.794502
_cell_length_b                    11.064528
_cell_length_c                    9.842357
_cell_angle_alpha                 110.117146
_cell_angle_beta                  98.614834
_cell_angle_gamma                 91.949868
_cell_volume                      1086.71838252

loop_
_atom_site_label
_atom_site_type_symbol
_atom_type_description
_atom_site_fract_x
_atom_site_fract_y
_atom_site_fract_z
_atom_type_partial_charge
C1    C     C_R   0.490411 0.254525 0.441127 0.881179
C2    C     C_R   0.075130 0.484675 0.622435 0.025532
C3    C     C_R   0.125798 0.481199 0.496696 -0.115331
C4    C     C_R   0.046303 0.490620 0.374988 -0.151303
C5    C     C_R   0.919854 0.503455 0.377963 -0.159207
C6    C     C_R   0.874688 0.526493 0.509442 -0.111889
C7    C     C_2   0.484513 0.115693 0.407241 -0.344208
C8    C     C_2   0.493292 0.069094 0.515266 -0.076720
C9    C     C_2   0.530148 0.884043 0.591438 -0.192696
C10   C     C_2   0.491002 0.931007 0.485226 -0.166640
C11   C     C_2   0.511992 0.515674 0.086153 -0.049838
C12   C     C_R   0.261618 0.490045 0.498366 0.809507
C13   C     C_2   0.539036 0.471761 0.928776 0.022571
C14   C     C_R   0.512054 0.745451 0.558585 0.784700
C15   C     C_R   0.738335 0.512530 0.503146 0.803511
C16   C     C_R   0.129715 0.433516 0.728912 -0.056061
C17   C     C_R   0.087222 0.467584 0.864846 -0.065649
C18   C     C_R   0.000475 0.561203 0.897832 -0.070070
C19   C     C_R   0.936613 0.597658 0.784410 -0.055269
C20   C     C_R   0.960255 0.538580 0.639421 0.031885
Cu1   Cu    Cu3+1 0.521920 0.521810 0.644910 0.957479
Cu2   Cu    Cu3+1 0.478080 0.478190 0.355090 0.994087
H1    H     H_    0.081202 0.487178 0.276788 0.195138
H2    H     H_    0.474413 0.051346 0.293456 0.160162
H3    H     H_    0.559923 0.606929 0.162234 0.147625
H4    H     H_    0.537881 0.647311 0.922082 0.208681
H5    H     H_    0.403855 0.357540 0.063989 0.262966
H6    H     H_    0.857920 0.497185 0.277985 0.183446
H7    H     H_    0.450125 0.866414 0.375022 0.168436
H8    H     H_    0.500774 0.133532 0.627687 0.220020
N1    N     N_2   0.445130 0.445430 0.137370 -0.263886
N2    N     N_2   0.554930 0.554500 0.862630 -0.341239
O1    O     O_R   0.511700 0.332330 0.577400 -0.600686
O2    O     O_R   0.474680 0.295500 0.332650 -0.556396
O3    O     O_R   0.338160 0.518420 0.622400 -0.573850
O4    O     O_R   0.301140 0.481590 0.377650 -0.562830
O5    O     O_R   0.525320 0.704500 0.667350 -0.589424
O6    O     O_R   0.488300 0.667670 0.422600 -0.582970
O7    O     O_R   0.698860 0.518410 0.622350 -0.581298
O8    O     O_R   0.661840 0.481580 0.377600 -0.570237
C21   C     C_2   0.582657 0.342060 0.869251 0.450591
H9    H     H_    0.644434 0.323079 0.788522 0.123891
O9    O     O_2   0.557449 0.257278 0.916312 -0.563315
C22   C     C_1   0.210859 0.329710 0.690077 0.278546
N3    N     N_1   0.274579 0.245890 0.659533 -0.284896
C23   C     C_1   0.128132 0.402626 0.966509 0.240084
N4    N     N_1   0.159521 0.348347 0.045579 -0.279813
C24   C     C_1   0.975239 0.618334 0.046071 0.232706
N5    N     N_1   0.954973 0.665555 0.164165 -0.296103
C25   C     C_1   0.862231 0.707545 0.820416 0.297980
N6    N     N_1   0.803450 0.795573 0.849915 -0.269488
C26   C     C_2   0.598875 0.965591 0.739344 0.462691
H10   H     H_    0.581588 0.945755 0.835789 0.100029
O10   O     O_2   0.681186 0.049534 0.753223 -0.512132

loop_
_geom_bond_atom_site_label_1
_geom_bond_atom_site_label_2
_ccdc_geom_bond_type
C9    C14   S    
H4    N2    S    
Cu1   O3    S    
C7    H2    S    
C2    C20   A    
C12   O4    A    
C5    H6    S    
C2    C16   A    
C9    C10   D    
C16   C22   S    
C13   N2    D    
C19   C20   A    
Cu1   O7    S    
Cu2   O8    S    
C8    H8    S    
C13   C21   S    
C17   C18   A    
C11   N1    D    
C7    C8    D    
Cu1   Cu2   S    
C26   H10   S    
C14   O5    A    
C21   O9    D    
C19   C25   S    
C15   O7    A    
C9    C26   S    
C24   N5    T    
C26   O10   D    
C1    O2    A    
C2    C3    A    
C5    C6    A    
Cu2   O2    S    
Cu1   N2    S    
C15   O8    A    
Cu1   O1    S    
Cu2   N1    S    
C11   H3    S    
C1    O1    A    
C14   O6    A    
Cu2   O6    S    
C10   H7    S    
C11   C13   S    
C6    C20   A    
C17   C23   S    
Cu1   O5    S    
C8    C10   S    
C18   C19   A    
C21   H9    S    
C4    H1    S    
C23   N4    T    
C16   C17   A    
C3    C12   S    
C25   N6    T    
C6    C15   S    
C1    C7    S    
H5    N1    S    
Cu2   O4    S    
C22   N3    T    
C3    C4    A    
C4    C5    A    
C12   O3    A    
C18   C24   S    
