data_mof_unit_8422.cif
_audit_creation_date              2012-12-10T16:37:24-0500
_audit_creation_method            fapswitch 2.2
_symmetry_space_group_name_H-M    P1
_symmetry_Int_Tables_number       1
_space_group_crystal_system       triclinic
_cell_length_a                    16.840918
_cell_length_b                    16.946779
_cell_length_c                    16.722949
_cell_angle_alpha                 65.77891
_cell_angle_beta                  65.896027
_cell_angle_gamma                 65.687878
_cell_volume                      3798.31672693

loop_
_atom_site_label
_atom_site_type_symbol
_atom_type_description
_atom_site_fract_x
_atom_site_fract_y
_atom_site_fract_z
_atom_type_partial_charge
C1    C     C_R   0.407801 0.032009 0.665689 -0.221315
C2    C     C_R   0.402234 0.668737 0.044964 -0.222523
C3    C     C_R   0.963190 0.591706 0.335986 -0.218102
C4    C     C_R   0.081206 0.396005 0.652452 -0.209467
C5    C     C_R   0.979858 0.176240 0.430545 0.983720
C6    C     C_R   0.037389 0.820593 0.562459 0.931756
C7    C     C_R   0.179363 0.437710 0.963258 0.932589
C8    C     C_R   0.820481 0.562016 0.038356 0.938805
C9    C     C_R   0.438634 0.960418 0.179731 0.920322
C10   C     C_R   0.561613 0.037862 0.820358 0.965708
C11   C     C_R   0.562612 0.820743 0.037051 0.944928
C12   C     C_R   0.605467 0.918027 0.348185 -0.216477
C13   C     C_R   0.430698 0.176137 0.979848 0.962913
C14   C     C_R   0.039221 0.561538 0.820417 0.937604
C15   C     C_R   0.962308 0.438206 0.179495 0.930621
C16   C     C_R   0.823714 0.020258 0.569374 0.984418
C17   C     C_R   0.179447 0.961401 0.438163 0.931395
C18   C     C_R   0.449827 0.056760 0.704474 -0.119876
C19   C     C_R   0.558112 0.914046 0.298918 -0.136770
C20   C     C_R   0.063646 0.710710 0.443990 -0.134502
C21   C     C_R   0.060559 0.258978 0.495655 -0.137533
C22   C     C_R   0.702381 0.443798 0.081973 -0.124587
C23   C     C_R   0.043805 0.668976 0.401283 -0.231391
C24   C     C_R   0.295064 0.548978 0.943045 -0.122301
C25   C     C_R   0.290528 0.929963 0.557527 -0.131455
C26   C     C_R   0.742237 0.937055 0.506717 -0.137737
C27   C     C_R   0.496442 0.259236 0.059975 -0.135678
C28   C     C_R   0.445112 0.710346 0.064545 -0.123854
C29   C     C_R   0.939702 0.549340 0.296627 -0.121112
C30   C     C_R   0.085846 0.443169 0.701164 -0.125994
C31   C     C_R   0.553206 0.980349 0.559339 0.045281
C32   C     C_R   0.466236 0.944412 0.470568 0.046866
C33   C     C_R   0.051910 0.534824 0.530809 0.047071
C34   C     C_R   0.077576 0.300946 0.540653 -0.207630
C35   C     C_R   0.016388 0.447249 0.442331 0.045426
C36   C     C_R   0.531900 0.535192 0.050321 0.046496
C37   C     C_R   0.442482 0.447385 0.016477 0.046396
C38   C     C_R   0.605281 0.945525 0.483344 0.043674
C39   C     C_R   0.418085 0.963173 0.555680 0.044376
C40   C     C_R   0.061727 0.440981 0.567648 0.040296
C41   C     C_R   0.004628 0.541347 0.407147 0.040989
C42   C     C_R   0.446852 0.582748 0.031857 0.044122
C43   C     C_R   0.519304 0.396200 0.050121 0.044553
C44   C     C_R   0.560250 0.935765 0.433620 0.041415
C45   C     C_R   0.653849 0.396750 0.077330 -0.207443
C46   C     C_R   0.458887 0.990961 0.594654 0.041120
C47   C     C_R   0.407116 0.541334 0.005534 0.040983
C48   C     C_R   0.568840 0.441525 0.059256 0.039956
C49   C     C_R   0.051665 0.395798 0.518371 0.044958
C50   C     C_R   0.031818 0.582662 0.446155 0.046052
C51   C     C_R   0.545014 0.038242 0.676521 -0.009060
C52   C     C_R   0.463216 0.928056 0.332307 -0.013673
C53   C     C_R   0.061531 0.672998 0.537361 -0.010963
C54   C     C_R   0.010972 0.309611 0.430756 -0.015137
C55   C     C_R   0.669112 0.538268 0.067852 -0.011067
C56   C     C_R   0.334892 0.591413 0.965860 -0.216250
C57   C     C_R   0.323194 0.454206 0.961997 -0.007646
C58   C     C_R   0.328051 0.934202 0.463736 -0.014072
C59   C     C_R   0.690803 0.987176 0.570661 -0.016665
C60   C     C_R   0.430833 0.309630 0.011336 -0.014624
C61   C     C_R   0.538296 0.673024 0.060951 -0.009893
C62   C     C_R   0.959557 0.454569 0.324327 -0.007763
C63   C     C_R   0.070566 0.537730 0.668056 -0.011898
C64   C     C_R   0.591845 0.052442 0.721811 -0.255403
C65   C     C_R   0.410460 0.933629 0.280226 -0.254999
C66   C     C_R   0.061609 0.721687 0.590226 -0.250193
C67   C     C_R   0.332027 0.949619 0.600748 -0.230123
C68   C     C_R   0.978234 0.269922 0.393872 -0.263080
C69   C     C_R   0.720453 0.590507 0.063610 -0.256785
C70   C     C_R   0.277480 0.407087 0.949195 -0.248296
C71   C     C_R   0.278755 0.935823 0.410486 -0.253133
C72   C     C_R   0.730070 0.021215 0.606484 -0.264985
C73   C     C_R   0.393800 0.269747 0.978948 -0.254033
C74   C     C_R   0.590716 0.721817 0.060930 -0.256140
C75   C     C_R   0.946836 0.407767 0.278261 -0.250895
C76   C     C_R   0.065548 0.589956 0.719952 -0.260185
C77   C     C_R   0.678719 0.057835 0.678300 0.538357
C78   C     C_R   0.700536 0.919776 0.461561 -0.210549
C79   C     C_R   0.323037 0.926600 0.323366 0.532241
C80   C     C_R   0.072153 0.677082 0.676884 0.530854
C81   C     C_R   0.942108 0.320982 0.321381 0.536929
C82   C     C_R   0.677188 0.677466 0.070785 0.529064
C83   C     C_R   0.320832 0.320460 0.943894 0.529811
C84   C     C_R   0.596060 0.003082 0.601271 0.076360
C85   C     C_R   0.419424 0.934822 0.422353 0.073112
C86   C     C_R   0.061935 0.581666 0.578604 0.073524
C87   C     C_R   0.994439 0.404056 0.400082 0.076169
C88   C     C_R   0.579731 0.582012 0.060115 0.073269
C89   C     C_R   0.541894 0.301365 0.075848 -0.208478
C90   C     C_R   0.399685 0.404007 0.995439 0.074271
F1    F     F_    0.715368 0.091846 0.711522 -0.628961
F2    F     F_    0.278150 0.917214 0.277571 -0.642729
F3    F     F_    0.082624 0.721274 0.722339 -0.642966
F4    F     F_    0.909113 0.284226 0.287279 -0.638481
F5    F     F_    0.722122 0.721675 0.081542 -0.644147
F6    F     F_    0.286994 0.283626 0.910717 -0.646239
H1    H     H_    0.334410 0.048901 0.689766 0.140711
H2    H     H_    0.331940 0.702882 0.045366 0.142827
H3    H     H_    0.945156 0.664756 0.312041 0.140456
H4    H     H_    0.090187 0.324416 0.684547 0.141700
H5    H     H_    0.406410 0.092730 0.754944 0.179335
H6    H     H_    0.598301 0.896393 0.236000 0.186401
H7    H     H_    0.082849 0.771439 0.400597 0.190159
H8    H     H_    0.089126 0.186404 0.511886 0.173792
H9    H     H_    0.764526 0.403447 0.100698 0.187761
H10   H     H_    0.243878 0.591975 0.907710 0.179289
H11   H     H_    0.229799 0.909924 0.600276 0.188931
H12   H     H_    0.677273 0.910186 0.316036 0.141185
H13   H     H_    0.815195 0.908638 0.491189 0.174245
H14   H     H_    0.512936 0.186688 0.088780 0.175985
H15   H     H_    0.402006 0.770645 0.084931 0.187967
H16   H     H_    0.903630 0.592133 0.245828 0.177020
H17   H     H_    0.105069 0.403140 0.763458 0.184934
H18   H     H_    0.042912 0.703362 0.330919 0.143194
H19   H     H_    0.114452 0.257377 0.590451 0.137893
H20   H     H_    0.686088 0.325282 0.085481 0.144649
H21   H     H_    0.310489 0.664425 0.948450 0.144001
H22   H     H_    0.297744 0.949494 0.671344 0.143298
H23   H     H_    0.744474 0.882877 0.412130 0.138498
H24   H     H_    0.592289 0.257903 0.111878 0.141551
O1    O     O_R   0.982940 0.138950 0.510160 -0.650214
O2    O     O_R   0.982940 0.510160 0.138950 -0.652585
O3    O     O_R   0.861050 0.017060 0.489840 -0.652179
O4    O     O_R   0.138950 0.982940 0.510160 -0.680271
O5    O     O_R   0.867700 0.025880 0.612340 -0.547163
O6    O     O_R   0.132300 0.974120 0.387660 -0.559176
O7    O     O_R   0.025880 0.612340 0.867700 -0.547876
O8    O     O_R   0.974120 0.387660 0.132300 -0.559989
O9    O     O_R   0.612340 0.867700 0.025880 -0.553030
O10   O     O_R   0.387660 0.132300 0.974120 -0.559545
O11   O     O_R   0.387660 0.974120 0.132300 -0.556178
O12   O     O_R   0.017060 0.861050 0.489840 -0.682612
O13   O     O_R   0.612340 0.025880 0.867700 -0.548198
O14   O     O_R   0.132300 0.387660 0.974120 -0.560392
O15   O     O_R   0.867700 0.612340 0.025880 -0.548066
O16   O     O_R   0.974120 0.132300 0.387660 -0.548279
O17   O     O_R   0.025880 0.867700 0.612340 -0.559369
O18   O     O_R   0.138950 0.510160 0.982940 -0.654386
O19   O     O_R   0.861050 0.489840 0.017060 -0.655008
O20   O     O_R   0.510160 0.982940 0.138950 -0.674447
O21   O     O_R   0.489840 0.017060 0.861050 -0.653667
O22   O     O_R   0.489840 0.861050 0.017060 -0.662399
O23   O     O_R   0.510160 0.138950 0.982940 -0.654257
O24   O     O_R   0.017060 0.489840 0.861050 -0.653585
Zn1   Zn    Zn3+2 0.004880 0.004880 0.583590 1.016061
Zn2   Zn    Zn3+2 0.995120 0.995120 0.416410 1.011032
Zn3   Zn    Zn3+2 0.004880 0.583590 0.004880 1.023087
Zn4   Zn    Zn3+2 0.995120 0.416410 0.995120 1.013589
Zn5   Zn    Zn3+2 0.583590 0.004880 0.004880 1.018642
Zn6   Zn    Zn3+2 0.416410 0.995120 0.995120 1.011164

loop_
_geom_bond_atom_site_label_1
_geom_bond_atom_site_label_2
_ccdc_geom_bond_type
C5    O16   A    
C15   C75   S    
C65   C79   A    
C15   O2    A    
C64   C77   A    
C29   H16   S    
C36   C42   A    
C16   C72   S    
C10   O13   A    
O24   Zn4   S    
C7    C70   S    
C71   C79   A    
O6    Zn2   S    
C20   H7    S    
C36   C88   A    
O9    Zn5   S    
C1    C18   A    
C26   C78   A    
C37   C90   A    
C8    O19   A    
C68   C81   A    
O17   Zn1   S    
C52   C85   A    
C16   O3    A    
C27   C60   A    
C54   C87   A    
C19   H6    S    
C17   O6    A    
C54   C68   A    
C63   C76   A    
C83   F6    S    
C40   C49   A    
C5    O1    A    
C60   C73   A    
O4    Zn1   S    
C56   H21   S    
C32   C39   A    
C55   C88   A    
C3    C29   A    
C69   C82   A    
C21   H8    S    
C35   C87   A    
C19   C52   A    
C3    C41   A    
O10   Zn6   S    
C4    C40   A    
C27   H14   S    
C24   C57   A    
C31   C46   A    
C25   C67   A    
C35   C49   A    
C13   O10   A    
C20   C23   A    
C36   C48   A    
C53   C86   A    
C57   C70   A    
C37   C47   A    
C43   C48   A    
C59   C72   A    
C28   C61   A    
C30   C63   A    
C8    O15   A    
C74   C82   A    
C5    C68   S    
C35   C41   A    
C11   O9    A    
C11   O22   A    
O21   Zn6   S    
C9    O11   A    
C28   H15   S    
C32   C44   A    
C14   O24   A    
O19   Zn4   S    
C33   C40   A    
C57   C90   A    
O13   Zn5   S    
C59   C84   A    
C7    O14   A    
C6    O12   A    
C89   H24   S    
C1    H1    S    
C12   H12   S    
C75   C81   A    
C23   C50   A    
C21   C34   A    
C38   C78   A    
C33   C50   A    
C4    C30   A    
C14   O7    A    
C18   H5    S    
C14   C76   S    
C37   C43   A    
C33   C86   A    
C38   C44   A    
C72   C77   A    
C70   C83   A    
C61   C88   A    
C10   O21   A    
C17   O4    A    
O3    Zn2   S    
O23   Zn5   S    
O18   Zn3   S    
C8    C69   S    
C43   C89   A    
O2    Zn3   S    
C53   C66   A    
C26   H13   S    
C79   F2    S    
C55   C69   A    
C39   C46   A    
C16   O5    A    
C13   C73   S    
C17   C71   S    
O15   Zn3   S    
C15   O8    A    
C4    H4    S    
C63   C86   A    
C61   C74   A    
O1    Zn1   S    
C62   C75   A    
C24   H10   S    
C25   C58   A    
C58   C85   A    
C41   C50   A    
C66   C80   A    
C25   H11   S    
C26   C59   A    
C45   C48   A    
C29   C62   A    
C77   F1    S    
C34   C49   A    
C82   F5    S    
C39   C67   A    
O8    Zn4   S    
C51   C64   A    
C76   C80   A    
C20   C53   A    
C11   C74   S    
C7    O18   A    
C22   C55   A    
C60   C90   A    
C18   C51   A    
C24   C56   A    
C22   H9    S    
O14   Zn4   S    
C62   C87   A    
C10   C64   S    
C31   C38   A    
O12   Zn2   S    
O22   Zn6   S    
C6    O17   A    
C78   H23   S    
C34   H19   S    
C12   C44   A    
O5    Zn1   S    
C23   H18   S    
C81   F4    S    
C45   H20   S    
C21   C54   A    
C2    C42   A    
C32   C85   A    
O20   Zn5   S    
C12   C19   A    
C9    O20   A    
C27   C89   A    
C42   C47   A    
C13   O23   A    
C1    C46   A    
C67   H22   S    
C9    C65   S    
C58   C71   A    
C31   C84   A    
C3    H3    S    
C6    C66   S    
C22   C45   A    
C2    H2    S    
O11   Zn6   S    
C2    C28   A    
C80   F3    S    
C51   C84   A    
C73   C83   A    
O16   Zn2   S    
C52   C65   A    
O7    Zn3   S    
C47   C56   A    
C30   H17   S    
