data_mof_unit_56637.cif
_audit_creation_date              2012-10-26T19:46:05-0400
_audit_creation_method            fapswitch 2.2
_symmetry_space_group_name_H-M    P1
_symmetry_Int_Tables_number       1
_space_group_crystal_system       triclinic
_cell_length_a                    10.824737
_cell_length_b                    9.65608
_cell_length_c                    15.866354
_cell_angle_alpha                 89.468169
_cell_angle_beta                  95.323993
_cell_angle_gamma                 90.159974
_cell_volume                      1651.19434456

loop_
_atom_site_label
_atom_site_type_symbol
_atom_type_description
_atom_site_fract_x
_atom_site_fract_y
_atom_site_fract_z
_atom_type_partial_charge
C1    C     C_R   0.263010 0.499221 0.504679 0.610940
C2    C     C_R   0.938521 0.619139 0.527160 -0.117237
C3    C     C_R   0.871139 0.500052 0.503377 -0.075105
C4    C     C_R   0.129000 0.496472 0.510337 0.009494
C5    C     C_R   0.417831 0.076500 0.441651 0.336998
C6    C     C_R   0.417054 0.924339 0.442566 0.334983
C7    C     C_R   0.504686 0.500735 0.340894 0.601392
C8    C     C_R   0.578165 0.925928 0.555405 -0.042435
C9    C     C_R   0.577400 0.072921 0.555904 -0.045535
C10   C     C_R   0.737321 0.500214 0.500651 0.534724
C11   C     C_R   0.501367 0.499294 0.659619 0.499404
C12   C     C_3   0.637569 0.470086 0.960925 -0.224508
C13   C     C_3   0.453385 0.642288 0.046059 -0.187795
C14   C     C_3   0.420323 0.387867 0.046859 -0.257217
C15   C     C_3   0.410494 0.382549 0.946969 0.406313
C16   C     C_3   0.453991 0.646638 0.945321 0.460787
C17   C     C_1   0.502828 0.497270 0.749382 0.008537
C18   C     C_3   0.509687 0.504371 0.083977 -0.024391
C19   C     C_3   0.502390 0.498523 0.917614 0.039457
C20   C     C_3   0.232343 0.714320 0.937225 -0.009909
C21   C     C_3   0.242261 0.864111 0.966936 -0.332562
C22   C     C_3   0.189835 0.338546 0.940594 0.022272
C23   C     C_3   0.646647 0.492121 0.058434 0.485460
C24   C     C_3   0.085003 0.326537 0.870142 -0.362759
C25   C     C_3   0.836445 0.618662 0.079714 0.050892
C26   C     C_3   0.887556 0.762296 0.063754 -0.360428
C27   C     C_3   0.675968 0.252925 0.106919 -0.026115
C28   C     C_3   0.784134 0.155279 0.129280 -0.341657
C29   C     C_3   0.107418 0.160419 0.555701 0.008751
C30   C     C_3   0.199071 0.201243 0.630513 -0.393296
C31   C     C_3   0.164636 0.707452 0.652904 -0.011079
C32   C     C_3   0.201823 0.843614 0.694743 -0.355756
C33   C     C_1   0.503575 0.496170 0.825022 0.082265
C34   C     C_1   0.509289 0.504972 0.176226 0.002662
C35   C     C_1   0.507500 0.503033 0.251574 0.030374
C36   C     C_R   0.060736 0.372658 0.494805 0.236559
C37   C     C_R   0.067166 0.616956 0.533338 0.228610
C38   C     C_R   0.932183 0.377512 0.487464 -0.139344
Cu1   Cu    Cu3+1 0.500020 0.640660 0.500000 1.053538
Cu2   Cu    Cu3+1 0.500020 0.359340 0.500000 1.035179
H1    H     H_    0.641876 0.870963 0.600388 0.137974
H2    H     H_    0.892013 0.712784 0.544014 0.156384
H3    H     H_    0.205871 0.641109 0.986540 0.126226
H4    H     H_    0.151393 0.710177 0.888904 0.142992
H5    H     H_    0.252313 0.934117 0.912177 0.237243
H6    H     H_    0.156240 0.893025 0.995458 0.084999
H7    H     H_    0.321740 0.878601 0.015152 0.209397
H8    H     H_    0.151369 0.394011 0.993256 0.097090
H9    H     H_    0.217587 0.232941 0.963192 0.189635
H10   H     H_    0.116935 0.271070 0.815302 0.178492
H11   H     H_    0.006160 0.268460 0.893579 0.105746
H12   H     H_    0.640583 0.126937 0.601210 0.140189
H13   H     H_    0.052492 0.431388 0.849092 0.142217
H14   H     H_    0.360617 0.233800 0.780043 0.344861
H15   H     H_    0.465054 0.851231 0.789371 0.343126
H16   H     H_    0.871111 0.547105 0.032599 0.124345
H17   H     H_    0.873440 0.584389 0.144254 0.178218
H18   H     H_    0.857313 0.835696 0.111073 0.173963
H19   H     H_    0.990519 0.758914 0.069448 0.081357
H20   H     H_    0.854238 0.798848 0.999103 0.209418
H21   H     H_    0.631309 0.220233 0.045116 0.202650
H22   H     H_    0.612013 0.241349 0.157322 0.172466
H23   H     H_    0.361819 0.653340 0.070061 0.078873
H24   H     H_    0.833395 0.183832 0.191254 0.177364
H25   H     H_    0.748873 0.047660 0.133599 0.148190
H26   H     H_    0.850111 0.160644 0.079723 0.156061
H27   H     H_    0.128959 0.052834 0.537880 0.211809
H28   H     H_    0.011382 0.157596 0.575528 0.103318
H29   H     H_    0.181407 0.138433 0.686783 0.117041
H30   H     H_    0.295674 0.182814 0.615319 0.184049
H31   H     H_    0.188002 0.311563 0.647178 0.122360
H32   H     H_    0.244815 0.635353 0.661652 0.142342
H33   H     H_    0.086487 0.663635 0.686058 0.111866
H34   H     H_    0.441665 0.286189 0.076194 0.149081
H35   H     H_    0.119651 0.912458 0.691690 0.135123
H36   H     H_    0.234822 0.825381 0.762063 0.160976
H37   H     H_    0.277134 0.893556 0.662230 0.169094
H38   H     H_    0.246888 0.354428 0.294849 0.335736
H39   H     H_    0.206276 0.653895 0.316178 0.341198
H40   H     H_    0.328809 0.410267 0.069505 0.105819
H41   H     H_    0.503911 0.731151 0.076449 0.204210
H42   H     H_    0.706122 0.535834 0.932416 0.167659
H43   H     H_    0.672916 0.367485 0.947313 0.147507
H44   H     H_    0.880596 0.283917 0.470533 0.159703
N1    N     N_R   0.500030 0.852070 0.500020 -0.277781
N2    N     N_R   0.500030 0.147930 0.500020 -0.285236
O1    O     O_R   0.319660 0.618740 0.500000 -0.402298
O2    O     O_3   0.288238 0.417327 0.910675 -0.529811
O3    O     O_2   0.571033 0.196010 0.875262 -0.288126
O4    O     O_2   0.434937 0.102837 0.975817 -0.273610
O5    O     O_3   0.340763 0.170528 0.826356 -0.515092
O6    O     O_2   0.605952 0.874194 0.985425 -0.229897
O7    O     O_2   0.658074 0.741274 0.864314 -0.356238
O8    O     O_3   0.464993 0.893876 0.845911 -0.396750
O9    O     O_3   0.704792 0.623767 0.075054 -0.519364
O10   O     O_3   0.721337 0.389725 0.105986 -0.579286
O11   O     O_3   0.119064 0.247324 0.484327 -0.472405
O12   O     O_R   0.319660 0.381260 0.500000 -0.417125
O13   O     O_3   0.130776 0.731677 0.565765 -0.518261
O14   O     O_2   0.389485 0.145429 0.276402 -0.302449
O15   O     O_2   0.195415 0.102840 0.339029 -0.184803
O16   O     O_3   0.283868 0.334078 0.353141 -0.464256
O17   O     O_2   0.175536 0.871676 0.403031 -0.247234
O18   O     O_2   0.303096 0.893902 0.282921 -0.239859
O19   O     O_3   0.285658 0.666134 0.351805 -0.494796
O20   O     O_R   0.500020 0.618840 0.379440 -0.433670
O21   O     O_R   0.500020 0.381160 0.379440 -0.431568
O22   O     O_R   0.680370 0.618830 0.500010 -0.516272
O23   O     O_R   0.680370 0.381170 0.500010 -0.520701
O24   O     O_R   0.500010 0.618730 0.620560 -0.516207
O25   O     O_R   0.500010 0.381270 0.620560 -0.525023
O26   O     O_3   0.336699 0.670316 0.896675 -0.526507
S1    S     S_3+6 0.445515 0.209461 0.907447 -0.000083
S2    S     S_3+6 0.552637 0.789022 0.911988 0.058574
S3    S     S_3+6 0.321982 0.165997 0.354047 0.119809
S4    S     S_3+6 0.297766 0.836271 0.370740 0.105492

loop_
_geom_bond_atom_site_label_1
_geom_bond_atom_site_label_2
_ccdc_geom_bond_type
C1    O1    A    
Cu1   O20   S    
C22   H8    S    
C4    C36   A    
H38   O16   S    
C14   C18   S    
O19   S4    S    
C10   O22   A    
C25   H16   S    
Cu1   O1    S    
C30   H29   S    
C32   H35   S    
C30   H31   S    
O8    S2    S    
C20   O26   S    
C15   C19   S    
C9    H12   S    
C12   C23   S    
C6    N1    A    
C25   H17   S    
C13   C18   S    
C14   H34   S    
C8    N1    A    
Cu2   O12   S    
C5    C6    A    
C31   H33   S    
C13   H41   S    
C23   O10   S    
H39   O19   S    
C10   O23   A    
C34   C35   T    
O4    S1    D    
Cu2   N2    S    
O16   S3    S    
C27   H21   S    
C30   H30   S    
C32   H37   S    
O18   S4    D    
Cu1   O24   S    
C3    C38   A    
C8    C9    A    
C15   S1    S    
C36   O11   S    
C31   O13   S    
C26   H19   S    
C24   H11   S    
C29   H27   S    
C5    S3    S    
C11   O24   A    
C27   O10   S    
O14   S3    D    
C17   C33   T    
H15   O8    S    
C20   H4    S    
Cu2   O25   S    
C21   H5    S    
C24   H10   S    
Cu1   O22   S    
O3    S1    D    
C11   O25   A    
C18   C23   S    
C8    H1    S    
C19   C33   S    
Cu1   Cu2   S    
C25   C26   S    
C22   O2    S    
O5    S1    S    
C12   H43   S    
C28   H26   S    
C29   C30   S    
C27   H22   S    
C9    N2    A    
C29   H28   S    
C26   H18   S    
C31   C32   S    
C13   H23   S    
C7    O20   A    
C12   H42   S    
C4    C37   A    
C18   C34   S    
C6    S4    S    
Cu2   O21   S    
C5    N2    A    
C28   H24   S    
C31   H32   S    
C25   O9    S    
C14   H40   S    
C22   H9    S    
O15   S3    D    
C7    O21   A    
Cu1   N1    S    
C37   O13   S    
C20   H3    S    
C16   O26   S    
C21   H6    S    
C11   C17   S    
C38   H44   S    
C7    C35   S    
C16   S2    S    
C1    O12   A    
C32   H36   S    
Cu2   O23   S    
O17   S4    D    
C29   O11   S    
C1    C4    S    
C36   C38   A    
C28   H25   S    
C24   H13   S    
H14   O5    S    
C3    C10   S    
C2    C37   A    
C26   H20   S    
C2    H2    S    
C16   C19   S    
C12   C19   S    
C23   O9    S    
C2    C3    A    
C22   C24   S    
O7    S2    D    
C20   C21   S    
C13   C16   S    
C27   C28   S    
C14   C15   S    
O6    S2    D    
C15   O2    S    
C21   H7    S    
