data_mof_unit_23973.cif
_audit_creation_date              2012-12-10T20:46:51-0500
_audit_creation_method            fapswitch 2.2
_symmetry_space_group_name_H-M    P1
_symmetry_Int_Tables_number       1
_space_group_crystal_system       triclinic
_cell_length_a                    12.86347
_cell_length_b                    8.935281
_cell_length_c                    8.110316
_cell_angle_alpha                 89.994528
_cell_angle_beta                  96.084376
_cell_angle_gamma                 89.944664
_cell_volume                      926.937751429

loop_
_atom_site_label
_atom_site_type_symbol
_atom_type_description
_atom_site_fract_x
_atom_site_fract_y
_atom_site_fract_z
_atom_type_partial_charge
C1    C     C_R   0.499895 0.217998 0.499986 0.922532
C2    C     C_R   0.869659 0.435330 0.699549 0.595110
C3    C     C_R   0.133430 0.534362 0.598330 0.003285
C4    C     C_R   0.866570 0.465641 0.401670 0.003284
C5    C     C_R   0.028270 0.493946 0.579881 -0.044761
C6    C     C_R   0.971730 0.506057 0.420120 -0.044762
C7    C     C_1   0.499967 0.065189 0.500000 -0.173219
C8    C     C_1   0.500033 0.934811 0.500000 -0.173219
C9    C     C_R   0.500105 0.782002 0.500013 0.922531
C10   C     C_R   0.298168 0.514855 0.469826 0.923420
C11   C     C_R   0.701832 0.485145 0.530174 0.923420
C12   C     C_R   0.813764 0.461633 0.544808 -0.269730
C13   C     C_R   0.186236 0.538369 0.455192 -0.269730
C14   C     C_R   0.022112 0.560477 0.285138 0.003505
C15   C     C_R   0.977888 0.439526 0.714863 0.003505
C16   C     C_R   0.130341 0.564673 0.300451 0.595110
F1    F     F_    0.819709 0.397426 0.832962 -0.663050
F2    F     F_    0.180291 0.602577 0.167039 -0.663050
H1    H     H_    0.763981 0.327774 0.266308 0.206212
H2    H     H_    0.873690 0.347421 0.190023 0.213361
H3    H     H_    0.236020 0.672227 0.733692 0.206213
H4    H     H_    0.126311 0.652585 0.809975 0.213360
H5    H     H_    0.910193 0.701623 0.179643 0.212315
H6    H     H_    0.929035 0.547239 0.064405 0.250004
H7    H     H_    0.070965 0.452767 0.935595 0.250005
H8    H     H_    0.089807 0.298381 0.820359 0.212315
N1    N     N_1   0.500020 0.500000 0.073640 -0.007131
N2    N     N_1   0.499980 0.500000 0.926360 -0.007131
N3    N     N_3   0.818071 0.410817 0.244489 -0.372775
N4    N     N_3   0.181930 0.589186 0.755511 -0.372777
N5    N     N_3   0.966277 0.628234 0.141401 -0.414654
N6    N     N_3   0.033723 0.371771 0.858600 -0.414654
O1    O     O_R   0.499990 0.285340 0.636850 -0.609933
O2    O     O_R   0.500010 0.714660 0.363150 -0.609933
O3    O     O_R   0.500010 0.285340 0.363150 -0.626464
O4    O     O_R   0.499990 0.714660 0.636850 -0.626464
O5    O     O_R   0.346350 0.500000 0.614250 -0.621831
O6    O     O_R   0.653650 0.500000 0.385750 -0.621830
O7    O     O_R   0.346360 0.500000 0.340500 -0.560402
O8    O     O_R   0.653640 0.500000 0.659500 -0.560401
Zn1   Zn    Zn3+2 0.499990 0.500000 0.682780 1.034206
Zn2   Zn    Zn3+2 0.500010 0.500000 0.317220 1.034206

loop_
_geom_bond_atom_site_label_1
_geom_bond_atom_site_label_2
_ccdc_geom_bond_type
C11   O6    A    
C11   C12   S    
H8    N6    S    
C4    C12   A    
H3    N4    S    
C4    N3    S    
C3    C13   A    
C14   N5    S    
C2    C12   A    
H7    N6    S    
H6    N5    S    
O1    Zn1   S    
C7    C8    T    
C2    F1    S    
C2    C15   A    
N1    Zn2   S    
O4    Zn1   S    
C9    O2    A    
C10   O5    A    
C5    C6    A    
C3    N4    S    
C16   F2    S    
O8    Zn1   S    
O6    Zn2   S    
O7    Zn2   S    
H2    N3    S    
O5    Zn1   S    
C11   O8    A    
C14   C16   A    
C5    C15   A    
C6    C14   A    
C1    O1    A    
H1    N3    S    
C9    O4    A    
N2    Zn1   S    
C15   N6    S    
C1    O3    A    
C4    C6    A    
C13   C16   A    
N1    N2    T    
O3    Zn2   S    
C10   O7    A    
H4    N4    S    
C1    C7    S    
H5    N5    S    
C8    C9    S    
C3    C5    A    
C10   C13   S    
O2    Zn2   S    
