data_mof_unit_52399.cif
_audit_creation_date              2013-03-05T15:40:13-0500
_audit_creation_method            fapswitch 2.2
_symmetry_space_group_name_H-M    P1
_symmetry_Int_Tables_number       1
_space_group_crystal_system       triclinic
_cell_length_a                    12.240578
_cell_length_b                    12.240576
_cell_length_c                    23.145348
_cell_angle_alpha                 89.999982
_cell_angle_beta                  89.999953
_cell_angle_gamma                 90.0
_cell_volume                      3467.90742334

loop_
_atom_site_label
_atom_site_type_symbol
_atom_site_description
_atom_site_fract_x
_atom_site_fract_y
_atom_site_fract_z
_atom_type_partial_charge
O1    O     O_R   0.907020 0.615090 0.941240 -0.540449
O2    O     O_R   0.092980 0.384910 0.058760 -0.544451
O3    O     O_R   0.384910 0.907020 0.441240 -0.544452
O4    O     O_R   0.615090 0.092980 0.558760 -0.540449
O5    O     O_R   0.092980 0.384910 0.941240 -0.540448
O6    O     O_R   0.907020 0.615090 0.058760 -0.544451
O7    O     O_R   0.615090 0.092980 0.441240 -0.544452
O8    O     O_R   0.384910 0.907020 0.558760 -0.540450
O9    O     O_R   0.907020 0.384910 0.058760 -0.540452
O10   O     O_R   0.092980 0.615090 0.941240 -0.544451
O11   O     O_R   0.384910 0.092980 0.558760 -0.544452
O12   O     O_R   0.615090 0.907020 0.441240 -0.540450
O13   O     O_R   0.092980 0.615090 0.058760 -0.540450
O14   O     O_R   0.907020 0.384910 0.941240 -0.544450
O15   O     O_R   0.615090 0.907020 0.558760 -0.544452
O16   O     O_R   0.384910 0.092980 0.441240 -0.540450
C1    C     C_3   0.000000 1.000000 0.250000 0.080640
C2    C     C_3   1.000000 0.000000 0.750000 0.080640
C3    C     C_R   0.003121 0.100087 0.209226 -0.034367
C4    C     C_R   0.003120 0.899914 0.790774 -0.034365
C5    C     C_R   0.899913 0.996880 0.709226 -0.034366
C6    C     C_R   0.100087 0.996879 0.290774 -0.034367
C7    C     C_R   0.996879 0.899913 0.209226 -0.034367
C8    C     C_R   0.996880 0.100088 0.790774 -0.034365
C9    C     C_R   0.100087 0.003120 0.709226 -0.034368
C10   C     C_R   0.899913 0.003121 0.290774 -0.034367
Cu1   Cu    Cu3+1 0.889520 0.500000 0.000000 1.236298
Cu2   Cu    Cu3+1 0.110480 0.500000 0.000000 1.236297
Cu3   Cu    Cu3+1 0.500000 0.889520 0.500000 1.236296
Cu4   Cu    Cu3+1 0.500000 0.110480 0.500000 1.236296
C11   C     C_R   0.000149 0.651266 0.922000 0.892927
C12   C     C_R   0.000149 0.348734 0.078000 0.892924
C13   C     C_R   0.348734 0.999851 0.422000 0.892931
C14   C     C_R   0.651266 0.999851 0.578000 0.892928
C15   C     C_R   0.999851 0.348735 0.922000 0.892920
C16   C     C_R   0.999851 0.651266 0.078000 0.892930
C17   C     C_R   0.651266 0.000149 0.422000 0.892930
C18   C     C_R   0.348734 0.000149 0.578000 0.892929
C19   C     C_R   0.083147 0.102678 0.165526 -0.205981
C20   C     C_R   0.922108 0.818133 0.791087 -0.189557
C21   C     C_R   0.818133 0.077892 0.708912 -0.189557
C22   C     C_R   0.102679 0.916853 0.334474 -0.205981
C23   C     C_R   0.916853 0.897321 0.165526 -0.205982
C24   C     C_R   0.077893 0.181866 0.791088 -0.189559
C25   C     C_R   0.181867 0.922109 0.708913 -0.189557
C26   C     C_R   0.897322 0.083147 0.334474 -0.205982
C27   C     C_R   0.083147 0.897322 0.834474 -0.205980
C28   C     C_R   0.922110 0.181868 0.208913 -0.189556
C29   C     C_R   0.818132 0.922109 0.291087 -0.189555
C30   C     C_R   0.102679 0.083147 0.665526 -0.205979
C31   C     C_R   0.916851 0.102682 0.834472 -0.205980
C32   C     C_R   0.077891 0.818132 0.208913 -0.189556
C33   C     C_R   0.181868 0.077890 0.291087 -0.189555
C34   C     C_R   0.897321 0.916852 0.665526 -0.205981
C35   C     C_R   0.081165 0.180675 0.121716 0.311599
C36   C     C_R   0.922846 0.734356 0.832082 0.307226
C37   C     C_R   0.734357 0.077155 0.667918 0.307228
C38   C     C_R   0.180675 0.918834 0.378284 0.311600
C39   C     C_R   0.918834 0.819325 0.121716 0.311601
C40   C     C_R   0.077157 0.265642 0.832082 0.307230
C41   C     C_R   0.265643 0.922846 0.667918 0.307228
C42   C     C_R   0.819325 0.081165 0.378284 0.311600
C43   C     C_R   0.081165 0.819325 0.878284 0.311601
C44   C     C_R   0.922847 0.265644 0.167919 0.307228
C45   C     C_R   0.734356 0.922847 0.332081 0.307227
C46   C     C_R   0.180675 0.081166 0.621717 0.311600
C47   C     C_R   0.918831 0.180680 0.878281 0.311604
C48   C     C_R   0.077153 0.734356 0.167918 0.307228
C49   C     C_R   0.265644 0.077153 0.332081 0.307228
C50   C     C_R   0.819324 0.918834 0.621717 0.311601
C51   C     C_R   0.001161 0.264011 0.122971 -0.223467
C52   C     C_R   0.001161 0.735989 0.877029 -0.223466
C53   C     C_R   0.735988 0.998839 0.622971 -0.223465
C54   C     C_R   0.264012 0.998839 0.377029 -0.223465
C55   C     C_R   0.998839 0.735988 0.122971 -0.223465
C56   C     C_R   0.998839 0.264013 0.877028 -0.223464
C57   C     C_R   0.264011 0.001161 0.622971 -0.223466
C58   C     C_R   0.735989 0.001161 0.377029 -0.223465
H1    H     H_    0.144540 0.038967 0.163849 0.203334
H2    H     H_    0.857117 0.817342 0.759692 0.202525
H3    H     H_    0.817342 0.142885 0.740307 0.202526
H4    H     H_    0.038968 0.855459 0.336151 0.203334
H5    H     H_    0.855459 0.961032 0.163850 0.203333
H6    H     H_    0.142887 0.182655 0.759693 0.202526
H7    H     H_    0.182658 0.857117 0.740308 0.202525
H8    H     H_    0.961033 0.144540 0.336151 0.203334
H9    H     H_    0.144540 0.961033 0.836150 0.203333
H10   H     H_    0.857119 0.182660 0.240309 0.202525
H11   H     H_    0.817340 0.857118 0.259691 0.202525
H12   H     H_    0.038969 0.144542 0.663850 0.203334
H13   H     H_    0.855455 0.038973 0.836148 0.203328
H14   H     H_    0.142882 0.817340 0.240309 0.202525
H15   H     H_    0.182660 0.142881 0.259691 0.202525
H16   H     H_    0.961031 0.855458 0.663850 0.203333
N1    N     N_R   0.157139 0.169874 0.074686 0.157878
O17   O     O_R   0.256969 0.138619 0.084718 -0.257832
O18   O     O_R   0.122249 0.172153 0.021587 -0.304547
N2    N     N_R   0.845028 0.646981 0.826430 0.154858
O19   O     O_R   0.745705 0.667702 0.809631 -0.258319
O20   O     O_R   0.877566 0.545852 0.828675 -0.309696
N3    N     N_R   0.646982 0.154973 0.673569 0.154859
O21   O     O_R   0.667705 0.254297 0.690367 -0.258318
O22   O     O_R   0.545852 0.122437 0.671325 -0.309693
N4    N     N_R   0.169875 0.842859 0.425314 0.157877
O23   O     O_R   0.172154 0.877749 0.478412 -0.304542
O24   O     O_R   0.138620 0.743030 0.415281 -0.257833
N5    N     N_R   0.842859 0.830125 0.074686 0.157877
O25   O     O_R   0.743029 0.861379 0.084719 -0.257835
O26   O     O_R   0.877748 0.827846 0.021588 -0.304544
N6    N     N_R   0.154978 0.353015 0.826432 0.154859
O27   O     O_R   0.254301 0.332290 0.809634 -0.258319
O28   O     O_R   0.122443 0.454146 0.828675 -0.309691
N7    N     N_R   0.353018 0.845028 0.673570 0.154858
O29   O     O_R   0.332296 0.745705 0.690369 -0.258321
O30   O     O_R   0.454148 0.877565 0.671325 -0.309695
N8    N     N_R   0.830125 0.157140 0.425314 0.157878
O31   O     O_R   0.827846 0.122251 0.478413 -0.304544
O32   O     O_R   0.861380 0.256970 0.415281 -0.257833
N9    N     N_R   0.157141 0.830125 0.925313 0.157878
O33   O     O_R   0.256971 0.861379 0.915280 -0.257833
O34   O     O_R   0.122253 0.827846 0.978412 -0.304541
N10   N     N_R   0.845029 0.353020 0.173571 0.154858
O35   O     O_R   0.745707 0.332299 0.190370 -0.258321
O36   O     O_R   0.877567 0.454149 0.171325 -0.309694
N11   N     N_R   0.646980 0.845029 0.326430 0.154858
O37   O     O_R   0.667702 0.745706 0.309630 -0.258321
O38   O     O_R   0.545851 0.877567 0.328675 -0.309694
N12   N     N_R   0.169876 0.157142 0.574687 0.157878
O39   O     O_R   0.172155 0.122253 0.521588 -0.304541
O40   O     O_R   0.138622 0.256972 0.584720 -0.257833
N13   N     N_R   0.842849 0.169886 0.925308 0.157872
O41   O     O_R   0.877735 0.172143 0.978408 -0.304530
O42   O     O_R   0.743010 0.138667 0.915270 -0.257829
N14   N     N_R   0.154971 0.646980 0.173570 0.154858
O43   O     O_R   0.254294 0.667702 0.190369 -0.258321
O44   O     O_R   0.122434 0.545851 0.171325 -0.309694
N15   N     N_R   0.353020 0.154971 0.326429 0.154858
O45   O     O_R   0.332298 0.254294 0.309630 -0.258321
O46   O     O_R   0.454149 0.122434 0.328675 -0.309694
N16   N     N_R   0.830123 0.842857 0.574687 0.157878
O47   O     O_R   0.827846 0.877745 0.521589 -0.304540
O48   O     O_R   0.861374 0.743026 0.584721 -0.257833

loop_
_geom_bond_atom_site_label_1
_geom_bond_atom_site_label_2
_geom_bond_distance
_ccdc_geom_bond_type
C50   N16   1.437788 S    
N3    O21   1.301389 A    
C9    C25   1.409065 A    
O12   Cu3   1.969815 S    
C2    C5    1.546934 S    
C23   H5    1.083710 S    
N1    O17   1.301345 A    
C22   H4    1.083710 S    
C36   N2    1.438164 S    
C33   C49   1.397124 A    
N12   O39   1.301374 A    
C22   C38   1.392933 A    
N4    O24   1.301346 A    
O4    Cu4   1.969815 S    
C48   C55   1.414790 A    
N15   O46   1.301415 A    
O9    Cu1   1.969815 S    
C1    C7    1.546936 S    
C29   C45   1.397125 A    
C26   C42   1.392932 A    
C2    C8    1.546933 S    
O8    Cu3   1.969815 S    
N16   O48   1.301346 A    
C27   C43   1.392933 A    
C5    C34   1.408404 A    
C4    C20   1.409065 A    
C28   C44   1.397125 A    
O3    C13   1.298297 A    
O16   Cu4   1.969818 S    
O1    C11   1.301492 A    
C7    C23   1.408404 A    
N8    O31   1.301373 A    
O2    C12   1.298298 A    
C44   C51   1.414790 A    
C37   C53   1.414789 A    
O12   C17   1.301492 A    
O3    Cu3   1.969818 S    
C9    C30   1.408402 A    
O9    C12   1.301491 A    
C31   H13   1.083709 S    
N6    O27   1.301391 A    
O10   C11   1.298298 A    
C30   H12   1.083709 S    
C19   C35   1.392932 A    
O11   Cu4   1.969815 S    
C41   C57   1.414789 A    
C36   C52   1.414791 A    
N5    O25   1.301347 A    
C28   H10   1.077493 S    
O13   Cu2   1.969815 S    
O14   Cu1   1.969817 S    
C12   C51   1.469366 S    
O15   C14   1.298297 A    
C32   C48   1.397125 A    
C23   C39   1.392931 A    
C8    C31   1.408405 A    
N3    O22   1.301414 A    
O7    Cu4   1.969815 S    
N5    O26   1.301373 A    
C2    C9    1.546934 S    
O8    C18   1.301492 A    
N4    O23   1.301374 A    
O15   Cu3   1.969815 S    
C6    C33   1.409065 A    
N9    O34   1.301373 A    
C49   N15   1.438165 S    
O4    C14   1.301492 A    
C15   C56   1.469368 S    
C33   H15   1.077494 S    
N16   O47   1.301372 A    
O13   C16   1.301492 A    
C35   N1    1.437788 S    
C10   C29   1.409065 A    
O14   C15   1.298298 A    
C3    C28   1.409065 A    
N14   O44   1.301414 A    
C20   C36   1.397124 A    
C40   C56   1.414789 A    
C39   N5    1.437789 S    
C45   N11   1.438165 S    
O11   C18   1.298297 A    
C25   H7    1.077492 S    
C42   N8    1.437789 S    
Cu3   Cu4   2.704676 S    
C16   C55   1.469368 S    
O16   C13   1.301492 A    
O5    Cu2   1.969817 S    
C43   N9    1.437787 S    
O6    Cu1   1.969815 S    
C34   C50   1.392933 A    
C21   H3    1.077492 S    
C50   C53   1.414370 A    
C20   H2    1.077493 S    
O7    C17   1.298297 A    
C49   C54   1.414789 A    
C31   C47   1.392929 A    
C30   C46   1.392932 A    
C3    C19   1.408405 A    
N8    O32   1.301346 A    
C5    C21   1.409066 A    
C11   C52   1.469366 S    
N2    O20   1.301414 A    
C41   N7    1.438164 S    
N11   O37   1.301390 A    
C8    C24   1.409066 A    
C32   H14   1.077493 S    
C38   N4    1.437788 S    
C1    C10   1.546934 S    
N10   O36   1.301414 A    
N13   O41   1.301377 A    
C39   C55   1.414370 A    
C38   C54   1.414370 A    
O1    Cu1   1.969816 S    
N7    O29   1.301390 A    
C17   C58   1.469366 S    
O10   Cu2   1.969816 S    
C46   C57   1.414371 A    
C45   C58   1.414789 A    
C42   C58   1.414371 A    
C47   N13   1.437782 S    
C29   H11   1.077494 S    
N13   O42   1.301356 A    
N12   O40   1.301346 A    
N9    O33   1.301347 A    
N1    O18   1.301374 A    
N14   O43   1.301390 A    
C18   C57   1.469369 S    
C37   N3    1.438165 S    
N15   O45   1.301390 A    
C1    C6    1.546933 S    
C24   H6    1.077494 S    
C48   N14   1.438164 S    
C21   C37   1.397124 A    
C7    C32   1.409065 A    
C6    C22   1.408404 A    
C24   C40   1.397125 A    
C44   N10   1.438165 S    
O5    C15   1.301491 A    
C25   C41   1.397125 A    
C1    C3    1.546935 S    
O6    C16   1.298297 A    
C2    C4    1.546934 S    
N6    O28   1.301414 A    
C34   H16   1.083708 S    
C4    C27   1.408405 A    
C40   N6    1.438164 S    
C10   C26   1.408405 A    
C14   C53   1.469366 S    
C13   C54   1.469368 S    
C43   C52   1.414370 A    
N2    O19   1.301391 A    
Cu1   Cu2   2.704677 S    
N11   O38   1.301414 A    
O2    Cu2   1.969815 S    
C47   C56   1.414367 A    
C26   H8    1.083709 S    
N10   O35   1.301390 A    
C46   N12   1.437788 S    
C35   C51   1.414369 A    
C19   H1    1.083709 S    
N7    O30   1.301415 A    
C27   H9    1.083708 S    
