data_mof_unit_25088.cif
_audit_creation_date              2012-12-10T18:04:33-0500
_audit_creation_method            fapswitch 2.2
_symmetry_space_group_name_H-M    P1
_symmetry_Int_Tables_number       1
_space_group_crystal_system       triclinic
_cell_length_a                    19.517585
_cell_length_b                    17.633066
_cell_length_c                    12.621608
_cell_angle_alpha                 89.724733
_cell_angle_beta                  98.995939
_cell_angle_gamma                 89.919561
_cell_volume                      4290.29697958

loop_
_atom_site_label
_atom_site_type_symbol
_atom_type_description
_atom_site_fract_x
_atom_site_fract_y
_atom_site_fract_z
_atom_type_partial_charge
C1    C     C_R   0.411398 0.103034 0.443863 0.841363
C2    C     C_R   0.409450 0.899237 0.442578 0.844207
C3    C     C_R   0.911396 0.603032 0.443862 0.841355
C4    C     C_R   0.909446 0.399241 0.442574 0.844207
C5    C     C_R   0.715898 0.248019 0.515978 0.083956
C6    C     C_R   0.744813 0.784146 0.537082 0.076462
C7    C     C_R   0.215908 0.748008 0.515988 0.083973
C8    C     C_R   0.244815 0.284146 0.537085 0.076453
C9    C     C_R   0.691093 0.310252 0.570503 0.156112
C10   C     C_R   0.783574 0.792202 0.641409 0.162087
C11   C     C_R   0.191072 0.810258 0.570441 0.156117
C12   C     C_R   0.283563 0.292181 0.641425 0.162110
C13   C     C_R   0.217096 0.882642 0.558069 -0.218458
C14   C     C_R   0.351280 0.264749 0.662930 -0.281648
C15   C     C_R   0.717122 0.382636 0.558162 -0.218472
C16   C     C_R   0.851292 0.764773 0.662906 -0.281643
C17   C     C_R   0.270736 0.892798 0.499233 -0.151843
C18   C     C_R   0.378618 0.224731 0.584770 -0.196690
C19   C     C_R   0.770743 0.392805 0.499291 -0.151848
C20   C     C_R   0.878622 0.724742 0.584749 -0.196707
C21   C     C_R   0.688410 0.176475 0.529304 -0.250038
C22   C     C_R   0.676539 0.809637 0.518792 -0.259103
C23   C     C_R   0.188422 0.676465 0.529341 -0.250055
C24   C     C_R   0.176543 0.309643 0.518784 -0.259097
C25   C     C_R   0.608863 0.228332 0.639246 -0.209968
C26   C     C_R   0.687682 0.859399 0.698797 -0.199824
C27   C     C_R   0.108825 0.728356 0.639173 -0.209966
C28   C     C_R   0.187662 0.359364 0.698809 -0.199938
C29   C     C_R   0.361012 0.838213 0.408047 -0.113497
C30   C     C_R   0.361094 0.162390 0.408218 -0.110624
C31   C     C_R   0.860988 0.338236 0.408022 -0.113524
C32   C     C_R   0.861085 0.662381 0.408213 -0.110610
C33   C     C_R   0.643579 0.001576 0.133816 -0.259271
C34   C     C_R   0.143579 0.501604 0.133818 -0.259202
C35   C     C_R   0.378499 0.004084 0.763352 0.713521
C36   C     C_R   0.878499 0.504087 0.763355 0.713522
C37   C     C_R   0.353646 0.999197 0.861195 -0.357613
C38   C     C_R   0.853647 0.499195 0.861198 -0.357605
C39   C     C_R   0.590928 0.899660 0.557589 0.853495
C40   C     C_R   0.589324 0.101893 0.556280 0.837821
C41   C     C_R   0.090927 0.399658 0.557589 0.853477
C42   C     C_R   0.089323 0.601894 0.556279 0.837805
C43   C     C_R   0.400162 0.996506 0.955763 -0.256195
C44   C     C_R   0.900163 0.496502 0.955765 -0.256215
C45   C     C_R   0.472331 0.998396 0.954101 0.023000
C46   C     C_R   0.972333 0.498396 0.954101 0.023015
C47   C     C_R   0.495256 0.999265 0.853597 0.069047
C48   C     C_R   0.995257 0.499267 0.853597 0.069102
C49   C     C_R   0.522212 0.999086 0.047965 -0.061181
C50   C     C_R   0.022213 0.499090 0.047964 -0.061192
C51   C     C_R   0.594308 0.000847 0.040274 0.069457
C52   C     C_R   0.094309 0.500868 0.040274 0.069495
C53   C     C_R   0.616145 0.003061 0.939864 0.463349
C54   C     C_R   0.116150 0.503088 0.939864 0.463428
C55   C     C_R   0.566185 0.000256 0.847943 -0.308831
C56   C     C_R   0.066186 0.500267 0.847944 -0.309020
C57   C     C_R   0.503189 0.998967 0.150313 -0.018261
C58   C     C_R   0.003190 0.498959 0.150312 -0.018273
C59   C     C_R   0.621128 0.001044 0.232413 -0.016123
C60   C     C_R   0.121127 0.501062 0.232414 -0.016128
C61   C     C_R   0.639072 0.299439 0.634203 -0.197420
C62   C     C_R   0.754130 0.828540 0.722214 -0.193155
C63   C     C_R   0.139028 0.799464 0.634100 -0.197399
C64   C     C_R   0.254109 0.328502 0.722233 -0.193181
C65   C     C_R   0.632181 0.167848 0.582952 -0.051169
C66   C     C_R   0.649984 0.851608 0.595570 -0.056810
C67   C     C_R   0.132172 0.667854 0.582947 -0.051136
C68   C     C_R   0.149978 0.351599 0.595568 -0.056782
C69   C     C_R   0.381283 0.781002 0.342559 -0.188182
C70   C     C_R   0.328438 0.162806 0.300966 -0.193671
C71   C     C_R   0.881220 0.281050 0.342457 -0.188182
C72   C     C_R   0.828419 0.662781 0.300967 -0.193671
C73   C     C_R   0.343415 0.714349 0.327274 -0.148010
C74   C     C_R   0.271224 0.208909 0.269315 -0.146715
C75   C     C_R   0.843324 0.214418 0.327120 -0.148032
C76   C     C_R   0.771198 0.708874 0.269318 -0.146714
C77   C     C_R   0.287988 0.702336 0.382475 -0.181842
C78   C     C_R   0.243394 0.250749 0.345469 -0.193155
C79   C     C_R   0.787913 0.202393 0.382350 -0.181859
C80   C     C_R   0.743372 0.750721 0.345471 -0.193156
C81   C     C_R   0.267419 0.759232 0.450271 0.087219
C82   C     C_R   0.274859 0.249624 0.454696 0.077370
C83   C     C_R   0.767386 0.259262 0.450226 0.087223
C84   C     C_R   0.774849 0.749613 0.454692 0.077371
C85   C     C_R   0.299799 0.830633 0.452427 0.058680
C86   C     C_R   0.338921 0.212234 0.482777 0.083948
C87   C     C_R   0.799783 0.330653 0.452426 0.058662
C88   C     C_R   0.838916 0.712231 0.482767 0.083957
H1    H     H_    0.564673 0.221858 0.680810 0.147136
H2    H     H_    0.667452 0.892328 0.759119 0.180697
H3    H     H_    0.064617 0.721894 0.680700 0.147112
H4    H     H_    0.167422 0.392275 0.759139 0.180623
H5    H     H_    0.698778 0.002992 0.131275 0.190152
H6    H     H_    0.198778 0.503034 0.131281 0.190172
H7    H     H_    0.450369 0.998534 0.164811 0.121340
H8    H     H_    0.950370 0.498510 0.164810 0.121341
H9    H     H_    0.377622 0.993251 0.028203 0.156601
H10   H     H_    0.877624 0.493246 0.028204 0.156599
H11   H     H_    0.298611 0.997450 0.864532 0.159725
H12   H     H_    0.798612 0.497447 0.864537 0.159715
H13   H     H_    0.584046 0.998800 0.772706 0.221429
H14   H     H_    0.084038 0.498803 0.772701 0.221441
H15   H     H_    0.196361 0.931228 0.594679 0.153326
H16   H     H_    0.382448 0.272346 0.741075 0.150253
H17   H     H_    0.696407 0.431212 0.594823 0.153363
H18   H     H_    0.882468 0.772383 0.741041 0.150259
H19   H     H_    0.619627 0.346573 0.675699 0.134607
H20   H     H_    0.783389 0.835569 0.801883 0.151248
H21   H     H_    0.119558 0.846613 0.675539 0.134612
H22   H     H_    0.283358 0.335513 0.801912 0.151235
H23   H     H_    0.707139 0.126538 0.493835 0.136463
H24   H     H_    0.643287 0.800168 0.443335 0.146841
H25   H     H_    0.207165 0.626516 0.493921 0.136419
H26   H     H_    0.143299 0.300188 0.443316 0.146856
H27   H     H_    0.427846 0.786668 0.306387 0.155518
H28   H     H_    0.345820 0.125757 0.242237 0.152368
H29   H     H_    0.927771 0.286721 0.306256 0.155532
H30   H     H_    0.845799 0.625727 0.242242 0.152365
H31   H     H_    0.761356 0.148963 0.368308 0.127829
H32   H     H_    0.698382 0.784802 0.316219 0.136417
H33   H     H_    0.261456 0.648889 0.368475 0.127820
H34   H     H_    0.198409 0.284839 0.316214 0.136412
H35   H     H_    0.358871 0.670440 0.276128 0.142740
H36   H     H_    0.246574 0.209811 0.186280 0.144605
H37   H     H_    0.858746 0.170533 0.275906 0.142730
H38   H     H_    0.746539 0.709764 0.186288 0.144609
H39   H     H_    0.289007 0.949817 0.489009 0.190824
H40   H     H_    0.431321 0.204165 0.604741 0.162245
H41   H     H_    0.789016 0.449825 0.489082 0.190895
H42   H     H_    0.931325 0.704177 0.604713 0.162227
H43   H     H_    0.658315 0.001806 0.305599 0.134679
H44   H     H_    0.158314 0.501832 0.305601 0.134677
N1    N     N_R   0.552340 1.000000 0.237260 -0.102232
N2    N     N_R   0.052340 0.500000 0.237260 -0.102232
N3    N     N_R   0.448170 1.000000 0.762060 -0.155695
N4    N     N_R   0.948170 0.500000 0.762060 -0.155688
O1    O     O_R   0.448200 0.076800 0.373930 -0.615247
O2    O     O_R   0.448200 0.923200 0.373930 -0.621981
O3    O     O_R   0.948200 0.576800 0.373930 -0.615239
O4    O     O_R   0.948200 0.423200 0.373930 -0.621987
O5    O     O_R   0.414750 0.076790 0.542400 -0.570926
O6    O     O_R   0.414750 0.923210 0.542400 -0.559090
O7    O     O_R   0.914750 0.576790 0.542400 -0.570919
O8    O     O_R   0.914750 0.423210 0.542400 -0.559112
O9    O     O_R   0.585240 0.923200 0.457600 -0.614282
O10   O     O_R   0.585240 0.076800 0.457600 -0.604279
O11   O     O_R   0.085240 0.423200 0.457600 -0.614283
O12   O     O_R   0.085240 0.576800 0.457600 -0.604262
O13   O     O_R   0.551780 0.923190 0.626070 -0.632721
O14   O     O_R   0.551780 0.076810 0.626070 -0.651306
O15   O     O_R   0.051780 0.423190 0.626070 -0.632724
O16   O     O_R   0.051780 0.576810 0.626070 -0.651301
Zn1   Zn    Zn3+2 0.522330 1.000000 0.387520 0.936241
Zn2   Zn    Zn3+2 0.022330 0.500000 0.387520 0.936244
Zn3   Zn    Zn3+2 0.477660 1.000000 0.612480 0.964068
Zn4   Zn    Zn3+2 0.977660 0.500000 0.612480 0.964053
O17   O     O_3   0.686643 0.002167 0.933510 -0.623699
C89   C     C_3   0.703862 0.061814 0.867333 -0.325457
H45   H     H_    0.676368 0.115711 0.879925 0.166525
H46   H     H_    0.693660 0.045177 0.781555 0.163173
H47   H     H_    0.760284 0.072981 0.887724 0.196682
O18   O     O_3   0.186655 0.502212 0.933536 -0.623673
C90   C     C_3   0.203856 0.561678 0.867044 -0.325382
H48   H     H_    0.176261 0.615587 0.879216 0.166571
H49   H     H_    0.193767 0.544761 0.781374 0.163088
H50   H     H_    0.260253 0.572969 0.887493 0.196691
O19   O     O_3   0.333865 0.008157 0.666863 -0.591895
C91   C     C_3   0.283474 0.065592 0.668840 -0.365351
H51   H     H_    0.305181 0.117395 0.711615 0.177176
H52   H     H_    0.239037 0.043851 0.705104 0.152685
H53   H     H_    0.263167 0.082468 0.585006 0.198844
O20   O     O_3   0.833864 0.508171 0.666870 -0.591944
C92   C     C_3   0.783485 0.565618 0.668854 -0.365388
H54   H     H_    0.805211 0.617424 0.711599 0.177217
H55   H     H_    0.739055 0.543896 0.705154 0.152671
H56   H     H_    0.763162 0.582479 0.585021 0.198846

loop_
_geom_bond_atom_site_label_1
_geom_bond_atom_site_label_2
_ccdc_geom_bond_type
C19   H41   S    
C74   H36   S    
C80   H32   S    
C24   H26   S    
O17   C89   S    
C78   C82   A    
C76   H38   S    
C14   C18   A    
C83   C87   A    
C90   H48   S    
C72   C76   A    
C42   O12   A    
C60   H44   S    
C47   N3    A    
N3    Zn3   S    
C32   C72   A    
C92   H54   S    
C58   N2    A    
C15   C19   A    
O10   Zn1   S    
C59   H43   S    
C5    C9    A    
C18   C86   A    
C2    C29   S    
N1    Zn1   S    
C1    O5    A    
C90   H49   S    
C19   C87   A    
C12   C64   A    
C23   H25   S    
C42   C67   S    
C6    C22   A    
C49   C57   A    
C45   C47   A    
C23   C67   A    
C50   C52   A    
O11   Zn2   S    
C58   H8    S    
C22   C66   A    
C89   H47   S    
C18   H40   S    
C44   H10   S    
C89   H46   S    
C3    O7    A    
O16   Zn4   S    
C44   C46   A    
C73   H35   S    
C79   H31   S    
C70   C74   A    
C35   O19   S    
C76   C80   A    
C27   H3    S    
C45   C49   A    
O6    Zn3   S    
C30   C86   A    
C42   O16   A    
C29   C85   A    
C80   C84   A    
O9    Zn1   S    
C31   C71   A    
C3    O3    A    
C33   C59   A    
C71   C75   A    
C34   C60   A    
C57   N1    A    
C10   C62   A    
O12   Zn2   S    
C78   H34   S    
C36   N4    A    
C30   C70   A    
C52   C54   A    
C46   C50   A    
C41   C68   S    
C29   C69   A    
C53   C55   A    
C46   C48   A    
C36   O20   S    
C31   C87   A    
C71   H29   S    
C40   O14   A    
C2    O2    A    
C34   H6    S    
C90   H50   S    
C6    C84   A    
C38   H12   S    
C35   N3    A    
O19   C91   S    
C17   H39   S    
C25   H1    S    
O3    Zn2   S    
C49   C51   A    
C82   C86   A    
C59   N1    A    
C14   H16   S    
C51   C53   A    
C5    C21   A    
C26   C66   A    
O8    Zn4   S    
C7    C11   A    
C38   C44   A    
C9    C61   A    
C4    O4    A    
C21   H23   S    
C64   H22   S    
C41   O11   A    
C77   C81   A    
C26   H2    S    
C16   C20   A    
C39   O9    A    
C50   C58   A    
O1    Zn1   S    
C28   H4    S    
C27   C67   A    
C25   C61   A    
O15   Zn4   S    
C54   O18   S    
C69   C73   A    
C43   C45   A    
O13   Zn3   S    
C92   H55   S    
C27   C63   A    
C28   C64   A    
O2    Zn1   S    
C91   H51   S    
C7    C81   A    
C12   C14   A    
C22   H24   S    
O14   Zn3   S    
C57   H7    S    
C89   H45   S    
C2    O6    A    
C39   C66   S    
C17   C85   A    
C37   C43   A    
C13   H15   S    
C60   N2    A    
C37   H11   S    
C1    O1    A    
O20   C92   S    
C35   C37   A    
C47   C55   A    
O18   C90   S    
C92   H56   S    
C48   C56   A    
C55   H13   S    
C69   H27   S    
C21   C65   A    
C53   O17   S    
C48   N4    A    
O5    Zn3   S    
C43   H9    S    
C20   H42   S    
C54   C56   A    
C28   C68   A    
C33   H5    S    
C4    O8    A    
C5    C83   A    
C41   O15   A    
C16   H18   S    
C33   C51   A    
C39   O13   A    
C34   C52   A    
C40   O10   A    
C40   C65   S    
C70   H28   S    
C15   H17   S    
C36   C38   A    
C9    C15   A    
C56   H14   S    
C10   C16   A    
C79   C83   A    
C11   C13   A    
O7    Zn4   S    
N2    Zn2   S    
C84   C88   A    
C7    C23   A    
C20   C88   A    
C91   H52   S    
C1    C30   S    
C8    C24   A    
N4    Zn4   S    
C26   C62   A    
C3    C32   S    
C61   H19   S    
C4    C31   S    
C77   H33   S    
C6    C10   A    
C24   C68   A    
C13   C17   A    
C8    C82   A    
C62   H20   S    
C74   C78   A    
C72   H30   S    
C25   C65   A    
C73   C77   A    
C91   H53   S    
C75   H37   S    
C11   C63   A    
C75   C79   A    
C81   C85   A    
C8    C12   A    
O4    Zn2   S    
C63   H21   S    
C32   C88   A    
