data_mof_unit_18532.cif
_audit_creation_date              2012-12-10T19:45:40-0500
_audit_creation_method            fapswitch 2.2
_symmetry_space_group_name_H-M    P1
_symmetry_Int_Tables_number       1
_space_group_crystal_system       triclinic
_cell_length_a                    10.804554
_cell_length_b                    14.782787
_cell_length_c                    14.52349
_cell_angle_alpha                 64.975322
_cell_angle_beta                  104.236463
_cell_angle_gamma                 102.267914
_cell_volume                      2021.80515541

loop_
_atom_site_label
_atom_site_type_symbol
_atom_type_description
_atom_site_fract_x
_atom_site_fract_y
_atom_site_fract_z
_atom_type_partial_charge
C1    C     C_R   0.470668 0.119469 0.311508 0.795753
C2    C     C_R   0.529992 0.880551 0.688412 0.797238
C3    C     C_R   0.870288 0.999749 0.496598 -0.097345
C4    C     C_R   0.129617 0.000324 0.503007 -0.101678
C5    C     C_R   0.906153 0.962511 0.433113 0.026792
C6    C     C_R   0.093732 0.037511 0.566500 0.020611
C7    C     C_R   0.439093 0.187740 0.201929 -0.133842
C8    C     C_R   0.564263 0.812268 0.797635 -0.136109
C9    C     C_R   0.311197 0.233499 0.028497 -0.065797
C10   C     C_R   0.697472 0.766170 0.969156 -0.067804
C11   C     C_R   0.335182 0.164116 0.131683 -0.076260
C12   C     C_R   0.670065 0.836071 0.866524 -0.072397
C13   C     C_R   0.506869 0.284292 0.171301 -0.272674
C14   C     C_R   0.498130 0.715138 0.828682 -0.273443
C15   C     C_R   0.470069 0.360207 0.074425 0.094638
C16   C     C_R   0.538164 0.639096 0.924504 0.094734
C17   C     C_R   0.378124 0.332000 0.999792 0.097005
C18   C     C_R   0.631490 0.667355 0.998341 0.092847
C19   C     C_R   0.521778 0.463265 0.050143 0.090651
C20   C     C_R   0.487832 0.535895 0.948564 0.091387
C21   C     C_R   0.408528 0.502553 0.873095 -0.217930
C22   C     C_R   0.602649 0.496634 0.125140 -0.217072
C23   C     C_R   0.263075 0.999740 0.501795 0.799283
C24   C     C_R   0.736899 0.000290 0.498090 0.798892
C25   C     C_R   0.352977 0.403518 0.898646 -0.214242
C26   C     C_R   0.658651 0.595644 0.099143 -0.206400
C27   C     C_R   0.692918 0.272138 0.685766 -0.267888
C28   C     C_R   0.306397 0.727399 0.314766 -0.272398
C29   C     C_R   0.674330 0.199342 0.645444 0.026354
C30   C     C_R   0.324719 0.800117 0.355187 0.034562
C31   C     C_R   0.517868 0.286347 0.506275 0.318767
C32   C     C_R   0.482826 0.714022 0.493381 0.318619
C33   C     C_R   0.547202 0.370850 0.535854 -0.066333
C34   C     C_R   0.453610 0.629482 0.463931 -0.069564
C35   C     C_R   0.624849 0.356190 0.634114 0.077334
C36   C     C_R   0.375633 0.643950 0.365871 0.094136
C37   C     C_R   0.496580 0.465614 0.476492 0.066482
C38   C     C_R   0.504688 0.534914 0.523172 0.062384
C39   C     C_R   0.557766 0.505067 0.628741 -0.293466
C40   C     C_R   0.444015 0.495732 0.370792 -0.293111
C41   C     C_R   0.625927 0.422277 0.681311 -0.012489
C42   C     C_R   0.375657 0.578454 0.318265 0.012125
C43   C     C_R   0.358261 0.041341 0.792484 0.223717
C44   C     C_R   0.636243 0.950345 0.212868 0.204193
C45   C     C_R   0.266068 0.008200 0.722650 -0.209360
C46   C     C_R   0.729624 0.986520 0.279831 -0.209176
C47   C     C_R   0.188250 0.074904 0.640112 0.058248
C48   C     C_R   0.811596 0.922731 0.361349 0.085696
C49   C     C_R   0.202153 0.176424 0.628348 0.167908
C50   C     C_R   0.802790 0.821472 0.374442 0.165063
C51   C     C_R   0.294703 0.209359 0.697461 -0.171782
C52   C     C_R   0.708620 0.785163 0.308110 -0.198407
C53   C     C_R   0.372274 0.142478 0.780040 0.176157
C54   C     C_R   0.625220 0.848239 0.227788 0.201502
C55   C     C_R   0.963824 0.035680 0.562902 -0.229797
C56   C     C_R   0.036058 0.963469 0.437374 -0.181465
Cu1   Cu    Cu3+1 0.466270 0.918260 0.475690 0.962967
Cu2   Cu    Cu3+1 0.533730 0.081740 0.524310 0.959917
H1    H     H_    0.387710 0.551266 0.792677 0.138077
H2    H     H_    0.624997 0.448089 0.205422 0.136880
H3    H     H_    0.273337 0.864412 0.315354 0.166997
H4    H     H_    0.724693 0.134590 0.685814 0.166952
H5    H     H_    0.757931 0.260798 0.758479 0.177143
H6    H     H_    0.240822 0.738368 0.242362 0.171663
H7    H     H_    0.545062 0.544212 0.672780 0.143834
H8    H     H_    0.457358 0.456899 0.326654 0.141393
H9    H     H_    0.255172 0.930341 0.732050 0.126480
H10   H     H_    0.737784 0.064502 0.269338 0.123291
H11   H     H_    0.305315 0.287446 0.687173 0.154346
H12   H     H_    0.699913 0.707169 0.318533 0.147911
H13   H     H_    0.935351 0.060360 0.614279 0.173061
H14   H     H_    0.064286 0.936643 0.387539 0.188611
H15   H     H_    0.289320 0.383718 0.837855 0.153376
H16   H     H_    0.723700 0.615413 0.159437 0.152774
H17   H     H_    0.415934 0.700214 0.775257 0.154815
H18   H     H_    0.587545 0.298745 0.226002 0.152816
N1    N     N_R   0.584450 0.204570 0.560790 -0.176503
N2    N     N_R   0.415550 0.795430 0.439210 -0.175807
O1    O     O_R   0.455540 0.022090 0.338120 -0.586834
O2    O     O_R   0.544460 0.977910 0.661880 -0.584635
O3    O     O_R   0.512510 0.160150 0.379180 -0.571422
O4    O     O_R   0.487490 0.839850 0.620820 -0.570546
O5    O     O_R   0.291160 0.930970 0.479480 -0.584192
O6    O     O_R   0.708840 0.069030 0.520520 -0.590283
O7    O     O_R   0.348130 0.069020 0.520540 -0.543694
O8    O     O_R   0.651870 0.930980 0.479460 -0.545713
N3    N     N_3   0.465547 0.176344 0.851833 -0.565017
H19   H     H_    0.437543 0.138338 0.924030 0.248313
H20   H     H_    0.463624 0.252774 0.832173 0.211606
N4    N     N_3   0.530315 0.806023 0.163312 -0.589296
H21   H     H_    0.472683 0.859132 0.106883 0.259245
H22   H     H_    0.578824 0.783369 0.124258 0.223410
C57   C     C_1   0.211639 0.205063 0.954365 0.221435
N5    N     N_1   0.132438 0.182305 0.895403 -0.258726
C58   C     C_1   0.799369 0.794495 0.042071 0.224795
N6    N     N_1   0.880357 0.817143 0.100112 -0.254565
C59   C     C_1   0.688124 0.403173 0.787017 0.227932
N7    N     N_1   0.737511 0.387937 0.871610 -0.266662
C60   C     C_1   0.314811 0.598374 0.212148 0.249300
N8    N     N_1   0.266493 0.614282 0.127215 -0.272124
N9    N     N_3   0.598091 0.726023 0.563565 -0.536482
H23   H     H_    0.579447 0.697888 0.638453 0.213156
H24   H     H_    0.670221 0.690846 0.560520 0.195872
N10   N     N_3   0.403159 0.274897 0.435344 -0.535470
H25   H     H_    0.330946 0.310261 0.437964 0.211949
H26   H     H_    0.422681 0.303283 0.360693 0.210889
N11   N     N_3   0.437303 0.972825 0.877056 -0.574508
H27   H     H_    0.532069 0.995085 0.863942 0.243034
H28   H     H_    0.411771 0.900022 0.878434 0.214907
N12   N     N_3   0.553236 0.016789 0.129926 -0.587518
H29   H     H_    0.461323 0.996480 0.149056 0.223215
H30   H     H_    0.581970 0.091014 0.123647 0.225183
N13   N     N_3   0.124437 0.247823 0.546562 -0.597382
H31   H     H_    0.029935 0.228723 0.560095 0.226847
H32   H     H_    0.125065 0.243376 0.476764 0.226872
N14   N     N_3   0.890290 0.756342 0.454359 -0.587781
H33   H     H_    0.877093 0.750862 0.525507 0.223218
H34   H     H_    0.868676 0.683619 0.455251 0.216378
C61   C     C_1   0.761646 0.924761 0.830841 0.253570
N15   N     N_1   0.838694 0.993397 0.804774 -0.302642
C62   C     C_1   0.242380 0.075986 0.166189 0.246134
N16   N     N_1   0.164646 0.007689 0.191411 -0.297610

loop_
_geom_bond_atom_site_label_1
_geom_bond_atom_site_label_2
_ccdc_geom_bond_type
C49   N13   S    
N3    H19   S    
C57   N5    T    
C27   C29   A    
N11   H28   S    
Cu1   O1    S    
C5    C56   A    
C36   C42   A    
C19   C20   A    
C18   C26   A    
C6    C55   A    
N10   H26   S    
C59   N7    T    
Cu1   Cu2   S    
C39   C41   A    
Cu1   O8    S    
C15   C19   A    
N9    H23   S    
C23   O5    A    
C16   C20   A    
C21   H1    S    
C37   C40   A    
C22   H2    S    
C38   C39   A    
C1    O3    A    
N14   H33   S    
N12   H29   S    
C41   C59   S    
Cu2   N1    S    
C26   H16   S    
C3    C55   A    
C43   C53   A    
C58   N6    T    
C44   C46   A    
C49   C51   A    
C32   N9    S    
C45   H9    S    
C50   C52   A    
N11   H27   S    
Cu1   O5    S    
C34   C36   A    
Cu2   O2    S    
C40   C42   A    
N9    H24   S    
C34   C38   A    
C4    C56   A    
C39   H7    S    
C3    C24   S    
C11   C62   S    
N10   H25   S    
C52   C54   A    
C31   N1    A    
C45   C47   A    
C5    C48   S    
C46   C48   A    
C6    C47   S    
C19   C22   A    
C52   H12   S    
C4    C6    A    
Cu2   O3    S    
C4    C23   S    
C27   C35   A    
C33   C37   A    
C51   C53   A    
C32   C34   A    
C7    C11   A    
C46   H10   S    
C37   C38   A    
Cu2   O6    S    
C12   C61   S    
C9    C11   A    
N4    H22   S    
C60   N8    T    
C13   H18   S    
C8    C12   A    
C50   N14   S    
C31   C33   A    
C53   N3    S    
C43   N11   S    
C43   C45   A    
C62   N16   T    
C10   C12   A    
C28   H6    S    
C9    C17   A    
C13   C15   A    
C23   O7    A    
C1    O1    A    
C14   C16   A    
C2    O4    A    
Cu2   O7    S    
C9    C57   S    
N13   H31   S    
C15   C17   A    
C21   C25   A    
C29   H4    S    
C8    C14   A    
C56   H14   S    
C1    C7    S    
Cu1   N2    S    
C2    C8    S    
C3    C5    A    
C61   N15   T    
C54   N4    S    
C47   C49   A    
C17   C25   A    
C14   H17   S    
C28   C30   A    
C24   O6    A    
C42   C60   S    
C31   N10   S    
N4    H21   S    
C10   C58   S    
C10   C18   A    
C48   C50   A    
C33   C35   A    
N14   H34   S    
C25   H15   S    
C35   C41   A    
N12   H30   S    
C2    O2    A    
C32   N2    A    
C30   N2    A    
C44   C54   A    
C7    C13   A    
C29   N1    A    
C20   C21   A    
C28   C36   A    
C16   C18   A    
C22   C26   A    
C30   H3    S    
N3    H20   S    
Cu1   O4    S    
C27   H5    S    
C40   H8    S    
C51   H11   S    
C24   O8    A    
C55   H13   S    
N13   H32   S    
C44   N12   S    
