data_mof_unit_49068.cif
_audit_creation_date              2012-12-10T20:51:27-0500
_audit_creation_method            fapswitch 2.2
_symmetry_space_group_name_H-M    P1
_symmetry_Int_Tables_number       1
_space_group_crystal_system       triclinic
_cell_length_a                    17.201098
_cell_length_b                    8.920552
_cell_length_c                    8.203253
_cell_angle_alpha                 89.999548
_cell_angle_beta                  90.764898
_cell_angle_gamma                 89.999632
_cell_volume                      1258.6219566

loop_
_atom_site_label
_atom_site_type_symbol
_atom_type_description
_atom_site_fract_x
_atom_site_fract_y
_atom_site_fract_z
_atom_type_partial_charge
Br1   Br    Br    0.922068 0.475350 0.836226 -0.263653
Br2   Br    Br    0.077928 0.475337 0.163770 -0.263657
Br3   Br    Br    0.124370 0.279874 0.825264 -0.289706
Br4   Br    Br    0.875620 0.279895 0.174736 -0.289700
C1    C     C_R   0.500000 0.218400 0.500000 0.922735
C2    C     C_R   0.841990 0.385718 0.364738 0.258719
C3    C     C_R   0.775753 0.477965 0.656354 -0.232853
C4    C     C_R   0.224244 0.477929 0.343646 -0.232840
C5    C     C_R   0.225186 0.474695 0.639532 -0.118452
C6    C     C_R   0.774809 0.474719 0.360467 -0.118431
C7    C     C_R   0.733993 0.492216 0.506744 -0.302899
C8    C     C_R   0.266004 0.492190 0.493256 -0.302875
C9    C     C_R   0.884255 0.374276 0.510463 -0.078457
C10   C     C_R   0.115737 0.374264 0.489538 -0.078450
C11   C     C_1   0.965369 0.344369 0.503063 0.152792
C12   C     C_R   0.500000 0.781599 0.500000 0.936933
C13   C     C_1   0.034621 0.344365 0.496938 0.152794
C14   C     C_2   0.740052 0.514520 0.814105 1.107679
C15   C     C_2   0.259948 0.514473 0.185898 1.107665
C16   C     C_2   0.234039 0.589718 0.770334 1.051968
C17   C     C_2   0.765958 0.589745 0.229666 1.051980
C18   C     C_1   0.500000 0.065299 0.500000 -0.150505
C19   C     C_1   0.500000 0.934687 0.500000 -0.147400
C20   C     C_R   0.351843 0.503900 0.498340 0.922808
C21   C     C_R   0.648156 0.503908 0.501660 0.922805
C22   C     C_R   0.853968 0.434088 0.653790 0.252543
C23   C     C_R   0.146026 0.434065 0.346210 0.252531
C24   C     C_R   0.158004 0.385697 0.635261 0.258721
H1    H     H_    0.720829 0.730614 0.752576 0.310314
H2    H     H_    0.279131 0.730601 0.247381 0.310330
H3    H     H_    0.291503 0.771693 0.856243 0.377760
H4    H     H_    0.708492 0.771711 0.143746 0.377752
N1    N     N_1   0.500000 0.500000 0.073640 0.016540
N2    N     N_1   0.500000 0.500000 0.926360 0.016539
O1    O     O_R   0.500000 0.285350 0.636850 -0.612042
O2    O     O_R   0.711377 0.658140 0.845362 -0.765655
O3    O     O_2   0.266981 0.416190 0.083667 -0.545349
O4    O     O_R   0.288601 0.658114 0.154613 -0.765645
O5    O     O_2   0.182942 0.605080 0.871049 -0.525152
O6    O     O_R   0.295294 0.692815 0.767793 -0.786561
O7    O     O_2   0.817059 0.605117 0.128963 -0.525156
O8    O     O_R   0.704697 0.692827 0.232190 -0.786562
O9    O     O_R   0.500000 0.714650 0.363150 -0.597318
O10   O     O_R   0.500000 0.714650 0.636850 -0.597320
O11   O     O_R   0.500000 0.285350 0.363150 -0.612040
O12   O     O_R   0.389120 0.500000 0.636930 -0.563046
O13   O     O_R   0.610880 0.500000 0.363070 -0.563044
O14   O     O_R   0.610880 0.500000 0.636930 -0.621000
O15   O     O_R   0.389120 0.500000 0.363070 -0.620999
O16   O     O_2   0.733041 0.416258 0.916363 -0.545332
Zn1   Zn    Zn3+2 0.500000 0.500000 0.682780 1.070093
Zn2   Zn    Zn3+2 0.500000 0.500000 0.317220 1.070099

loop_
_geom_bond_atom_site_label_1
_geom_bond_atom_site_label_2
_ccdc_geom_bond_type
C2    C6    A    
C14   O2    S    
O13   Zn2   S    
C15   O4    S    
C10   C23   A    
C8    C20   S    
C5    C16   S    
C12   O9    A    
C4    C8    A    
O15   Zn2   S    
C20   O12   A    
C3    C14   S    
N1    N2    T    
N1    Zn2   S    
C3    C7    A    
H1    O2    S    
C14   O16   D    
N2    Zn1   S    
Br2   C23   S    
C3    C22   A    
C1    O11   A    
C17   O7    D    
C1    O1    A    
O10   Zn1   S    
Br3   C24   S    
O9    Zn2   S    
C12   C19   S    
C9    C11   S    
C6    C17   S    
O1    Zn1   S    
Br1   C22   S    
C16   O6    S    
C5    C8    A    
C9    C22   A    
C4    C15   S    
C6    C7    A    
C7    C21   S    
C17   O8    S    
H3    O6    S    
H2    O4    S    
Br4   C2    S    
C20   O15   A    
C11   C13   T    
C16   O5    D    
H4    O8    S    
C18   C19   T    
C4    C23   A    
C21   O13   A    
C15   O3    D    
O11   Zn2   S    
C10   C24   A    
C21   O14   A    
O12   Zn1   S    
C12   O10   A    
O14   Zn1   S    
C1    C18   S    
C5    C24   A    
C2    C9    A    
C10   C13   S    
