data_mof_unit_38184.cif
_audit_creation_date              2012-12-10T18:44:22-0500
_audit_creation_method            fapswitch 2.2
_symmetry_space_group_name_H-M    P1
_symmetry_Int_Tables_number       1
_space_group_crystal_system       triclinic
_cell_length_a                    12.900469
_cell_length_b                    10.695758
_cell_length_c                    9.828837
_cell_angle_alpha                 90.67841
_cell_angle_beta                  96.891799
_cell_angle_gamma                 90.108436
_cell_volume                      1346.28486293

loop_
_atom_site_label
_atom_site_type_symbol
_atom_type_description
_atom_site_fract_x
_atom_site_fract_y
_atom_site_fract_z
_atom_type_partial_charge
C1    C     C_R   0.501004 0.260038 0.499079 0.906527
C2    C     C_R   0.498996 0.739961 0.500922 0.906517
C3    C     C_R   0.499525 0.872331 0.503177 -0.094771
C4    C     C_R   0.500474 0.127667 0.496824 -0.094770
C5    C     C_R   0.569368 0.572266 0.083776 -0.072223
C6    C     C_R   0.430632 0.427734 0.916224 -0.072216
C7    C     C_R   0.569411 0.572114 0.939813 -0.085484
C8    C     C_R   0.430589 0.427886 0.060187 -0.085510
C9    C     C_R   0.298102 0.500142 0.473523 0.882327
C10   C     C_R   0.701897 0.499858 0.526477 0.882336
C11   C     C_R   0.813900 0.500126 0.541990 -0.050339
C12   C     C_R   0.186099 0.499873 0.458010 -0.050340
C13   C     C_R   0.020966 0.487986 0.316122 -0.227446
C14   C     C_R   0.979034 0.512012 0.683878 -0.227446
C15   C     C_R   0.128866 0.490440 0.327858 -0.206944
C16   C     C_R   0.871134 0.509558 0.672141 -0.206943
C17   C     C_R   0.136138 0.507724 0.576184 -0.285774
C18   C     C_R   0.863862 0.492274 0.423816 -0.285769
C19   C     C_R   0.028981 0.505026 0.565500 0.187596
C20   C     C_R   0.971019 0.494972 0.434499 0.187595
C21   C     C_R   0.554419 0.060986 0.403539 0.213553
C22   C     C_R   0.445580 0.939011 0.596463 0.213555
C23   C     C_R   0.554145 0.932481 0.408548 -0.304428
C24   C     C_R   0.445853 0.067517 0.591452 -0.304420
H1    H     H_    0.819672 0.484409 0.322934 0.161343
H2    H     H_    0.180328 0.515589 0.677066 0.161344
H3    H     H_    0.832748 0.515751 0.764146 0.158825
H4    H     H_    0.167252 0.484248 0.235854 0.158826
H5    H     H_    0.976815 0.480377 0.215311 0.135828
H6    H     H_    0.023185 0.519621 0.784688 0.135829
H7    H     H_    0.596917 0.879670 0.338736 0.161458
H8    H     H_    0.403080 0.120330 0.661261 0.161462
H9    H     H_    0.624741 0.630107 0.147807 0.121954
H10   H     H_    0.375260 0.369892 0.852193 0.121954
H11   H     H_    0.624890 0.629686 0.894589 0.118933
H12   H     H_    0.375111 0.370313 0.105411 0.118928
N1    N     N_R   0.499970 0.499970 0.857200 -0.073863
N2    N     N_R   0.500030 0.500030 0.142800 -0.073863
O1    O     O_R   0.499990 0.316750 0.614620 -0.629764
O2    O     O_R   0.500010 0.683250 0.385380 -0.629762
O3    O     O_R   0.499990 0.316780 0.385290 -0.595071
O4    O     O_R   0.500010 0.683220 0.614710 -0.595059
O5    O     O_R   0.346360 0.499970 0.595710 -0.625745
O6    O     O_R   0.653640 0.500030 0.404290 -0.625743
O7    O     O_R   0.346360 0.499990 0.366380 -0.631084
O8    O     O_R   0.653640 0.500010 0.633620 -0.631086
Zn1   Zn    Zn3+2 0.500000 0.499980 0.653120 0.949178
Zn2   Zn    Zn3+2 0.500000 0.500020 0.346880 0.949168
N3    N     N_2   0.612471 0.122484 0.309493 -0.289219
H13   H     H_    0.688443 0.091321 0.314317 0.215138
C25   C     C_3   0.561514 0.123115 0.170028 -0.742920
H14   H     H_    0.557360 0.026756 0.126035 0.217527
H15   H     H_    0.606621 0.182927 0.106509 0.236467
H16   H     H_    0.481293 0.161519 0.166437 0.248434
N4    N     N_2   0.387532 0.877514 0.690511 -0.289204
H17   H     H_    0.311544 0.908631 0.685640 0.215136
C26   C     C_3   0.438462 0.876954 0.829991 -0.742941
H18   H     H_    0.442591 0.973334 0.873930 0.217530
H19   H     H_    0.518690 0.838560 0.833633 0.248424
H20   H     H_    0.393347 0.817170 0.893530 0.236457

loop_
_geom_bond_atom_site_label_1
_geom_bond_atom_site_label_2
_ccdc_geom_bond_type
C12   C17   A    
C10   O8    A    
C25   H15   S    
N4    H17   S    
C24   H8    S    
C11   C18   A    
C9    O7    A    
C22   N4    S    
C14   C16   A    
N1    Zn1   S    
C11   C16   A    
C3    C23   A    
C19   C20   A    
C12   C15   A    
C1    C4    S    
C6    H10   S    
C25   H16   S    
C16   H3    S    
C21   N3    S    
C2    C3    S    
C7    N1    A    
C6    N1    A    
C5    N2    A    
C4    C21   A    
C26   H18   S    
C18   H1    S    
C8    N2    A    
C14   H6    S    
C17   H2    S    
C14   C19   A    
C1    O3    A    
C17   C19   A    
O3    Zn2   S    
C2    O4    A    
C18   C20   A    
O4    Zn1   S    
N4    C26   S    
C13   C15   A    
C4    C24   A    
C9    C12   S    
C22   C24   A    
C9    O5    A    
C26   H19   S    
C10   C11   S    
C1    O1    A    
C10   O6    A    
C25   H14   S    
C15   H4    S    
C2    O2    A    
C7    H11   S    
N2    Zn2   S    
O1    Zn1   S    
N3    H13   S    
C8    H12   S    
O7    Zn2   S    
C13   H5    S    
C5    C7    A    
O2    Zn2   S    
O8    Zn1   S    
C3    C22   A    
C6    C8    A    
C13   C20   A    
N3    C25   S    
O5    Zn1   S    
C21   C23   A    
O6    Zn2   S    
C5    H9    S    
C26   H20   S    
C23   H7    S    
