data_mof_unit_15422.cif
_audit_creation_date              2013-03-05T16:02:29-0500
_audit_creation_method            fapswitch 2.2
_symmetry_space_group_name_H-M    P1
_symmetry_Int_Tables_number       1
_space_group_crystal_system       triclinic
_cell_length_a                    16.590248
_cell_length_b                    7.253823
_cell_length_c                    15.183528
_cell_angle_alpha                 89.993835
_cell_angle_beta                  94.734432
_cell_angle_gamma                 90.004015
_cell_volume                      1820.99252157

loop_
_atom_site_label
_atom_site_type_symbol
_atom_site_description
_atom_site_fract_x
_atom_site_fract_y
_atom_site_fract_z
_atom_type_partial_charge
O1    O     O_R   0.663460 0.361760 0.165970 -0.580579
O2    O     O_R   0.336540 0.638240 0.834030 -0.580578
O3    O     O_R   0.836540 0.861760 0.334030 -0.580493
O4    O     O_R   0.163460 0.138240 0.665970 -0.580493
O5    O     O_R   0.827100 0.689870 0.163730 -0.578824
O6    O     O_R   0.172900 0.310130 0.836270 -0.578823
O7    O     O_R   0.672900 0.189870 0.336270 -0.579000
O8    O     O_R   0.327100 0.810130 0.663730 -0.579000
C1    C     C_R   0.853281 0.522951 0.143585 0.952329
C2    C     C_R   0.146719 0.477049 0.856415 0.952329
C3    C     C_R   0.646709 0.022939 0.356402 0.951982
C4    C     C_R   0.353291 0.977061 0.643598 0.951982
O9    O     O_R   0.663490 0.691370 0.155500 -0.584316
O10   O     O_R   0.336510 0.308630 0.844500 -0.584316
O11   O     O_R   0.836510 0.191370 0.344500 -0.584247
O12   O     O_R   0.163490 0.808630 0.655500 -0.584247
O13   O     O_R   0.671770 0.863320 0.325740 -0.583855
O14   O     O_R   0.328230 0.136680 0.674260 -0.583855
O15   O     O_R   0.828230 0.363320 0.174260 -0.583329
O16   O     O_R   0.171770 0.636680 0.825740 -0.583328
C5    C     C_R   0.636263 0.522870 0.133631 0.910046
C6    C     C_R   0.363736 0.477130 0.866369 0.910046
C7    C     C_R   0.863709 0.022857 0.366401 0.910123
C8    C     C_R   0.136291 0.977143 0.633599 0.910123
O17   O     O_3   0.752910 0.528800 0.305860 -0.278359
O18   O     O_3   0.247090 0.471200 0.694140 -0.278359
O19   O     O_3   0.747090 0.028800 0.194140 -0.277851
O20   O     O_3   0.252910 0.971200 0.805860 -0.277851
V1    V     V_3+5 0.749460 0.803010 0.239640 1.198364
V2    V     V_3+5 0.250540 0.196990 0.760360 1.198364
V3    V     V_3+5 0.750540 0.303010 0.260360 1.198273
V4    V     V_3+5 0.249460 0.696990 0.739640 1.198273
C9    C     C_1   0.468865 0.994750 0.530158 0.136020
C10   C     C_1   0.531135 0.005250 0.469842 0.136020
C11   C     C_1   0.031146 0.494739 0.969855 0.134052
C12   C     C_1   0.968853 0.505261 0.030145 0.134052
C13   C     C_R   0.025575 0.126023 0.328076 -0.231265
C14   C     C_R   0.974424 0.873977 0.671924 -0.231265
C15   C     C_R   0.474807 0.631522 0.171088 -0.229989
C16   C     C_R   0.525193 0.368478 0.828912 -0.229989
C17   C     C_R   0.102780 0.174406 0.306559 -0.164746
C18   C     C_R   0.897220 0.825594 0.693441 -0.164746
C19   C     C_R   0.397797 0.682515 0.192189 -0.166942
C20   C     C_R   0.602203 0.317485 0.807811 -0.166942
C21   C     C_R   0.169051 0.162303 0.369487 0.442271
C22   C     C_R   0.830949 0.837696 0.630513 0.442271
C23   C     C_R   0.331539 0.670283 0.129249 0.440383
C24   C     C_R   0.668461 0.329717 0.870751 0.440383
C25   C     C_R   0.156594 0.100482 0.454938 -0.288307
C26   C     C_R   0.843406 0.899518 0.545062 -0.288307
C27   C     C_R   0.343820 0.605785 0.044222 -0.286526
C28   C     C_R   0.656180 0.394215 0.955778 -0.286526
C29   C     C_R   0.078632 0.051271 0.478607 0.069721
C30   C     C_R   0.921368 0.948729 0.521393 0.069721
C31   C     C_R   0.421591 0.554009 0.020951 0.069873
C32   C     C_R   0.578409 0.445991 0.979049 0.069873
C33   C     C_R   0.011782 0.064308 0.413840 0.120800
C34   C     C_R   0.988218 0.935692 0.586160 0.120800
C35   C     C_R   0.488428 0.567100 0.085728 0.121362
C36   C     C_R   0.511572 0.432900 0.914272 0.121362
C37   C     C_R   0.066904 0.986929 0.564936 -0.241718
C38   C     C_R   0.933096 0.013070 0.435064 -0.241718
C39   C     C_R   0.433106 0.486901 0.935054 -0.242363
C40   C     C_R   0.566894 0.513099 0.064946 -0.242363
C41   C     C_1   0.416051 0.986177 0.581535 -0.235741
C42   C     C_1   0.583949 0.013823 0.418465 -0.235740
C43   C     C_1   0.083967 0.486148 0.918487 -0.235641
C44   C     C_1   0.916033 0.513852 0.081513 -0.235640
H1    H     H_    0.208558 0.089857 0.502548 0.149395
H2    H     H_    0.791442 0.910142 0.497451 0.149394
H3    H     H_    0.291827 0.594895 0.996669 0.150100
H4    H     H_    0.708173 0.405104 0.003331 0.150100
H5    H     H_    0.110587 0.220981 0.240039 0.182543
H6    H     H_    0.889413 0.779019 0.759961 0.182543
H7    H     H_    0.390129 0.731241 0.258382 0.182644
H8    H     H_    0.609871 0.268759 0.741618 0.182644
N1    N     N_R   0.751172 0.788169 0.653387 0.249629
O21   O     O_R   0.739520 0.733456 0.733021 -0.370469
O22   O     O_R   0.689387 0.796860 0.594853 -0.415359
N2    N     N_R   0.248828 0.211830 0.346613 0.249629
O23   O     O_R   0.260480 0.266544 0.266979 -0.370469
O24   O     O_R   0.310613 0.203140 0.405147 -0.415359
N3    N     N_R   0.748067 0.277758 0.848298 0.248891
O25   O     O_R   0.759832 0.223653 0.768606 -0.371322
O26   O     O_R   0.809611 0.283978 0.907218 -0.414268
N4    N     N_R   0.251933 0.722242 0.151702 0.248891
O27   O     O_R   0.240168 0.776347 0.231394 -0.371322
O28   O     O_R   0.190389 0.716022 0.092782 -0.414268
H9    H     H_    0.976949 0.136864 0.276291 0.143249
H10   H     H_    0.023051 0.863136 0.723709 0.143249
H11   H     H_    0.523403 0.642451 0.222896 0.143458
H12   H     H_    0.476597 0.357549 0.777104 0.143458

loop_
_geom_bond_atom_site_label_1
_geom_bond_atom_site_label_2
_geom_bond_distance
_ccdc_geom_bond_type
O17   V3    1.776822 S    
O1    C5    1.331849 A    
C8    C37   1.489627 S    
C16   C36   1.413408 A    
C31   C35   1.423337 A    
O19   V1    1.776688 S    
O13   V1    1.959600 S    
O3    C7    1.331834 A    
C11   C12   1.438062 S    
O15   V3    1.959497 S    
C10   C42   1.221853 T    
C9    C41   1.221853 T    
C33   C38   1.419672 A    
N1    O21   1.302052 A    
O7    C3    1.330512 A    
C35   C40   1.419690 A    
C26   C30   1.416377 A    
C36   C39   1.419690 A    
O9    V1    2.005348 S    
C14   C18   1.392644 A    
C24   C28   1.403816 A    
O16   V4    1.959496 S    
O4    C8    1.331834 A    
N4    O28   1.301567 A    
O1    V3    1.995211 S    
O2    V4    1.995211 S    
C18   C22   1.398575 A    
O3    V1    1.995234 S    
C5    C40   1.489619 S    
C6    C39   1.489619 S    
C14   C34   1.413347 A    
C29   C37   1.419781 A    
C1    O15   1.327496 A    
C7    C38   1.489627 S    
C2    O16   1.327497 A    
C31   C39   1.419763 A    
O2    C6    1.331849 A    
C32   C40   1.419763 A    
O14   V2    1.959600 S    
C21   C25   1.404033 A    
C3    C42   1.462325 S    
C34   C37   1.419672 A    
O11   C7    1.335508 A    
O12   C8    1.335508 A    
C25   H1    1.081135 S    
C27   H3    1.081091 S    
O10   V2    2.005349 S    
C15   H11   1.081831 S    
O5    V1    1.976494 S    
N1    O22   1.301598 A    
C19   H7    1.082790 S    
C18   H6    1.082830 S    
O7    V3    1.976317 S    
O8    V4    1.976314 S    
C23   N4    1.441142 S    
N2    O24   1.301598 A    
C29   C33   1.423367 A    
N4    O27   1.302055 A    
C23   C27   1.403816 A    
C30   C38   1.419781 A    
C2    C43   1.462339 S    
C32   C36   1.423337 A    
O5    C1    1.330543 A    
C28   H4    1.081091 S    
N3    O25   1.302055 A    
C11   C43   1.221859 T    
O8    C4    1.330513 A    
C15   C35   1.413408 A    
C9    C10   1.438040 S    
O9    C5    1.335471 A    
C16   H12   1.081831 S    
N3    O26   1.301567 A    
C30   C34   1.423367 A    
C22   C26   1.404033 A    
C3    O13   1.327538 A    
O6    V2    1.976494 S    
N2    O23   1.302052 A    
O6    C2    1.330543 A    
C22   N1    1.441233 S    
C15   C19   1.392632 A    
C12   C44   1.221859 T    
O11   V3    2.005319 S    
O18   V4    1.776820 S    
O12   V4    2.005318 S    
C4    C41   1.462325 S    
C14   H10   1.081895 S    
C24   N3    1.441142 S    
C13   H9    1.081894 S    
O10   C6    1.335471 A    
O20   V2    1.776689 S    
C26   H2    1.081135 S    
C1    C44   1.462339 S    
C25   C29   1.416377 A    
C21   N2    1.441233 S    
C27   C31   1.416332 A    
C13   C17   1.392646 A    
O4    V2    1.995233 S    
C17   H5    1.082830 S    
C28   C32   1.416332 A    
C16   C20   1.392632 A    
C4    O14   1.327537 A    
C17   C21   1.398575 A    
C20   H8    1.082790 S    
C19   C23   1.398590 A    
C13   C33   1.413347 A    
C20   C24   1.398590 A    
