data_mof_unit_32279.cif
_audit_creation_date              2012-12-10T18:21:54-0500
_audit_creation_method            fapswitch 2.2
_symmetry_space_group_name_H-M    P1
_symmetry_Int_Tables_number       1
_space_group_crystal_system       triclinic
_cell_length_a                    19.402601
_cell_length_b                    10.816044
_cell_length_c                    9.57375
_cell_angle_alpha                 94.259085
_cell_angle_beta                  88.362604
_cell_angle_gamma                 88.391453
_cell_volume                      2001.85588926

loop_
_atom_site_label
_atom_site_type_symbol
_atom_type_description
_atom_site_fract_x
_atom_site_fract_y
_atom_site_fract_z
_atom_type_partial_charge
C1    C     C_R   0.498578 0.259830 0.495111 0.801592
C2    C     C_R   0.499515 0.740749 0.504430 0.760366
C3    C     C_3   0.558195 0.045874 0.538592 0.116404
C4    C     C_3   0.437952 0.956202 0.456966 0.134970
C5    C     C_3   0.549601 0.945861 0.416591 -0.196698
C6    C     C_3   0.446724 0.056005 0.578960 -0.188047
C7    C     C_3   0.498425 0.878913 0.510761 -0.143792
C8    C     C_3   0.497698 0.122486 0.485896 -0.152290
C9    C     C_3   0.507700 0.978929 0.631372 0.027787
C10   C     C_3   0.488507 0.023270 0.364499 0.048238
C11   C     C_3   0.534273 0.590541 0.055322 0.217903
C12   C     C_3   0.465529 0.409043 0.946205 0.227773
C13   C     C_3   0.472165 0.600332 0.961585 0.162395
C14   C     C_3   0.527918 0.400267 0.038991 0.152063
C15   C     C_3   0.562425 0.490343 0.944438 -0.088057
C16   C     C_3   0.437618 0.509715 0.056468 -0.076001
C17   C     C_R   0.367327 0.496925 0.501998 0.828948
C18   C     C_R   0.632410 0.498784 0.498411 0.756514
C19   C     C_R   0.250823 0.520180 0.633893 0.134781
C20   C     C_R   0.750215 0.404466 0.425213 0.085714
C21   C     C_R   0.180692 0.489842 0.642474 -0.024714
C22   C     C_R   0.821556 0.393439 0.448821 -0.023159
C23   C     C_R   0.144750 0.464153 0.519006 -0.065973
C24   C     C_R   0.853371 0.483373 0.537078 -0.065379
C25   C     C_R   0.181456 0.440622 0.389570 0.078997
C26   C     C_R   0.814353 0.583919 0.605914 0.112503
C27   C     C_R   0.254657 0.437976 0.387510 -0.044869
C28   C     C_R   0.741641 0.591985 0.586966 -0.028670
C29   C     C_R   0.290221 0.485424 0.507673 -0.151728
C30   C     C_R   0.709413 0.500298 0.499149 -0.176954
C31   C     C_R   0.929244 0.481227 0.538957 0.429398
C32   C     C_R   0.068648 0.468659 0.525531 0.373364
Cu1   Cu    Cu3+1 0.500020 0.499990 0.643150 0.923378
Cu2   Cu    Cu3+1 0.499980 0.500010 0.356850 0.933149
H1    H     H_    0.615061 0.482016 0.895547 0.147064
H2    H     H_    0.385270 0.520024 0.105834 0.131122
H3    H     H_    0.592948 0.901105 0.351509 0.155103
H4    H     H_    0.403152 0.100882 0.643254 0.168755
N1    N     N_R   0.033464 0.554952 0.457735 -0.235988
N2    N     N_R   0.964297 0.396245 0.609061 -0.170984
N3    N     N_R   0.964914 0.560541 0.463401 -0.246481
N4    N     N_R   0.032935 0.389757 0.602070 -0.216259
N5    N     N_3   0.500050 0.499970 0.858290 -0.204343
N6    N     N_3   0.499950 0.500030 0.141710 -0.212140
O1    O     O_R   0.500030 0.316850 0.620870 -0.586807
O2    O     O_R   0.499970 0.683150 0.379130 -0.593716
O3    O     O_R   0.500000 0.316860 0.379090 -0.581145
O4    O     O_R   0.500000 0.683140 0.620910 -0.601301
O5    O     O_R   0.400160 0.499980 0.620930 -0.593052
O6    O     O_R   0.599840 0.500020 0.379070 -0.592211
O7    O     O_R   0.400130 0.499990 0.379150 -0.547822
O8    O     O_R   0.599870 0.500010 0.620850 -0.577855
C33   C     C_3   0.277868 0.607292 0.751599 -0.359977
C34   C     C_3   0.293208 0.732924 0.698162 -0.895629
H5    H     H_    0.340323 0.724203 0.629973 0.243412
H6    H     H_    0.249218 0.767363 0.638496 0.261518
H7    H     H_    0.301906 0.801767 0.787250 0.258695
H8    H     H_    0.239758 0.627055 0.839328 0.216530
H9    H     H_    0.323049 0.567348 0.801199 0.226026
C35   C     C_3   0.719439 0.315825 0.316135 -0.402619
C36   C     C_3   0.730461 0.363097 0.170569 -0.829846
H10   H     H_    0.722728 0.286688 0.089686 0.248674
H11   H     H_    0.783626 0.395837 0.154887 0.241014
H12   H     H_    0.693880 0.441579 0.155906 0.262198
H13   H     H_    0.742803 0.221080 0.317838 0.194070
H14   H     H_    0.664413 0.302725 0.339629 0.192978
C37   C     C_2   0.144687 0.486385 0.780880 0.333625
H15   H     H_    0.093083 0.526468 0.799686 0.083885
O9    O     O_2   0.172414 0.434062 0.873995 -0.574672
C38   C     C_2   0.863583 0.288805 0.376248 0.349615
H16   H     H_    0.861044 0.268852 0.263945 0.085190
O10   O     O_2   0.899119 0.220624 0.442603 -0.515553
C39   C     C_3   0.142462 0.414585 0.254966 -0.377702
C40   C     C_3   0.135169 0.532495 0.177338 -0.734079
H17   H     H_    0.114952 0.611514 0.248783 0.255549
H18   H     H_    0.185862 0.557599 0.132668 0.237896
H19   H     H_    0.098400 0.517612 0.091497 0.264464
H20   H     H_    0.168074 0.339288 0.185468 0.211531
H21   H     H_    0.090331 0.379399 0.276171 0.221472
C41   C     C_3   0.851468 0.681858 0.696929 -0.342455
C42   C     C_3   0.859877 0.801473 0.623298 -0.720971
H22   H     H_    0.891619 0.782834 0.525296 0.254294
H23   H     H_    0.809345 0.842141 0.596615 0.261373
H24   H     H_    0.886263 0.870476 0.693109 0.242747
H25   H     H_    0.825288 0.700140 0.800931 0.244574
H26   H     H_    0.903642 0.649121 0.724557 0.178987
C43   C     C_2   0.292488 0.381971 0.260121 0.354134
H27   H     H_    0.278581 0.407841 0.157296 0.078443
O11   O     O_2   0.337669 0.302314 0.268901 -0.575440
C44   C     C_2   0.697913 0.698967 0.649697 0.332249
H28   H     H_    0.650439 0.724918 0.600697 0.064780
O12   O     O_2   0.712962 0.758526 0.756777 -0.597053
C45   C     C_3   0.626973 0.105217 0.573714 -0.442671
C46   C     C_3   0.681009 0.012772 0.617634 -0.794401
H29   H     H_    0.665521 0.977776 0.719197 0.273691
H30   H     H_    0.688398 0.934832 0.535996 0.241448
H31   H     H_    0.730898 0.059481 0.630789 0.256599
H32   H     H_    0.646934 0.146113 0.478790 0.197568
H33   H     H_    0.618791 0.181037 0.657376 0.217656
C47   C     C_3   0.366273 0.908121 0.423593 -0.463607
C48   C     C_3   0.321519 0.999125 0.348968 -0.783045
H34   H     H_    0.324680 0.094368 0.399784 0.281580
H35   H     H_    0.337035 0.997734 0.236712 0.248213
H36   H     H_    0.266943 0.971132 0.354731 0.244878
H37   H     H_    0.370638 0.817389 0.361442 0.212384
H38   H     H_    0.339635 0.895552 0.524496 0.219978
C49   C     C_2   0.516383 0.965984 0.782570 0.321974
H39   H     H_    0.563062 0.924198 0.818900 0.098165
O13   O     O_2   0.470906 0.004442 0.866456 -0.556159
C50   C     C_2   0.478220 0.039426 0.213905 0.341296
H40   H     H_    0.434654 0.094038 0.181911 0.117347
O14   O     O_2   0.519871 0.993495 0.126055 -0.552314
C51   C     C_3   0.440408 0.720200 0.918533 -0.345868
C52   C     C_3   0.391240 0.782535 0.031124 -0.830319
H41   H     H_    0.345288 0.725351 0.045353 0.225680
H42   H     H_    0.417779 0.795970 0.131822 0.266562
H43   H     H_    0.373593 0.874497 0.999332 0.277799
H44   H     H_    0.483443 0.780516 0.900767 0.243828
H45   H     H_    0.413366 0.702781 0.820077 0.239369
C53   C     C_3   0.562512 0.283859 0.084223 -0.358479
C54   C     C_3   0.601271 0.209209 0.963820 -0.821415
H46   H     H_    0.565493 0.182311 0.880317 0.267499
H47   H     H_    0.642409 0.264301 0.918124 0.228688
H48   H     H_    0.625083 0.124076 0.002172 0.275000
H49   H     H_    0.522169 0.229033 0.127700 0.233703
H50   H     H_    0.597669 0.309498 0.167719 0.231024
C55   C     C_3   0.576804 0.695184 0.121246 -0.418523
C56   C     C_3   0.629181 0.741390 0.017938 -0.770084
H51   H     H_    0.672531 0.672304 0.999451 0.257463
H52   H     H_    0.604773 0.755517 0.917138 0.265641
H53   H     H_    0.649999 0.830436 0.061003 0.264485
H54   H     H_    0.541273 0.772386 0.159974 0.262828
H55   H     H_    0.605404 0.662431 0.210484 0.234076
C57   C     C_3   0.425949 0.291912 0.901618 -0.354658
C58   C     C_3   0.352846 0.315546 0.854022 -0.775699
H56   H     H_    0.323187 0.229704 0.860495 0.249347
H57   H     H_    0.325894 0.390147 0.921909 0.241090
H58   H     H_    0.353203 0.337612 0.743497 0.265545
H59   H     H_    0.455461 0.232949 0.821403 0.247256
H60   H     H_    0.421165 0.237139 0.994719 0.221807

loop_
_geom_bond_atom_site_label_1
_geom_bond_atom_site_label_2
_ccdc_geom_bond_type
C58   H58   S    
C43   H27   S    
C45   C46   S    
C5    H3    S    
C27   C29   A    
C1    C8    S    
Cu1   O1    S    
C39   C40   S    
C2    C7    S    
C56   H51   S    
C17   O7    A    
C6    C9    S    
C52   H41   S    
C33   H9    S    
C18   O8    A    
C58   H56   S    
N1    N3    A    
C20   C30   A    
C33   C34   S    
C2    O2    A    
Cu1   O8    S    
C47   H37   S    
C48   H34   S    
C40   H18   S    
C19   C21   A    
C24   C26   A    
C12   N5    S    
C57   H60   S    
C53   H50   S    
Cu1   O5    S    
C17   C29   S    
C31   N2    A    
C7    C9    S    
C32   N1    A    
C36   H11   S    
C50   H40   S    
C54   H48   S    
C41   H26   S    
C51   H45   S    
C11   C15   S    
C12   C16   S    
C40   H19   S    
C49   H39   S    
C6    H4    S    
C38   H16   S    
Cu2   O2    S    
C20   C35   S    
C16   N6    S    
C46   H30   S    
C19   C33   S    
N2    N4    A    
C35   H14   S    
C48   H35   S    
C12   C57   S    
C21   C37   S    
C49   O13   D    
C46   H29   S    
C4    C7    S    
C15   H1    S    
C42   H23   S    
C28   C44   S    
C42   H22   S    
C39   H21   S    
C34   H6    S    
Cu2   O6    S    
C40   H17   S    
C37   H15   S    
Cu1   N5    S    
Cu2   N6    S    
C4    C6    S    
C3    C8    S    
C17   O5    A    
C57   H59   S    
C5    C7    S    
C53   H49   S    
C1    O3    A    
C6    C8    S    
C46   H31   S    
C2    O4    A    
C26   C41   S    
C35   C36   S    
C37   O9    D    
C36   H12   S    
C11   C55   S    
C41   H25   S    
C3    C9    S    
C44   O12   D    
C39   H20   S    
Cu1   Cu2   S    
Cu2   O7    S    
C11   N6    S    
C3    C45   S    
C27   C43   S    
C55   H54   S    
C54   H46   S    
C18   C30   S    
C12   C14   S    
C35   H13   S    
C48   H36   S    
C14   C53   S    
C21   C23   A    
C22   C24   A    
C25   C27   A    
C4    C10   S    
C55   C56   S    
C19   C29   A    
C56   H53   S    
C13   N5    S    
C42   H24   S    
C53   C54   S    
C18   O6    A    
C14   N6    S    
C51   C52   S    
C58   H57   S    
C45   H33   S    
C34   H5    S    
C31   N3    A    
C26   C28   A    
C55   H55   S    
C20   C22   A    
C41   C42   S    
C3    C5    S    
C56   H52   S    
C52   H42   S    
C33   H8    S    
C57   C58   S    
C9    C49   S    
C47   H38   S    
C23   C32   S    
C4    C47   S    
C24   C31   S    
C15   N5    S    
C5    C10   S    
C16   H2    S    
C11   C13   S    
C1    O1    A    
C44   H28   S    
C28   C30   A    
C47   C48   S    
C43   O11   D    
C10   C50   S    
C25   C39   S    
C23   C25   A    
C36   H10   S    
C50   O14   D    
C54   H47   S    
C52   H43   S    
C51   H44   S    
C8    C10   S    
C13   C16   S    
Cu1   O4    S    
C32   N4    A    
C14   C15   S    
C38   O10   D    
Cu2   O3    S    
C45   H32   S    
C22   C38   S    
C13   C51   S    
C34   H7    S    
