data_mof_unit_9347.cif
_audit_creation_date              2012-12-10T17:30:19-0500
_audit_creation_method            fapswitch 2.2
_symmetry_space_group_name_H-M    P1
_symmetry_Int_Tables_number       1
_space_group_crystal_system       triclinic
_cell_length_a                    11.987041
_cell_length_b                    12.86545
_cell_length_c                    14.991365
_cell_angle_alpha                 89.492009
_cell_angle_beta                  86.522184
_cell_angle_gamma                 93.735969
_cell_volume                      2302.59593356

loop_
_atom_site_label
_atom_site_type_symbol
_atom_type_description
_atom_site_fract_x
_atom_site_fract_y
_atom_site_fract_z
_atom_type_partial_charge
C1    C     C_R   0.522542 0.700195 0.502642 0.900553
C2    C     C_R   0.376188 0.137539 0.444966 -0.122704
C3    C     C_R   0.455522 0.866903 0.472108 -0.147133
C4    C     C_R   0.541995 0.132936 0.531625 -0.190481
C5    C     C_R   0.453342 0.973242 0.481524 0.083024
C6    C     C_R   0.539945 0.025782 0.527036 0.044468
C7    C     C_R   0.952811 0.402033 0.416069 -0.114629
C8    C     C_R   0.047177 0.597617 0.584224 -0.130574
C9    C     C_R   0.836544 0.410969 0.426175 -0.004588
C10   C     C_R   0.163458 0.588898 0.573940 -0.003218
C11   C     C_R   0.858376 0.542845 0.534038 -0.000926
C12   C     C_R   0.477400 0.299807 0.497210 0.981276
C13   C     C_R   0.141589 0.457089 0.466073 -0.015865
C14   C     C_R   0.975919 0.535425 0.530491 -0.003948
C15   C     C_R   0.024053 0.464422 0.469667 -0.014466
C16   C     C_R   0.500180 0.497178 0.673019 0.926165
C17   C     C_R   0.499825 0.502886 0.326980 0.988922
C18   C     C_R   0.562191 0.436222 0.184551 -0.243046
C19   C     C_R   0.437781 0.563773 0.815450 -0.283912
C20   C     C_R   0.499425 0.507334 0.231358 -0.075041
C21   C     C_R   0.500513 0.492644 0.768642 -0.081223
C22   C     C_R   0.435843 0.578409 0.187393 -0.067299
C23   C     C_R   0.375333 0.639953 0.953277 -0.171557
C24   C     C_R   0.563854 0.421370 0.812612 -0.063412
C25   C     C_R   0.435040 0.575043 0.093752 0.038507
C26   C     C_R   0.564684 0.424732 0.906254 0.035004
C27   C     C_R   0.499111 0.501797 0.046681 0.071553
C28   C     C_R   0.500675 0.498028 0.953326 0.073680
C29   C     C_R   0.562335 0.432605 0.092732 0.119070
C30   C     C_R   0.437506 0.567271 0.907275 0.126060
C31   C     C_R   0.374433 0.644377 0.045538 -0.196895
C32   C     C_R   0.625249 0.355366 0.954474 -0.197249
C33   C     C_2   0.994536 0.328366 0.348130 0.877831
C34   C     C_R   0.624443 0.359868 0.046732 -0.165240
C35   C     C_2   0.005433 0.670463 0.652791 0.939569
C36   C     C_2   0.374273 0.657616 0.238491 0.437026
C37   C     C_2   0.624960 0.341870 0.761508 0.449037
C38   C     C_2   0.296122 0.196857 0.396005 0.476406
C39   C     C_2   0.697744 0.798829 0.609093 0.445188
C40   C     C_2   0.709789 0.026471 0.618300 0.967470
C41   C     C_2   0.274182 0.971892 0.399999 0.867482
C42   C     C_R   0.462892 0.188304 0.491099 -0.097288
C43   C     C_R   0.536284 0.811587 0.510526 -0.154399
C44   C     C_R   0.623760 0.970685 0.566231 -0.024797
C45   C     C_R   0.368711 0.028161 0.443206 -0.066011
C46   C     C_R   0.620675 0.861505 0.559528 -0.115028
H1    H     H_    0.609627 0.381968 0.220312 0.159702
H2    H     H_    0.817949 0.598329 0.576305 0.171148
H3    H     H_    0.219344 0.635838 0.613790 0.162751
H4    H     H_    0.780660 0.363949 0.386386 0.164186
H5    H     H_    0.970675 0.189232 0.288744 0.362580
H6    H     H_    0.029097 0.808977 0.713237 0.371016
H7    H     H_    0.288848 0.671864 0.224467 0.075378
H8    H     H_    0.710227 0.327065 0.775568 0.059257
H9    H     H_    0.207770 0.171653 0.399311 0.092650
H10   H     H_    0.668034 0.723700 0.637925 0.063204
H11   H     H_    0.746333 0.096833 0.733506 0.347437
H12   H     H_    0.390435 0.618104 0.779690 0.156629
H13   H     H_    0.143120 0.865088 0.412945 0.362147
H14   H     H_    0.326248 0.702999 0.077933 0.150384
H15   H     H_    0.673380 0.296699 0.922090 0.146894
H16   H     H_    0.327533 0.693883 0.917752 0.160091
H17   H     H_    0.672262 0.305955 0.082258 0.160247
H18   H     H_    0.607506 0.175207 0.565632 0.205342
H19   H     H_    0.393601 0.825159 0.434138 0.220976
H20   H     H_    0.181992 0.401631 0.423869 0.191639
N1    N     N_R   0.207800 0.519350 0.516680 -0.122991
N2    N     N_R   0.792200 0.480650 0.483320 -0.125564
O1    O     O_R   0.421700 0.658830 0.504450 -0.604161
O2    O     O_R   0.935279 0.232418 0.337723 -0.782305
O3    O     O_2   0.922993 0.645343 0.702202 -0.626413
O4    O     O_R   0.064432 0.766423 0.663788 -0.754405
O5    O     O_2   0.419845 0.709148 0.295510 -0.584571
O6    O     O_2   0.579127 0.290702 0.704407 -0.569975
O7    O     O_2   0.329155 0.271155 0.348079 -0.555357
O8    O     O_2   0.795175 0.829180 0.617121 -0.514730
O9    O     O_2   0.804195 0.046307 0.584376 -0.554203
O10   O     O_R   0.681363 0.058185 0.705160 -0.779511
O11   O     O_2   0.258345 0.989421 0.321615 -0.598560
O12   O     O_R   0.578300 0.341170 0.495550 -0.619015
O13   O     O_R   0.203804 0.898738 0.449469 -0.762146
O14   O     O_R   0.609310 0.646410 0.493750 -0.633381
O15   O     O_R   0.390690 0.353590 0.506250 -0.610270
O16   O     O_R   0.406180 0.506230 0.637500 -0.633514
O17   O     O_R   0.593820 0.493770 0.362500 -0.640577
O18   O     O_R   0.593800 0.493820 0.626800 -0.619236
O19   O     O_R   0.406200 0.506180 0.373200 -0.580153
O20   O     O_2   0.077216 0.352729 0.298756 -0.604947
Zn1   Zn    Zn3+2 0.374730 0.508290 0.507150 1.007904
Zn2   Zn    Zn3+2 0.625270 0.491710 0.492850 0.987060

loop_
_geom_bond_atom_site_label_1
_geom_bond_atom_site_label_2
_ccdc_geom_bond_type
C25   C31   A    
C37   O6    D    
C26   C32   A    
C16   C21   S    
C27   C29   A    
N1    Zn1   S    
C18   H1    S    
C10   N1    A    
C3    C43   A    
C17   O17   A    
C19   C21   A    
C33   O20   D    
C24   C26   A    
C32   H15   S    
C5    C6    A    
C11   C14   A    
C16   O16   A    
C17   C20   S    
C12   C42   S    
C36   H7    S    
C1    C43   S    
C23   H16   S    
C38   H9    S    
C22   C25   A    
N2    Zn2   S    
H5    O2    S    
C13   H20   S    
C7    C15   A    
C35   O3    D    
C19   H12   S    
C6    C44   A    
C16   O18   A    
C7    C33   S    
C11   H2    S    
C3    H19   S    
O1    Zn1   S    
C44   C46   A    
C38   O7    D    
C2    C45   A    
O15   Zn1   S    
C23   C30   A    
C4    C6    A    
O18   Zn2   S    
C1    O14   A    
C5    C45   A    
C29   C34   A    
C1    O1    A    
C12   O15   A    
C8    C35   S    
C32   C34   A    
C31   H14   S    
H6    O4    S    
C2    C38   S    
C39   H10   S    
C41   O13   S    
C24   C37   S    
C18   C29   A    
C39   O8    D    
C33   O2    S    
C39   C46   S    
C37   H8    S    
C20   C22   A    
C35   O4    S    
C13   C15   A    
C40   O10   S    
O16   Zn1   S    
C11   N2    A    
C13   N1    A    
C7    C9    A    
C8    C14   A    
C17   O19   A    
H11   O10   S    
C9    H4    S    
H13   O13   S    
C3    C5    A    
C41   O11   D    
O17   Zn2   S    
C25   C27   A    
C22   C36   S    
C4    H18   S    
C26   C28   A    
O14   Zn2   S    
O19   Zn1   S    
C9    N2    A    
C19   C30   A    
C4    C42   A    
C2    C42   A    
C12   O12   A    
C28   C30   A    
C34   H17   S    
C18   C20   A    
C40   O9    D    
O12   Zn2   S    
C43   C46   A    
C36   O5    D    
C40   C44   S    
C8    C10   A    
C21   C24   A    
C27   C28   A    
C41   C45   S    
C14   C15   A    
C10   H3    S    
C23   C31   A    
