data_mof_unit_24066.cif
_audit_creation_date              2012-10-26T21:20:14-0400
_audit_creation_method            fapswitch 2.2
_symmetry_space_group_name_H-M    P1
_symmetry_Int_Tables_number       1
_space_group_crystal_system       triclinic
_cell_length_a                    13.161097
_cell_length_b                    10.903443
_cell_length_c                    9.51944
_cell_angle_alpha                 89.180031
_cell_angle_beta                  93.329275
_cell_angle_gamma                 90.426327
_cell_volume                      1363.57667293

loop_
_atom_site_label
_atom_site_type_symbol
_atom_type_description
_atom_site_fract_x
_atom_site_fract_y
_atom_site_fract_z
_atom_type_partial_charge
C1    C     C_R   0.498507 0.262252 0.501123 0.566504
C2    C     C_R   0.698941 0.506741 0.522132 0.539346
C3    C     C_R   0.810238 0.522845 0.528783 0.004623
C4    C     C_R   0.189972 0.510033 0.468287 0.012616
C5    C     C_R   0.037340 0.469552 0.324524 -0.155154
C6    C     C_R   0.961987 0.569036 0.674319 -0.153538
C7    C     C_R   0.141420 0.467446 0.344042 -0.153180
C8    C     C_R   0.857831 0.552349 0.659173 -0.162597
C9    C     C_R   0.131596 0.553799 0.578568 -0.008572
C10   C     C_R   0.870044 0.513046 0.409507 -0.006011
C11   C     C_R   0.024025 0.543132 0.563206 0.048174
C12   C     C_R   0.498411 0.738073 0.498888 0.559440
C13   C     C_R   0.976882 0.507684 0.432088 0.043377
C14   C     C_R   0.477804 0.067867 0.376435 -0.173469
C15   C     C_R   0.510116 0.933452 0.625497 -0.179887
C16   C     C_R   0.480290 0.940563 0.371711 0.240642
C17   C     C_R   0.511782 0.060970 0.629772 0.233540
C18   C     C_3   0.826235 0.530778 0.258602 -0.233245
C19   C     C_3   0.801212 0.408870 0.183752 -0.289423
C20   C     C_3   0.817191 0.420331 0.026200 -0.468195
C21   C     C_3   0.180858 0.623390 0.703046 -0.236598
C22   C     C_3   0.196923 0.541145 0.834836 -0.295592
C23   C     C_R   0.496278 0.872266 0.497552 -0.023302
C24   C     C_3   0.241328 0.614509 0.959461 -0.431432
C25   C     C_3   0.544271 0.897437 0.162237 -0.002454
C26   C     C_3   0.511319 0.871114 0.010571 -0.363170
C27   C     C_3   0.620496 0.118433 0.812135 -0.002987
C28   C     C_3   0.627265 0.186006 0.951111 -0.369872
C29   C     C_R   0.496021 0.128690 0.503465 -0.021714
C30   C     C_R   0.440101 0.419542 0.070921 -0.003315
C31   C     C_R   0.562369 0.577314 0.929227 -0.011419
C32   C     C_R   0.440937 0.418776 0.922190 0.004760
C33   C     C_R   0.562739 0.576534 0.077915 0.007551
C34   C     C_R   0.301296 0.505288 0.477251 0.546244
Cu1   Cu    Cu3+1 0.500000 0.500020 0.640660 0.930511
Cu2   Cu    Cu3+1 0.500000 0.499980 0.359340 0.933419
H1    H     H_    0.813844 0.567749 0.749826 0.124192
H2    H     H_    0.612873 0.637737 0.136472 0.092567
H3    H     H_    0.761581 0.485432 0.975686 0.149830
H4    H     H_    0.895445 0.453182 0.007764 0.140743
H5    H     H_    0.807454 0.329861 0.975727 0.142952
H6    H     H_    0.850239 0.333809 0.228715 0.154652
H7    H     H_    0.721023 0.381661 0.198433 0.192968
H8    H     H_    0.760672 0.593362 0.252811 0.144459
H9    H     H_    0.881801 0.585195 0.199271 0.124522
H10   H     H_    0.316431 0.653917 0.935305 0.171030
H11   H     H_    0.189137 0.689837 0.983990 0.152330
H12   H     H_    0.184276 0.432601 0.259518 0.124829
H13   H     H_    0.251422 0.553645 0.053548 0.152551
H14   H     H_    0.124685 0.497920 0.864706 0.143480
H15   H     H_    0.248532 0.465188 0.813102 0.182028
H16   H     H_    0.253792 0.666828 0.676037 0.170701
H17   H     H_    0.133075 0.703310 0.726513 0.124471
H18   H     H_    0.604495 0.832367 0.200283 0.126336
H19   H     H_    0.578490 0.991085 0.165298 0.102558
H20   H     H_    0.468234 0.950209 0.963622 0.181001
H21   H     H_    0.579817 0.854683 0.951300 0.065239
H22   H     H_    0.461114 0.789132 0.004091 0.171407
H23   H     H_    0.005351 0.436960 0.224949 0.120362
H24   H     H_    0.670941 0.165945 0.738206 0.135741
H25   H     H_    0.648235 0.023287 0.831597 0.108168
H26   H     H_    0.561971 0.161092 0.014684 0.156136
H27   H     H_    0.698891 0.161658 0.012069 0.079400
H28   H     H_    0.625648 0.286405 0.930877 0.168872
H29   H     H_    0.992076 0.598637 0.776057 0.108783
H30   H     H_    0.461632 0.118827 0.279186 0.139654
H31   H     H_    0.519582 0.882201 0.722888 0.136935
H32   H     H_    0.391798 0.355381 0.124040 0.109852
H33   H     H_    0.612316 0.639531 0.876178 0.103028
H34   H     H_    0.394760 0.352521 0.863544 0.131340
N1    N     N_R   0.500030 0.500030 0.852080 -0.231486
N2    N     N_R   0.499970 0.499970 0.147920 -0.225155
O1    O     O_R   0.499990 0.319660 0.618740 -0.445022
O2    O     O_3   0.518339 0.118515 0.758413 -0.547979
O3    O     O_R   0.500010 0.680340 0.381260 -0.453739
O4    O     O_R   0.499990 0.319630 0.381170 -0.531362
O5    O     O_R   0.500010 0.680370 0.618830 -0.531633
O6    O     O_R   0.349000 0.499990 0.599490 -0.516773
O7    O     O_R   0.651000 0.500010 0.400510 -0.522389
O8    O     O_R   0.348990 0.499960 0.361920 -0.507065
O9    O     O_R   0.651010 0.500040 0.638080 -0.515412
O10   O     O_3   0.459116 0.883998 0.244742 -0.530725

loop_
_geom_bond_atom_site_label_1
_geom_bond_atom_site_label_2
_ccdc_geom_bond_type
C30   C32   A    
C17   C29   A    
Cu1   Cu2   S    
C20   H5    S    
Cu1   O9    S    
C12   C23   S    
C27   H24   S    
C20   H4    S    
C18   C19   S    
C2    O7    A    
C27   H25   S    
C33   N2    A    
C34   O8    A    
C6    H29   S    
C19   C20   S    
C31   C33   A    
C27   O2    S    
Cu2   O4    S    
C5    C13   A    
C19   H6    S    
C22   H14   S    
C15   C23   A    
Cu1   N1    S    
C10   C13   A    
C21   C22   S    
C1    O4    A    
C4    C7    A    
C16   O10   S    
C19   H7    S    
C32   N1    A    
C4    C34   S    
C5    H23   S    
C25   H18   S    
C3    C8    A    
Cu2   O8    S    
C6    C11   A    
C5    C7    A    
C20   H3    S    
C32   H34   S    
C6    C8    A    
C25   C26   S    
Cu1   O5    S    
Cu2   O3    S    
C18   H8    S    
C26   H22   S    
C15   H31   S    
C12   O5    A    
C1    C29   S    
C14   H30   S    
C9    C11   A    
C28   H28   S    
C16   C23   A    
C25   O10   S    
C22   C24   S    
C8    H1    S    
C14   C29   A    
C18   H9    S    
C24   H13   S    
C15   C17   A    
Cu1   O1    S    
C24   H11   S    
C25   H19   S    
Cu2   O7    S    
C26   H20   S    
C30   N2    A    
Cu1   O6    S    
C33   H2    S    
C1    O1    A    
C7    H12   S    
C2    C3    S    
C24   H10   S    
C3    C10   A    
C34   O6    A    
C21   H17   S    
C11   C13   A    
C9    C21   S    
C17   O2    S    
C10   C18   S    
C31   N1    A    
C14   C16   A    
C26   H21   S    
C28   H27   S    
C31   H33   S    
C12   O3    A    
C27   C28   S    
C2    O9    A    
C4    C9    A    
C21   H16   S    
C30   H32   S    
Cu2   N2    S    
C22   H15   S    
C28   H26   S    
