data_mof_unit_50224.cif
_audit_creation_date              2012-12-10T18:09:04-0500
_audit_creation_method            fapswitch 2.2
_symmetry_space_group_name_H-M    P1
_symmetry_Int_Tables_number       1
_space_group_crystal_system       triclinic
_cell_length_a                    12.811204
_cell_length_b                    13.093406
_cell_length_c                    13.619529
_cell_angle_alpha                 88.896627
_cell_angle_beta                  94.775503
_cell_angle_gamma                 96.370743
_cell_volume                      2262.4655836

loop_
_atom_site_label
_atom_site_type_symbol
_atom_type_description
_atom_site_fract_x
_atom_site_fract_y
_atom_site_fract_z
_atom_type_partial_charge
C1    C     C_R   0.556978 0.690352 0.517512 0.913656
C2    C     C_1   0.530181 0.495438 0.217780 -0.166291
C3    C     C_R   0.271433 0.057279 0.515815 0.002342
C4    C     C_R   0.404108 0.198203 0.480079 -0.255221
C5    C     C_R   0.695577 0.836978 0.540233 -0.352067
C6    C     C_R   0.727016 0.941561 0.555210 0.442919
C7    C     C_R   0.649387 0.008665 0.558814 0.162272
C8    C     C_R   0.541229 0.970408 0.546870 0.011353
C9    C     C_R   0.514085 0.865122 0.561144 -0.003529
C10   C     C_R   0.459222 0.033136 0.525514 -0.031919
C11   C     C_R   0.353828 0.995794 0.543750 0.001110
C12   C     C_R   0.517612 0.497038 0.318796 0.871654
C13   C     C_R   0.334554 0.897657 0.588093 0.084539
C14   C     C_R   0.415328 0.832449 0.597393 0.059299
C15   C     C_R   0.478491 0.128681 0.478612 0.371972
C16   C     C_R   0.297142 0.160566 0.485294 0.327603
C17   C     C_R   0.589131 0.798104 0.542503 -0.129009
C18   C     C_R   0.879330 0.319284 0.608313 0.354486
C19   C     C_R   0.212627 0.626515 0.379704 0.236608
C20   C     C_R   0.110776 0.640368 0.340525 0.028943
C21   C     C_R   0.025459 0.581536 0.378372 -0.243157
C22   C     C_R   0.039049 0.515830 0.460408 -0.027465
C23   C     C_R   0.441536 0.308694 0.485814 0.867587
C24   C     C_R   0.143285 0.496048 0.491908 0.154207
C25   C     C_R   0.952019 0.465670 0.508645 -0.115155
C26   C     C_R   0.966483 0.377207 0.568900 -0.003433
C27   C     C_R   0.067794 0.354730 0.597998 0.016363
C28   C     C_R   0.154688 0.415787 0.564584 0.116098
C29   C     C_R   0.851290 0.501911 0.505597 0.210957
C30   C     C_R   0.783857 0.357413 0.599324 -0.057223
C31   C     C_R   0.482582 0.503464 0.681223 0.885923
C32   C     C_1   0.470383 0.506709 0.782206 -0.174393
C33   C     C_2   0.457155 0.510738 0.971412 0.109755
C34   C     C_2   0.543852 0.494285 0.028499 0.110719
C35   C     C_1   0.539664 0.494387 0.131988 -0.015951
C36   C     C_1   0.461057 0.509297 0.867938 -0.025485
H1    H     H_    0.715965 0.315714 0.629486 0.176414
H2    H     H_    0.949192 0.585161 0.340096 0.150022
H3    H     H_    0.754495 0.786124 0.528921 0.180302
N1    N     N_R   0.773270 0.445590 0.549770 -0.135172
N2    N     N_R   0.227520 0.553880 0.450750 -0.133590
O1    O     O_R   0.631100 0.627590 0.523760 -0.599524
O2    O     O_R   0.455900 0.662370 0.491970 -0.591666
O3    O     O_R   0.600200 0.480080 0.377830 -0.614067
O4    O     O_R   0.425000 0.514870 0.346040 -0.583875
O5    O     O_R   0.544100 0.337630 0.508030 -0.610906
O6    O     O_R   0.368900 0.372410 0.476240 -0.530455
O7    O     O_R   0.575000 0.485130 0.653960 -0.598759
O8    O     O_R   0.399800 0.519920 0.622170 -0.616442
Zn1   Zn    Zn3+2 0.616980 0.476780 0.521230 0.960694
Zn2   Zn    Zn3+2 0.383020 0.523220 0.478770 0.976622
N3    N     N_3   0.639776 0.476168 0.987402 -0.447760
H4    H     H_    0.660138 0.404794 0.013451 0.191415
H5    H     H_    0.699155 0.532182 0.014563 0.186836
N4    N     N_3   0.402431 0.739607 0.654946 -0.437922
H6    H     H_    0.394669 0.759095 0.727834 0.166987
H7    H     H_    0.333091 0.695656 0.628470 0.212446
N5    N     N_3   0.083468 0.277253 0.672990 -0.419495
H8    H     H_    0.125104 0.220660 0.646829 0.176744
H9    H     H_    0.122251 0.310069 0.737197 0.189045
O9    O     O_3   0.884462 0.225901 0.655341 -0.759469
H10   H     H_    0.920129 0.183059 0.612109 0.368316
N6    N     N_3   0.830370 0.602070 0.470677 -0.422046
H11   H     H_    0.801906 0.599413 0.396572 0.182819
H12   H     H_    0.895373 0.656772 0.485280 0.167657
N7    N     N_3   0.302217 0.683878 0.341450 -0.382700
H13   H     H_    0.298919 0.671690 0.265551 0.196203
H14   H     H_    0.297948 0.761952 0.353063 0.164697
N8    N     N_3   0.095205 0.711395 0.260234 -0.465258
H15   H     H_    0.115917 0.785508 0.287761 0.181332
H16   H     H_    0.015499 0.707286 0.235067 0.189879
N9    N     N_3   0.252325 0.398678 0.614166 -0.357210
H17   H     H_    0.251683 0.419668 0.687886 0.152839
H18   H     H_    0.265288 0.321517 0.613086 0.203639
N10   N     N_3   0.361235 0.528946 0.012460 -0.452787
H19   H     H_    0.340712 0.600127 0.986011 0.182690
H20   H     H_    0.301916 0.472708 0.985624 0.186804
O10   O     O_3   0.221154 0.224775 0.456175 -0.749210
H21   H     H_    0.149718 0.190689 0.464297 0.327425
N11   N     N_3   0.234160 0.864677 0.624607 -0.428900
H22   H     H_    0.201052 0.798086 0.587627 0.180070
H23   H     H_    0.244939 0.848399 0.699944 0.177499
N12   N     N_3   0.163440 0.014009 0.516335 -0.429796
H24   H     H_    0.126464 0.018570 0.445246 0.189644
H25   H     H_    0.125430 0.054860 0.565219 0.191774
O11   O     O_3   0.565297 0.148980 0.424346 -0.753862
H26   H     H_    0.554152 0.206672 0.377782 0.338657
N13   N     N_3   0.679688 0.113004 0.586708 -0.407417
H27   H     H_    0.733647 0.145288 0.538295 0.262502
H28   H     H_    0.716452 0.112485 0.658088 0.230880
O12   O     O_3   0.832016 0.980529 0.563992 -0.789332
H29   H     H_    0.876012 0.923227 0.560111 0.334698

loop_
_geom_bond_atom_site_label_1
_geom_bond_atom_site_label_2
_ccdc_geom_bond_type
C2    C35   T    
N7    H14   S    
N4    H6    S    
N6    H12   S    
C19   C20   A    
C18   C26   A    
C9    C14   A    
C2    C12   S    
C29   N6    S    
C7    C8    A    
C26   C27   A    
N12   H24   S    
C32   C36   T    
C10   C15   A    
C5    C6    A    
N11   H22   S    
C5    C17   A    
O4    Zn2   S    
N5    H9    S    
C6    O12   S    
C33   C36   S    
C19   N7    S    
C34   C35   S    
N8    H16   S    
C33   N10   S    
C21   H2    S    
C31   C32   S    
C8    C9    A    
O8    Zn2   S    
C22   C25   A    
C18   C30   A    
C1    O2    A    
O9    H10   S    
O7    Zn1   S    
C14   N4    S    
C13   N11   S    
C23   O5    A    
C21   C22   A    
C24   N2    A    
C28   N9    S    
C31   O8    A    
N3    H5    S    
C25   C29   A    
C23   O6    A    
N9    H18   S    
O12   H29   S    
C4    C23   S    
O11   H26   S    
C12   O4    A    
O6    Zn2   S    
C25   C26   A    
C30   H1    S    
C4    C16   A    
N10   H19   S    
C7    N13   S    
C20   C21   A    
C33   C34   D    
C30   N1    A    
C9    C17   A    
N10   H20   S    
O1    Zn1   S    
C15   O11   S    
N11   H23   S    
N12   H25   S    
N13   H28   S    
C31   O7    A    
N4    H7    S    
C3    N12   S    
C22   C24   A    
C20   N8    S    
N3    H4    S    
O3    Zn1   S    
O10   H21   S    
C34   N3    S    
C24   C28   A    
N9    H17   S    
C27   N5    S    
C18   O9    S    
C6    C7    A    
O5    Zn1   S    
C1    C17   S    
C4    C15   A    
C5    H3    S    
N5    H8    S    
C12   O3    A    
C11   C13   A    
O2    Zn2   S    
N1    Zn1   S    
C29   N1    A    
N7    H13   S    
C16   O10   S    
N8    H15   S    
C3    C11   A    
C10   C11   A    
N6    H11   S    
C1    O1    A    
N13   H27   S    
C8    C10   A    
C27   C28   A    
C13   C14   A    
N2    Zn2   S    
C3    C16   A    
C19   N2    A    
