data_mof_unit_31600.cif
_audit_creation_date              2013-03-05T16:00:01-0500
_audit_creation_method            fapswitch 2.2
_symmetry_space_group_name_H-M    P1
_symmetry_Int_Tables_number       1
_space_group_crystal_system       triclinic
_cell_length_a                    26.320075
_cell_length_b                    7.304717
_cell_length_c                    23.584861
_cell_angle_alpha                 90.081488
_cell_angle_beta                  101.319561
_cell_angle_gamma                 89.912304
_cell_volume                      4446.22844817

loop_
_atom_site_label
_atom_site_type_symbol
_atom_site_description
_atom_site_fract_x
_atom_site_fract_y
_atom_site_fract_z
_atom_type_partial_charge
O1    O     O_R   0.192370 0.384760 0.193350 -0.591270
O2    O     O_R   0.807630 0.615240 0.806650 -0.593020
O3    O     O_R   0.307630 0.884760 0.306650 -0.591495
O4    O     O_R   0.692370 0.115240 0.693350 -0.593230
O5    O     O_R   0.296630 0.711620 0.196480 -0.552852
O6    O     O_R   0.703370 0.288380 0.803520 -0.551495
O7    O     O_R   0.203370 0.211620 0.303520 -0.554577
O8    O     O_R   0.796630 0.788380 0.696480 -0.553275
C1    C     C_R   0.312446 0.546067 0.184151 0.951089
C2    C     C_R   0.687866 0.453970 0.816241 0.957458
C3    C     C_R   0.187396 0.046372 0.315647 0.952447
C4    C     C_R   0.812320 0.953671 0.683995 0.958835
O9    O     O_R   0.192080 0.714290 0.186600 -0.579136
O10   O     O_R   0.807920 0.285710 0.813400 -0.588240
O11   O     O_R   0.307920 0.214290 0.313400 -0.579181
O12   O     O_R   0.692080 0.785710 0.686600 -0.588301
O13   O     O_R   0.202340 0.887460 0.296690 -0.578414
O14   O     O_R   0.797660 0.112540 0.703310 -0.576361
O15   O     O_R   0.297660 0.387460 0.203310 -0.579193
O16   O     O_R   0.702340 0.612540 0.796690 -0.577068
C5    C     C_R   0.173825 0.546871 0.171683 0.967461
C6    C     C_R   0.826093 0.453050 0.828521 0.969008
C7    C     C_R   0.326191 0.046845 0.328298 0.966753
C8    C     C_R   0.673911 0.953076 0.671467 0.968145
O17   O     O_3   0.253490 0.552180 0.286130 -0.260403
O18   O     O_3   0.746510 0.447820 0.713870 -0.264257
O19   O     O_3   0.246510 0.052180 0.213870 -0.259515
O20   O     O_3   0.753490 0.947820 0.786130 -0.263087
V1    V     V_3+5 0.249350 0.825920 0.243300 1.253871
V2    V     V_3+5 0.750650 0.174080 0.756700 1.236803
V3    V     V_3+5 0.250650 0.325920 0.256700 1.253674
V4    V     V_3+5 0.749350 0.674080 0.743300 1.236506
C9    C     C_3   0.539349 0.910373 0.475096 0.241911
C10   C     C_3   0.464196 0.060378 0.519272 0.241075
C11   C     C_3   0.960772 0.411038 0.024776 0.241222
C12   C     C_3   0.035887 0.559965 0.980566 0.240668
C13   C     C_3   0.513670 0.095601 0.456514 0.236135
C14   C     C_3   0.489772 0.874769 0.537242 0.219273
C15   C     C_3   0.986426 0.596204 0.043341 0.234968
C16   C     C_3   0.010330 0.374429 0.962606 0.218865
C17   C     C_1   0.372338 0.042354 0.373222 -0.273250
C18   C     C_1   0.628531 0.955443 0.625326 -0.284462
C19   C     C_1   0.127720 0.542426 0.126696 -0.272232
C20   C     C_1   0.871501 0.455402 0.874626 -0.283131
C21   C     C_3   0.485279 0.822588 0.472451 -0.136576
C22   C     C_3   0.518048 0.148753 0.521066 -0.162000
C23   C     C_3   0.014851 0.322787 0.027395 -0.135656
C24   C     C_3   0.982021 0.648810 0.978786 -0.161347
C25   C     C_3   0.459364 0.011099 0.454599 -0.152738
C26   C     C_3   0.543844 0.961032 0.539726 -0.166143
C27   C     C_3   0.040744 0.511218 0.045242 -0.152648
C28   C     C_3   0.956248 0.461149 0.960145 -0.166220
C29   C     C_1   0.411516 0.034806 0.410149 0.174493
C30   C     C_1   0.590428 0.953217 0.586773 0.222442
C31   C     C_1   0.088573 0.534894 0.089721 0.174628
C32   C     C_1   0.909634 0.453246 0.913139 0.222655
C33   C     C_R   0.882993 0.117759 0.647759 -0.135389
C34   C     C_R   0.115405 0.883029 0.349474 -0.152306
C35   C     C_R   0.617604 0.618372 0.853672 -0.150109
C36   C     C_R   0.384232 0.382641 0.149501 -0.167110
H1    H     H_    0.880064 0.224276 0.678948 0.177478
H2    H     H_    0.118799 0.777091 0.318247 0.173918
H3    H     H_    0.620505 0.727015 0.823247 0.178999
H4    H     H_    0.381146 0.275578 0.180403 0.174469
C37   C     C_R   0.919493 0.137204 0.611721 0.175839
C38   C     C_R   0.077845 0.863846 0.384194 0.181679
C39   C     C_R   0.581997 0.638136 0.890741 0.180498
C40   C     C_R   0.420770 0.362117 0.113583 0.186392
C41   C     C_R   0.925001 0.994206 0.572356 0.029358
C42   C     C_R   0.071789 0.006062 0.423588 0.029734
C43   C     C_R   0.576856 0.495397 0.929943 0.031443
C44   C     C_R   0.425961 0.502511 0.073582 0.031323
C45   C     C_R   0.893198 0.839030 0.570150 -0.267413
C46   C     C_R   0.103888 0.160787 0.426898 -0.268491
C47   C     C_R   0.609791 0.342795 0.933026 -0.271280
C48   C     C_R   0.392687 0.654587 0.069266 -0.269395
H5    H     H_    0.896458 0.729568 0.539968 0.163744
H6    H     H_    0.100136 0.269843 0.457044 0.163979
H7    H     H_    0.606960 0.233901 0.963428 0.164200
H8    H     H_    0.395745 0.762276 0.038537 0.164877
C49   C     C_R   0.856231 0.822623 0.605280 0.374016
C50   C     C_R   0.141764 0.177215 0.392929 0.374067
C51   C     C_R   0.646075 0.325574 0.896955 0.367796
C52   C     C_R   0.355761 0.673007 0.104484 0.366586
C53   C     C_R   0.850907 0.962872 0.645185 -0.324619
C54   C     C_R   0.147889 0.037176 0.353296 -0.322196
C55   C     C_R   0.649871 0.463624 0.855805 -0.317300
C56   C     C_R   0.351376 0.536198 0.145766 -0.314351
N1    N     N_R   0.988904 0.843430 0.523717 -0.080427
N2    N     N_R   0.007158 0.156041 0.471312 -0.080444
N3    N     N_R   0.549666 0.437115 0.022946 -0.055949
N4    N     N_R   0.453251 0.558960 0.980638 -0.055092
N5    N     N_R   0.023089 0.844970 0.488824 -0.072677
N6    N     N_R   0.972966 0.154481 0.506192 -0.072691
N7    N     N_R   0.514358 0.437297 0.056514 -0.074594
N8    N     N_R   0.488552 0.558887 0.947091 -0.073212
C57   C     C_R   0.032814 0.001048 0.461637 0.135143
C58   C     C_R   0.963310 0.998505 0.533471 0.136230
C59   C     C_R   0.465276 0.497037 0.035970 0.119700
C60   C     C_R   0.537622 0.499221 0.967628 0.120026
N9    N     N_R   0.528993 0.197216 0.409579 0.240463
O21   O     O_R   0.568209 0.308235 0.420749 -0.365756
O22   O     O_R   0.515007 0.134514 0.357190 -0.398348
N10   N     N_R   0.474269 0.758217 0.580931 0.255420
O23   O     O_R   0.427385 0.693634 0.572741 -0.308055
O24   O     O_R   0.506008 0.726850 0.629556 -0.405782
N11   N     N_R   0.971113 0.698451 0.090275 0.240268
O25   O     O_R   0.931926 0.809925 0.079111 -0.365495
O26   O     O_R   0.985101 0.636097 0.142665 -0.392353
N12   N     N_R   0.025830 0.257293 0.918918 0.255498
O27   O     O_R   0.072740 0.192523 0.927057 -0.307432
O28   O     O_R   0.994027 0.225324 0.870375 -0.402405
N13   N     N_R   0.580689 0.830614 0.449876 0.265549
O29   O     O_R   0.572061 0.786623 0.395395 -0.306516
O30   O     O_R   0.626717 0.807466 0.481208 -0.356819
N14   N     N_R   0.423869 0.141660 0.545776 0.272271
O31   O     O_R   0.432513 0.170260 0.601267 -0.314885
O32   O     O_R   0.379432 0.187756 0.514335 -0.326739
N15   N     N_R   0.919458 0.331886 0.050020 0.265609
O33   O     O_R   0.928127 0.288177 0.104492 -0.304905
O34   O     O_R   0.873413 0.309008 0.018723 -0.355447
N16   N     N_R   0.076199 0.640644 0.954059 0.272319
O35   O     O_R   0.067541 0.668906 0.898571 -0.313091
O36   O     O_R   0.120638 0.686546 0.985495 -0.325584
C61   C     C_3   0.534455 0.325807 0.554592 -0.309724
C62   C     C_3   0.588684 0.391267 0.548587 -0.231521
C63   C     C_3   0.618602 0.472285 0.604935 -0.783410
H9    H     H_    0.595985 0.583672 0.620085 0.271702
H10   H     H_    0.626386 0.365411 0.638894 0.249229
H11   H     H_    0.656130 0.527994 0.598004 0.281136
H12   H     H_    0.612029 0.277446 0.535608 0.245826
H13   H     H_    0.584733 0.497899 0.514621 0.248918
H14   H     H_    0.505479 0.433996 0.540043 0.195787
H15   H     H_    0.533426 0.298624 0.600726 0.238322
C64   C     C_3   0.469211 0.638348 0.442211 -0.317905
C65   C     C_3   0.445213 0.661368 0.377491 -0.257100
C66   C     C_3   0.449669 0.490820 0.341876 -0.763030
H16   H     H_    0.490558 0.471545 0.337695 0.315079
H17   H     H_    0.435356 0.369684 0.362184 0.259387
H18   H     H_    0.425897 0.507781 0.297750 0.212095
H19   H     H_    0.403297 0.691340 0.373063 0.206097
H20   H     H_    0.464125 0.775535 0.358427 0.247976
H21   H     H_    0.504056 0.550531 0.447100 0.220591
H22   H     H_    0.440591 0.569692 0.463880 0.214447
C67   C     C_3   0.965569 0.825691 0.945255 -0.310119
C68   C     C_3   0.911341 0.891709 0.951296 -0.231559
C69   C     C_3   0.881373 0.972402 0.894953 -0.782129
H23   H     H_    0.903956 0.083422 0.879760 0.271624
H24   H     H_    0.873585 0.865241 0.861014 0.249148
H25   H     H_    0.843845 0.028520 0.901911 0.281459
H26   H     H_    0.888029 0.778238 0.964319 0.246002
H27   H     H_    0.915300 0.998672 0.985244 0.249018
H28   H     H_    0.994533 0.933757 0.959773 0.195656
H29   H     H_    0.966575 0.798051 0.899116 0.238524
C70   C     C_3   0.030948 0.138580 0.057565 -0.318113
C71   C     C_3   0.055071 0.161783 0.122250 -0.261247
C72   C     C_3   0.050731 0.991457 0.157832 -0.754578
H30   H     H_    0.009885 0.972645 0.162180 0.314142
H31   H     H_    0.064942 0.870083 0.137382 0.258397
H32   H     H_    0.074646 0.008346 0.201893 0.212685
H33   H     H_    0.096970 0.191480 0.126570 0.206641
H34   H     H_    0.036177 0.276181 0.141408 0.248233
H35   H     H_    0.996097 0.051153 0.052744 0.220465
H36   H     H_    0.059503 0.069412 0.035801 0.214702
C73   C     C_3   0.951762 0.310748 0.617543 -0.426189
C74   C     C_3   0.008318 0.274231 0.646485 -0.285833
C75   C     C_3   0.040287 0.449617 0.650591 -0.768335
H37   H     H_    0.040207 0.504763 0.606689 0.252096
H38   H     H_    0.024248 0.554412 0.676435 0.261561
H39   H     H_    0.080911 0.419927 0.671994 0.268168
H40   H     H_    0.009776 0.219691 0.690767 0.233141
H41   H     H_    0.026092 0.171244 0.621711 0.213981
H42   H     H_    0.949075 0.376803 0.574765 0.205669
H43   H     H_    0.935835 0.413289 0.644322 0.214669
C76   C     C_3   0.044863 0.691986 0.376700 -0.428285
C77   C     C_3   0.988978 0.732323 0.346151 -0.291935
C78   C     C_3   0.956416 0.558055 0.339033 -0.755357
H44   H     H_    0.972930 0.455887 0.312725 0.261881
H45   H     H_    0.955130 0.498148 0.382008 0.249231
H46   H     H_    0.916248 0.590767 0.316730 0.267780
H47   H     H_    0.970680 0.833146 0.371164 0.213648
H48   H     H_    0.989039 0.791193 0.302705 0.230190
H49   H     H_    0.061211 0.589500 0.350257 0.213824
H50   H     H_    0.046030 0.624621 0.419023 0.205667
C79   C     C_3   0.553715 0.819207 0.890105 -0.453675
C80   C     C_3   0.509486 0.834567 0.837342 -0.257961
C81   C     C_3   0.481834 0.018631 0.836668 -0.782138
H51   H     H_    0.464829 0.033891 0.875970 0.254111
H52   H     H_    0.509394 0.132672 0.834960 0.250867
H53   H     H_    0.450166 0.026755 0.797965 0.276261
H54   H     H_    0.525044 0.821300 0.796976 0.222623
H55   H     H_    0.481058 0.722746 0.838177 0.225557
H56   H     H_    0.538665 0.840468 0.930377 0.198337
H57   H     H_    0.581643 0.932418 0.889181 0.228044
C82   C     C_3   0.450273 0.182968 0.116767 -0.453848
C83   C     C_3   0.493902 0.176324 0.170369 -0.267172
C84   C     C_3   0.522475 0.993397 0.174336 -0.764911
H58   H     H_    0.495331 0.878991 0.177284 0.247350
H59   H     H_    0.540196 0.972886 0.135748 0.251121
H60   H     H_    0.553679 0.991879 0.213580 0.279766
H61   H     H_    0.521914 0.288724 0.168404 0.224025
H62   H     H_    0.477631 0.194956 0.210092 0.221642
H63   H     H_    0.422989 0.068216 0.118565 0.227258
H64   H     H_    0.466090 0.158230 0.077180 0.198630
N17   N     N_R   0.823147 0.665651 0.597826 0.235744
O37   O     O_R   0.833321 0.529100 0.633561 -0.416660
O38   O     O_R   0.790907 0.641869 0.549021 -0.345130
N18   N     N_R   0.174829 0.334159 0.401196 0.238402
O39   O     O_R   0.165050 0.471394 0.365671 -0.415106
O40   O     O_R   0.206511 0.357105 0.450431 -0.333464
N19   N     N_R   0.680145 0.170741 0.904874 0.232354
O41   O     O_R   0.671620 0.034349 0.868781 -0.414669
O42   O     O_R   0.711541 0.147779 0.954296 -0.342442
N20   N     N_R   0.321806 0.828075 0.095701 0.235489
O43   O     O_R   0.329962 0.964998 0.131625 -0.411961
O44   O     O_R   0.291239 0.850891 0.045737 -0.330717

loop_
_geom_bond_atom_site_label_1
_geom_bond_atom_site_label_2
_geom_bond_distance
_ccdc_geom_bond_type
C61   H15   1.111873 S    
O17   V3    1.787663 S    
C16   C23   1.556124 S    
C51   C55   1.417723 A    
C25   C29   1.482084 S    
C34   H2    1.083136 S    
C73   C74   1.534063 S    
N18   O40   1.300614 A    
O19   V1    1.789277 S    
C9    C21   1.551844 S    
C22   C61   1.532693 S    
O3    C7    1.342867 A    
C69   H23   1.106909 S    
N4    N8    1.333335 A    
C79   H57   1.110351 S    
C44   C48   1.404904 A    
C11   C23   1.551817 S    
C48   C52   1.403121 A    
C50   N18   1.430218 S    
C67   C68   1.538665 S    
C36   C56   1.407547 A    
O4    V2    1.967366 S    
C64   C65   1.542422 S    
C75   H38   1.111021 S    
C8    C18   1.449447 S    
O1    C5    1.343013 A    
C66   H17   1.107866 S    
O5    C1    1.328625 A    
N9    O21   1.299103 A    
C4    C53   1.496390 S    
O9    V1    1.983599 S    
C71   C72   1.518658 S    
C69   H24   1.108944 S    
C46   C50   1.401488 A    
C68   C69   1.524723 S    
C1    C56   1.496150 S    
O4    C8    1.344316 A    
N7    C59   1.359126 A    
C82   H63   1.110858 S    
N6    C58   1.357886 A    
C43   C60   1.489039 S    
C10   N14   1.458525 S    
C37   C73   1.517977 S    
O1    V3    1.967269 S    
O13   V1    1.981639 S    
N14   O31   1.300285 A    
O2    V4    1.967266 S    
C49   N17   1.430491 S    
C80   H54   1.111784 S    
O3    V1    1.967363 S    
N12   O27   1.300224 A    
C14   C21   1.556213 S    
C65   H20   1.111589 S    
C35   C39   1.408686 A    
C15   C27   1.550324 S    
C5    C19   1.447047 S    
C11   N15   1.458852 S    
C34   C38   1.409260 A    
C72   H30   1.108572 S    
C6    C20   1.449437 S    
C76   C77   1.533874 S    
C2    O16   1.330888 A    
N18   O39   1.300055 A    
C78   H45   1.111180 S    
O2    C6    1.344410 A    
C14   N10   1.456598 S    
N11   O25   1.299091 A    
C83   H61   1.111409 S    
C41   C45   1.404942 A    
C10   C22   1.551359 S    
C62   H13   1.108194 S    
N3    C60   1.359163 A    
N2    C57   1.359162 A    
C39   C43   1.418639 A    
C42   C57   1.490130 S    
C40   C44   1.419227 A    
C67   H28   1.104605 S    
C41   C58   1.490608 S    
O11   C7    1.335620 A    
O15   V3    1.983310 S    
C74   H40   1.111909 S    
O12   C8    1.335352 A    
C43   C47   1.404213 A    
C74   H41   1.109570 S    
C80   H55   1.111355 S    
N11   O26   1.300858 A    
C74   C75   1.526316 S    
O10   V2    1.983599 S    
C34   C54   1.406914 A    
C45   C49   1.401662 A    
N10   O23   1.300220 A    
C1    O15   1.330347 A    
C49   C53   1.415454 A    
N2    N6    1.333193 A    
C75   H39   1.110312 S    
O5    V1    1.999662 S    
N17   O38   1.300608 A    
C77   H47   1.109775 S    
C66   H18   1.111045 S    
C2    C55   1.497214 S    
C21   C64   1.542518 S    
O7    V3    2.002563 S    
C81   H53   1.110305 S    
C52   C56   1.416764 A    
C12   C16   1.535580 S    
C69   H25   1.110316 S    
C35   C55   1.407832 A    
C33   C37   1.409553 A    
C75   H37   1.111183 S    
N20   O43   1.300437 A    
C83   C84   1.526263 S    
C16   N12   1.456584 S    
C82   H64   1.108859 S    
C27   C31   1.482182 S    
C70   H35   1.105825 S    
C9    C26   1.549876 S    
C16   C28   1.547828 S    
N3    N7    1.333891 A    
C9    C13   1.536938 S    
C68   H26   1.110895 S    
O8    V4    2.002562 S    
C84   H60   1.110370 S    
C11   C15   1.536941 S    
C63   H10   1.108953 S    
C42   C46   1.405018 A    
C65   H19   1.109086 S    
C13   C25   1.550291 S    
C20   C32   1.214411 T    
O7    C3    1.328680 A    
N19   O41   1.300334 A    
C21   C25   1.557156 S    
O8    C4    1.328661 A    
C78   H46   1.110316 S    
C24   C67   1.532689 S    
O9    C5    1.335836 A    
C26   C30   1.484486 S    
O11   V3    1.983266 S    
C12   C27   1.547501 S    
C17   C29   1.213371 T    
N15   O34   1.300233 A    
C80   C81   1.526522 S    
C68   H27   1.108201 S    
C67   H29   1.111868 S    
C19   C31   1.213434 T    
C77   C78   1.526237 S    
N19   O42   1.300646 A    
C71   H33   1.109120 S    
C72   H32   1.111049 S    
C61   C62   1.538670 S    
C38   C76   1.517657 S    
C47   H7    1.084065 S    
C83   H62   1.112025 S    
C63   H9    1.106902 S    
N5    C57   1.357899 A    
C70   C71   1.542256 S    
C52   N20   1.431631 S    
C76   H49   1.112449 S    
N13   O29   1.300140 A    
O16   V4    1.983310 S    
C61   H14   1.104606 S    
N17   O37   1.299983 A    
C64   H22   1.110466 S    
C10   C25   1.547495 S    
O6    V2    1.999663 S    
C10   C14   1.535535 S    
C9    N13   1.458854 S    
C48   H8    1.084083 S    
C79   H56   1.109158 S    
C65   C66   1.518751 S    
C3    O13   1.329756 A    
C15   N11   1.455143 S    
C23   C27   1.557183 S    
N15   O33   1.300131 A    
C33   H1    1.082997 S    
N10   O24   1.299854 A    
C14   C26   1.547838 S    
C70   H36   1.110471 S    
O12   V4    1.983265 S    
C66   H16   1.108569 S    
C22   C26   1.554520 S    
C35   H3    1.083458 S    
C7    C17   1.446956 S    
N9    O22   1.300898 A    
N1    C58   1.359276 A    
C36   H4    1.083733 S    
O10   C6    1.335573 A    
C84   H59   1.110982 S    
C73   H43   1.112331 S    
C63   H11   1.110308 S    
C81   H51   1.111021 S    
C12   N16   1.458510 S    
C50   C54   1.414956 A    
C18   C30   1.214418 T    
C13   N9    1.455151 S    
C47   C51   1.403512 A    
C79   C80   1.532207 S    
C38   C42   1.422241 A    
C23   C70   1.542417 S    
C62   H12   1.110889 S    
C62   C63   1.524739 S    
C37   C41   1.422570 A    
N8    C60   1.358661 A    
O20   V2    1.789277 S    
C64   H21   1.105806 S    
N14   O32   1.300092 A    
C12   C24   1.551403 S    
C40   C82   1.515067 S    
N20   O44   1.300642 A    
N1    N5    1.333297 A    
C84   H58   1.111358 S    
N12   O28   1.299841 A    
C81   H52   1.111392 S    
O6    C2    1.328588 A    
C77   H48   1.112096 S    
O14   V2    1.981637 S    
C71   H34   1.111586 S    
C82   C83   1.532731 S    
C28   C32   1.484473 S    
C24   C28   1.554557 S    
C36   C40   1.408517 A    
C72   H31   1.107776 S    
C78   H44   1.111051 S    
C46   H6    1.084242 S    
C4    O14   1.330134 A    
C11   C28   1.549805 S    
N16   O35   1.300278 A    
C45   H5    1.084228 S    
C15   C24   1.552872 S    
C3    C54   1.495655 S    
C13   C22   1.552901 S    
C73   H42   1.108595 S    
N16   O36   1.300098 A    
C33   C53   1.406957 A    
O18   V4    1.787663 S    
C51   N19   1.431762 S    
C39   C79   1.515397 S    
N4    C59   1.359021 A    
C76   H50   1.108498 S    
N13   O30   1.300226 A    
C44   C59   1.489731 S    
