data_mof_unit_54613.cif
_audit_creation_date              2013-03-05T16:10:29-0500
_audit_creation_method            fapswitch 2.2
_symmetry_space_group_name_H-M    P1
_symmetry_Int_Tables_number       1
_space_group_crystal_system       triclinic
_cell_length_a                    10.700122
_cell_length_b                    9.846964
_cell_length_c                    14.914974
_cell_angle_alpha                 89.892596
_cell_angle_beta                  90.165403
_cell_angle_gamma                 90.037986
_cell_volume                      1571.48743755

loop_
_atom_site_label
_atom_site_type_symbol
_atom_site_description
_atom_site_fract_x
_atom_site_fract_y
_atom_site_fract_z
_atom_type_partial_charge
O1    O     O_R   0.316770 0.614620 0.499990 -0.616288
O2    O     O_R   0.683230 0.385380 0.500010 -0.616270
O3    O     O_R   0.683230 0.614620 0.500010 -0.639048
O4    O     O_R   0.316770 0.385380 0.499990 -0.639044
C1    C     C_R   0.259921 0.499983 0.499892 0.905214
C2    C     C_R   0.740079 0.500017 0.500108 0.905241
O5    O     O_R   0.499980 0.614680 0.367850 -0.586441
O6    O     O_R   0.500020 0.385320 0.632150 -0.586434
O7    O     O_R   0.500020 0.614680 0.632150 -0.616576
O8    O     O_R   0.499980 0.385320 0.367850 -0.616571
C3    C     C_R   0.497750 0.500119 0.327170 0.941715
C4    C     C_R   0.502253 0.499881 0.672830 0.941758
Zn1   Zn    Zn3+2 0.500000 0.653120 0.500000 1.003315
Zn2   Zn    Zn3+2 0.500000 0.346880 0.500000 1.003319
C5    C     C_R   0.614614 0.467595 0.813997 0.284839
C6    C     C_R   0.385396 0.532410 0.186003 0.284864
C7    C     C_R   0.504596 0.499750 0.768031 -0.181133
C8    C     C_R   0.495411 0.500248 0.231969 -0.181132
C9    C     C_R   0.395674 0.536121 0.811919 -0.219724
C10   C     C_R   0.604329 0.463864 0.188082 -0.219713
C11   C     C_R   0.392818 0.540833 0.904854 0.018459
C12   C     C_R   0.607185 0.459151 0.095147 0.018457
C13   C     C_R   0.501447 0.501906 0.953166 0.008395
C14   C     C_R   0.498557 0.498082 0.046834 0.008391
C15   C     C_R   0.612950 0.466439 0.907681 -0.034541
C16   C     C_R   0.387055 0.533554 0.092319 -0.034541
C17   C     C_R   0.283109 0.579453 0.950475 0.290663
C18   C     C_R   0.716892 0.420527 0.049526 0.290668
C19   C     C_R   0.281007 0.573546 0.043627 -0.167130
C20   C     C_R   0.718996 0.426439 0.956374 -0.167132
H1    H     H_    0.313122 0.558093 0.772293 0.196455
H2    H     H_    0.686880 0.441886 0.227707 0.196456
H3    H     H_    0.196695 0.605150 0.077663 0.236599
H4    H     H_    0.803306 0.394829 0.922338 0.236595
C21   C     C_R   0.063819 0.380661 0.477900 -0.124710
C22   C     C_R   0.936180 0.619339 0.522099 -0.124718
C23   C     C_R   0.935831 0.380625 0.478107 -0.132744
C24   C     C_R   0.064169 0.619375 0.521892 -0.132748
H5    H     H_    0.112554 0.288136 0.460032 0.161671
H6    H     H_    0.887446 0.711864 0.539967 0.161670
H7    H     H_    0.886820 0.288050 0.460392 0.167109
H8    H     H_    0.113180 0.711950 0.539607 0.167111
C25   C     C_R   0.872514 0.499987 0.500156 -0.008148
C26   C     C_R   0.127485 0.500012 0.499843 -0.008153
C27   C     C_R   0.584018 0.071824 0.550869 -0.043451
C28   C     C_R   0.415982 0.928176 0.449131 -0.043441
C29   C     C_R   0.415991 0.072024 0.449116 -0.053524
C30   C     C_R   0.584009 0.927976 0.550883 -0.053528
H9    H     H_    0.651233 0.126173 0.591523 0.177331
H10   H     H_    0.348766 0.873826 0.408477 0.177341
H11   H     H_    0.348823 0.126563 0.408409 0.146518
H12   H     H_    0.651177 0.873436 0.591591 0.146514
N1    N     N_R   0.500000 0.857200 0.500000 -0.093926
N2    N     N_R   0.500000 0.142800 0.500000 -0.093925
N3    N     N_R   0.727401 0.439425 0.765403 0.178310
O9    O     O_R   0.735764 0.331308 0.715817 -0.399034
O10   O     O_R   0.821561 0.522788 0.770181 -0.347959
N4    N     N_R   0.272618 0.560613 0.234599 0.178309
O11   O     O_R   0.264246 0.668802 0.284121 -0.398998
O12   O     O_R   0.178466 0.477230 0.229869 -0.348002
N5    N     N_R   0.174311 0.628458 0.903809 0.212666
O13   O     O_R   0.184375 0.728316 0.847004 -0.365194
O14   O     O_R   0.063477 0.591317 0.929891 -0.299741
N6    N     N_R   0.825689 0.371518 0.096191 0.212662
O15   O     O_R   0.815621 0.271659 0.152996 -0.365197
O16   O     O_R   0.936524 0.408658 0.070112 -0.299754

loop_
_geom_bond_atom_site_label_1
_geom_bond_atom_site_label_2
_geom_bond_distance
_ccdc_geom_bond_type
C4    C7    1.420075 S    
C23   C25   1.397284 A    
O5    Zn1   2.007726 S    
C21   H5    1.084146 S    
C13   C14   1.397925 A    
C3    C8    1.420070 S    
C24   C26   1.397284 A    
C30   N1    1.366351 A    
C17   C19   1.390717 A    
C28   H10   1.081455 S    
Zn1   N1    2.009568 S    
O3    Zn1   1.997145 S    
C10   H2    1.083108 S    
C27   H9    1.081455 S    
O6    C4    1.282074 A    
O3    C2    1.282345 A    
C9    H1    1.083108 S    
N6    O15   1.301376 A    
N3    O9    1.300720 A    
C18   C20   1.390716 A    
C11   C17   1.411326 A    
O4    Zn2   1.997147 S    
C12   C18   1.411324 A    
C5    N3    1.437001 S    
O5    C3    1.282076 A    
C21   C26   1.396960 A    
O2    C2    1.281940 A    
C29   N2    1.366354 A    
O1    C1    1.281941 A    
C5    C7    1.396821 A    
C18   N6    1.437828 S    
C28   N1    1.366456 A    
C22   C24   1.369502 A    
Zn2   N2    2.009568 S    
C1    C26   1.417072 S    
C10   C12   1.387411 A    
C27   N2    1.366455 A    
C24   H8    1.084108 S    
C6    N4    1.436994 S    
C8    C10   1.385964 A    
C2    C25   1.417072 S    
N3    O10   1.301050 A    
C11   C13   1.418421 A    
C23   H7    1.084108 S    
N5    O13   1.301376 A    
O2    Zn2   1.996652 S    
O7    C4    1.282163 A    
C12   C14   1.418422 A    
C5    C15   1.397480 A    
O1    Zn1   1.996654 S    
O8    C3    1.282160 A    
C20   H4    1.082602 S    
N4    O12   1.301068 A    
C19   H3    1.082604 S    
C22   H6    1.084147 S    
C13   C15   1.418383 A    
C21   C23   1.369503 A    
C16   C19   1.401744 A    
C6    C8    1.396809 A    
O8    Zn2   2.006333 S    
C27   C30   1.416467 A    
C15   C20   1.401747 A    
N5    O14   1.301179 A    
O7    Zn1   2.006331 S    
C28   C29   1.416467 A    
C22   C25   1.396960 A    
O6    Zn2   2.007725 S    
C17   N5    1.437829 S    
C7    C9    1.385964 A    
N4    O11   1.300750 A    
C30   H12   1.081841 S    
C29   H11   1.081841 S    
C14   C16   1.418382 A    
O4    C1    1.282344 A    
C9    C11   1.387411 A    
C6    C16   1.397474 A    
N6    O16   1.301180 A    
