data_mof_unit_18573.cif
_audit_creation_date              2012-10-26T20:58:17-0400
_audit_creation_method            fapswitch 2.2
_symmetry_space_group_name_H-M    P1
_symmetry_Int_Tables_number       1
_space_group_crystal_system       triclinic
_cell_length_a                    10.583798
_cell_length_b                    14.592233
_cell_length_c                    15.072124
_cell_angle_alpha                 64.861503
_cell_angle_beta                  102.936369
_cell_angle_gamma                 102.862095
_cell_volume                      2032.23782857

loop_
_atom_site_label
_atom_site_type_symbol
_atom_type_description
_atom_site_fract_x
_atom_site_fract_y
_atom_site_fract_z
_atom_type_partial_charge
C1    C     C_R   0.484701 0.121628 0.313124 0.544782
C2    C     C_R   0.567543 0.534594 0.941062 0.000958
C3    C     C_R   0.494767 0.490932 0.875108 -0.114942
C4    C     C_R   0.691173 0.515430 0.100215 -0.135390
C5    C     C_R   0.469909 0.384594 0.902649 0.013333
C6    C     C_R   0.694238 0.618273 0.081379 0.012729
C7    C     C_R   0.743393 0.297282 0.645401 -0.013092
C8    C     C_R   0.265000 0.711443 0.342107 -0.014187
C9    C     C_R   0.695061 0.208437 0.626625 0.057946
C10   C     C_R   0.308219 0.795348 0.369544 0.065863
C11   C     C_R   0.512144 0.281841 0.517074 0.003594
C12   C     C_R   0.531244 0.879935 0.685862 0.539317
C13   C     C_R   0.488511 0.718719 0.479437 0.016247
C14   C     C_R   0.547807 0.370990 0.537074 -0.020963
C15   C     C_R   0.455096 0.633530 0.452864 -0.020110
C16   C     C_R   0.259776 0.999890 0.500847 0.555800
C17   C     C_R   0.740236 0.000054 0.499344 0.544605
C18   C     C_R   0.671300 0.381438 0.595533 0.019857
C19   C     C_R   0.334248 0.625955 0.391415 0.020690
C20   C     C_R   0.470943 0.453430 0.493788 0.002554
C21   C     C_R   0.532338 0.552140 0.491946 0.003864
C22   C     C_R   0.667716 0.564909 0.530809 -0.003011
C23   C     C_R   0.536364 0.301897 0.178410 0.002782
C24   C     C_R   0.335628 0.442424 0.452123 -0.003100
C25   C     C_R   0.726261 0.478476 0.594656 -0.118433
C26   C     C_R   0.279401 0.530493 0.388364 -0.114544
C27   C     C_3   0.020679 0.026097 0.408391 0.016858
C28   C     C_3   0.979347 0.974105 0.592198 0.014967
C29   C     C_3   0.968766 0.094664 0.442483 -0.121456
C30   C     C_3   0.031243 0.905434 0.558175 -0.122140
C31   C     C_3   0.876748 0.999885 0.499307 0.034850
C32   C     C_3   0.123321 0.000181 0.501239 0.034458
C33   C     C_3   0.926756 0.931723 0.464133 -0.119535
C34   C     C_R   0.595574 0.712344 0.812424 0.003733
C35   C     C_3   0.073372 0.068409 0.536436 -0.119002
C36   C     C_R   0.493812 0.193567 0.208229 0.001687
C37   C     C_R   0.569709 0.811823 0.788935 -0.002145
C38   C     C_R   0.458891 0.213686 0.037105 -0.150635
C39   C     C_R   0.631730 0.785478 0.961550 -0.150945
C40   C     C_R   0.461938 0.151766 0.136772 -0.162933
C41   C     C_R   0.587321 0.847263 0.864555 -0.164143
C42   C     C_3   0.872775 0.305481 0.713102 -0.297166
C43   C     C_3   0.935685 0.207604 0.769379 -0.462249
C44   C     C_3   0.145386 0.711078 0.263893 -0.299512
C45   C     C_R   0.549895 0.363733 0.076023 0.022954
C46   C     C_3   0.104633 0.816244 0.196608 -0.461591
C47   C     C_3   0.757673 0.666732 0.494775 -0.288238
C48   C     C_3   0.878685 0.658971 0.459425 -0.446419
C49   C     C_3   0.242568 0.341555 0.483907 -0.291441
C50   C     C_3   0.117598 0.349961 0.514125 -0.446344
C51   C     C_3   0.049133 0.055498 0.303943 -0.272651
C52   C     C_3   0.925248 0.075423 0.228129 -0.443106
C53   C     C_3   0.950612 0.946059 0.696305 -0.272670
C54   C     C_3   0.072969 0.922584 0.773083 -0.444684
C55   C     C_3   0.407760 0.338886 0.825937 -0.283930
C56   C     C_R   0.599081 0.642342 0.912152 0.037586
C57   C     C_3   0.390786 0.414556 0.717893 -0.444377
C58   C     C_3   0.756555 0.656330 0.162551 -0.283939
C59   C     C_3   0.652790 0.659957 0.216739 -0.438372
C60   C     C_3   0.657131 0.692232 0.740475 -0.266381
C61   C     C_3   0.783952 0.645223 0.788690 -0.453394
C62   C     C_3   0.543542 0.353413 0.250051 -0.241477
C63   C     C_3   0.675457 0.349761 0.320219 -0.405271
C64   C     C_R   0.495132 0.320254 0.004634 0.036410
C65   C     C_R   0.640052 0.682327 0.986487 0.049187
C66   C     C_R   0.603080 0.470042 0.040454 -0.000453
Cu1   Cu    Cu3+1 0.465750 0.918270 0.475680 0.905292
Cu2   Cu    Cu3+1 0.534250 0.081730 0.524320 0.889990
H1    H     H_    0.940074 0.171483 0.395095 0.103814
H2    H     H_    0.431886 0.070264 0.157382 0.130030
H3    H     H_    0.423697 0.176371 0.985935 0.101667
H4    H     H_    0.655624 0.818596 0.016239 0.112993
H5    H     H_    0.453704 0.540114 0.802804 0.124013
H6    H     H_    0.751492 0.470364 0.164010 0.120638
H7    H     H_    0.823519 0.490491 0.633227 0.107966
H8    H     H_    0.182818 0.521070 0.347712 0.105857
H9    H     H_    0.866924 0.144941 0.815140 0.144732
H10   H     H_    0.965931 0.184163 0.717026 0.136829
H11   H     H_    0.024859 0.222053 0.819512 0.139611
H12   H     H_    0.059583 0.828534 0.605649 0.109533
H13   H     H_    0.945106 0.364856 0.668063 0.137912
H14   H     H_    0.855823 0.330361 0.769178 0.146216
H15   H     H_    0.058099 0.844326 0.237612 0.135177
H16   H     H_    0.190569 0.872060 0.166828 0.146718
H17   H     H_    0.032445 0.810354 0.132745 0.134718
H18   H     H_    0.167528 0.679525 0.214582 0.144810
H19   H     H_    0.061100 0.660155 0.300914 0.134071
H20   H     H_    0.927204 0.736633 0.416554 0.134729
H21   H     H_    0.850576 0.615473 0.411104 0.155492
H22   H     H_    0.951179 0.620698 0.523363 0.142931
H23   H     H_    0.571271 0.723621 0.534371 0.115956
H24   H     H_    0.706286 0.724770 0.430148 0.144410
H25   H     H_    0.790358 0.695043 0.555089 0.132006
H26   H     H_    0.141952 0.389534 0.565810 0.154346
H27   H     H_    0.049964 0.391813 0.448322 0.138586
H28   H     H_    0.064478 0.272513 0.551855 0.135015
H29   H     H_    0.214463 0.314551 0.422489 0.134033
H30   H     H_    0.289276 0.282344 0.550326 0.143427
H31   H     H_    0.851091 0.005514 0.245557 0.150172
H32   H     H_    0.883346 0.138960 0.227771 0.153675
H33   H     H_    0.949326 0.096955 0.153142 0.135135
H34   H     H_    0.430830 0.275484 0.461464 0.125158
H35   H     H_    0.123175 0.125433 0.284314 0.138888
H36   H     H_    0.090098 0.992472 0.302473 0.142740
H37   H     H_    0.110595 0.856819 0.774171 0.151795
H38   H     H_    0.150419 0.990372 0.756068 0.151210
H39   H     H_    0.048548 0.902647 0.847637 0.135199
H40   H     H_    0.913097 0.010742 0.697472 0.143571
H41   H     H_    0.873813 0.878212 0.715407 0.140927
H42   H     H_    0.316218 0.463734 0.704124 0.141798
H43   H     H_    0.485737 0.462293 0.697743 0.162387
H44   H     H_    0.356225 0.370885 0.670158 0.155521
H45   H     H_    0.256333 0.860574 0.337715 0.133855
H46   H     H_    0.470953 0.284851 0.830971 0.144391
H47   H     H_    0.309836 0.295364 0.843695 0.137448
H48   H     H_    0.573311 0.701892 0.163927 0.152729
H49   H     H_    0.609034 0.581343 0.261545 0.155588
H50   H     H_    0.698530 0.699818 0.266922 0.141359
H51   H     H_    0.826857 0.605627 0.217540 0.127058
H52   H     H_    0.814194 0.733193 0.131221 0.136513
H53   H     H_    0.850759 0.688920 0.830026 0.154428
H54   H     H_    0.763317 0.564049 0.839777 0.164866
H55   H     H_    0.834811 0.647528 0.730746 0.124247
H56   H     H_    0.746869 0.143136 0.660019 0.135776
H57   H     H_    0.587698 0.643834 0.705917 0.133857
H58   H     H_    0.686040 0.765006 0.678837 0.156679
H59   H     H_    0.666963 0.296166 0.396824 0.203461
H60   H     H_    0.713204 0.425809 0.323313 0.111703
H61   H     H_    0.750046 0.325235 0.296748 0.131263
H62   H     H_    0.523361 0.433270 0.209794 0.135683
H63   H     H_    0.459244 0.321375 0.291827 0.146568
H64   H     H_    0.863241 0.878459 0.432368 0.114007
H65   H     H_    0.137146 0.121744 0.568094 0.113294
H66   H     H_    0.573859 0.924641 0.847959 0.130256
N1    N     N_R   0.585750 0.204560 0.560800 -0.263397
N2    N     N_R   0.414250 0.795440 0.439200 -0.247761
O1    O     O_R   0.454850 0.022100 0.338110 -0.510474
O2    O     O_R   0.545150 0.977900 0.661890 -0.507171
O3    O     O_R   0.512700 0.160150 0.379180 -0.513956
O4    O     O_R   0.487300 0.839850 0.620820 -0.505759
O5    O     O_R   0.287930 0.931000 0.479440 -0.507743
O6    O     O_R   0.712070 0.069000 0.520560 -0.518199
O7    O     O_R   0.345780 0.069050 0.520520 -0.508084
O8    O     O_R   0.654220 0.930950 0.479480 -0.517419

loop_
_geom_bond_atom_site_label_1
_geom_bond_atom_site_label_2
_ccdc_geom_bond_type
C30   C32   S    
C34   C56   A    
C23   C45   A    
C27   C29   S    
C34   C37   A    
C47   H24   S    
C6    C58   S    
Cu2   O2    S    
C42   H14   S    
C35   H65   S    
C39   C41   A    
C53   C54   S    
C27   C33   S    
C43   H10   S    
C15   C19   A    
C42   H13   S    
C40   H2    S    
C54   H39   S    
C17   O8    A    
C60   H57   S    
C38   C40   A    
C10   N2    A    
C11   C14   A    
C50   H27   S    
C57   H44   S    
C51   H35   S    
C56   C65   A    
C17   O6    A    
C9    H56   S    
Cu2   O7    S    
C61   H53   S    
C7    C42   S    
C12   C37   S    
C19   C26   A    
C14   C18   A    
C49   H30   S    
C6    C65   A    
C20   C24   A    
C28   C35   S    
C27   C51   S    
C59   H48   S    
C22   C25   A    
C26   H8    S    
C39   H4    S    
C12   O4    A    
Cu2   O6    S    
C44   H19   S    
C4    H6    S    
C63   H60   S    
C1    O3    A    
C46   H17   S    
C30   H12   S    
C22   C47   S    
C16   O5    A    
C59   H49   S    
C48   H22   S    
C21   C22   A    
C13   H23   S    
C34   C60   S    
C39   C65   A    
C18   C25   A    
C44   H18   S    
Cu1   O8    S    
C58   H52   S    
C41   H66   S    
C44   C46   S    
C29   H1    S    
C23   C62   S    
C52   H33   S    
C8    C19   A    
C31   C33   S    
C54   H38   S    
Cu1   Cu2   S    
C32   C35   S    
C14   C20   A    
C36   C40   A    
C16   O7    A    
C4    C6    A    
Cu2   N1    S    
C50   H26   S    
C3    C5    A    
C58   C59   S    
C52   H32   S    
C51   C52   S    
C5    C64   A    
C61   H54   S    
C25   H7    S    
C62   C63   S    
C11   N1    A    
C47   C48   S    
C7    C18   A    
C48   H20   S    
C47   H25   S    
Cu1   O4    S    
C10   H45   S    
C46   H16   S    
C9    N1    A    
C33   H64   S    
C49   C50   S    
C59   H50   S    
C48   H21   S    
C13   C15   A    
C17   C31   S    
C13   N2    A    
C12   O2    A    
C16   C32   S    
C42   C43   S    
Cu1   O5    S    
C1    O1    A    
C53   H41   S    
C24   C49   S    
C7    C9    A    
C38   H3    S    
C45   C64   A    
C30   C33   S    
C27   C32   S    
C62   H63   S    
C5    C55   S    
C28   C31   S    
C8    C44   S    
C24   C26   A    
C2    C66   A    
C28   C53   S    
C57   H42   S    
C55   H46   S    
C43   H9    S    
C29   C35   S    
C52   H31   S    
C62   H62   S    
C61   H55   S    
C55   C57   S    
Cu1   N2    S    
C51   H36   S    
C28   C30   S    
C29   C31   S    
C2    C56   A    
C4    C66   A    
C53   H40   S    
C50   H28   S    
C57   H43   S    
C55   H47   S    
C54   H37   S    
C60   H58   S    
C58   H51   S    
C2    C3    A    
C11   H34   S    
C63   H61   S    
C37   C41   A    
C3    H5    S    
C49   H29   S    
C46   H15   S    
C15   C21   A    
C20   C21   A    
C8    C10   A    
C23   C36   A    
C45   C66   A    
C38   C64   A    
C60   C61   S    
Cu2   O3    S    
Cu1   O1    S    
C43   H11   S    
C63   H59   S    
C1    C36   S    
