data_mof_unit_14462.cif
_audit_creation_date              2012-12-10T18:06:44-0500
_audit_creation_method            fapswitch 2.2
_symmetry_space_group_name_H-M    P1
_symmetry_Int_Tables_number       1
_space_group_crystal_system       triclinic
_cell_length_a                    12.611263
_cell_length_b                    13.273051
_cell_length_c                    15.481734
_cell_angle_alpha                 84.007343
_cell_angle_beta                  100.082916
_cell_angle_gamma                 96.523659
_cell_volume                      2525.46308279

loop_
_atom_site_label
_atom_site_type_symbol
_atom_type_description
_atom_site_fract_x
_atom_site_fract_y
_atom_site_fract_z
_atom_type_partial_charge
C1    C     C_R   0.444986 0.308522 0.511857 0.855784
C2    C     C_R   0.464153 0.558744 0.099530 0.093277
C3    C     C_R   0.377436 0.617587 0.064086 0.178180
C4    C     C_R   0.541139 0.543172 0.047336 0.066062
C5    C     C_R   0.518128 0.567982 0.955468 0.081721
C6    C     C_R   0.430289 0.626098 0.920945 -0.230825
C7    C     C_R   0.362680 0.652500 0.975181 -0.242624
C8    C     C_R   0.641425 0.505895 0.084417 -0.231660
C9    C     C_R   0.711843 0.483320 0.031261 -0.224251
C10   C     C_R   0.681706 0.492104 0.940115 0.144806
C11   C     C_R   0.583659 0.532940 0.901578 0.094257
C12   C     C_R   0.435703 0.515788 0.335882 0.864178
C13   C     C_R   0.746681 0.457087 0.887293 -0.270280
C14   C     C_R   0.711387 0.454048 0.796727 0.206085
C15   C     C_R   0.549593 0.529987 0.811089 -0.315385
C16   C     C_R   0.726926 0.939046 0.502809 -0.207781
C17   C     C_R   0.588354 0.799236 0.482291 -0.059350
C18   C     C_R   0.299596 0.170474 0.484272 -0.233823
C19   C     C_R   0.267346 0.077744 0.449580 -0.212378
C20   C     C_R   0.344186 0.013111 0.440613 0.215355
C21   C     C_R   0.454731 0.034899 0.480855 0.038422
C22   C     C_R   0.486576 0.129182 0.517039 0.048289
C23   C     C_R   0.555540 0.690995 0.488931 0.862712
C24   C     C_R   0.535734 0.967885 0.485300 0.072628
C25   C     C_R   0.646957 0.002382 0.507820 0.172464
C26   C     C_R   0.676008 0.095006 0.543460 -0.252653
C27   C     C_R   0.595960 0.152814 0.555198 -0.185845
C28   C     C_R   0.508879 0.864599 0.478675 -0.227489
C29   C     C_R   0.697099 0.837647 0.487168 -0.213954
C30   C     C_R   0.409596 0.199920 0.511035 -0.110292
C31   C     C_R   0.144640 0.625618 0.637608 -0.301587
C32   C     C_R   0.756530 0.371599 0.403805 0.027163
C33   C     C_R   0.850430 0.328666 0.399823 -0.279303
C34   C     C_R   0.566165 0.488145 0.664155 0.868765
C35   C     C_R   0.947689 0.369339 0.445946 -0.147755
C36   C     C_R   0.951701 0.456687 0.492208 0.017393
C37   C     C_R   0.853468 0.489585 0.502406 0.173673
C38   C     C_R   0.048763 0.510552 0.530290 -0.064676
C39   C     C_R   0.046847 0.577425 0.596050 0.059516
C40   C     C_R   0.947353 0.598536 0.615894 0.159447
C41   C     C_R   0.852010 0.559958 0.563689 -0.236345
C42   C     C_R   0.147316 0.505398 0.501323 0.300495
C43   C     C_R   0.240695 0.609554 0.612089 -0.031405
C44   C     C_R   0.404414 0.542127 0.241418 -0.052406
C45   C     C_R   0.610452 0.489220 0.758515 -0.109913
C46   C     C_R   0.307786 0.641578 0.118707 -0.210411
C47   C     C_R   0.323862 0.606956 0.207833 -0.206390
C48   C     C_R   0.470111 0.514966 0.185870 -0.255681
H1    H     H_    0.297400 0.698599 0.947065 0.143674
H2    H     H_    0.822714 0.427591 0.916817 0.138789
H3    H     H_    0.759322 0.788028 0.486396 0.162358
H4    H     H_    0.759939 0.119441 0.567824 0.148358
H5    H     H_    0.426577 0.832667 0.479330 0.194550
H6    H     H_    0.239306 0.223327 0.481187 0.160484
H7    H     H_    0.472115 0.554586 0.780992 0.171185
H8    H     H_    0.147850 0.676478 0.688452 0.157538
H9    H     H_    0.679515 0.338878 0.370777 0.139024
H10   H     H_    0.017958 0.329439 0.447087 0.159344
H11   H     H_    0.777091 0.582122 0.573750 0.228194
H12   H     H_    0.243574 0.689811 0.093240 0.135362
H13   H     H_    0.276245 0.633848 0.250422 0.156796
H14   H     H_    0.414779 0.655814 0.852813 0.142033
H15   H     H_    0.668689 0.496450 0.154642 0.151306
N1    N     N_R   0.239390 0.551900 0.544730 -0.124199
N2    N     N_R   0.759950 0.448600 0.455730 -0.124059
O1    O     O_R   0.374950 0.371210 0.521360 -0.631660
O2    O     O_R   0.542050 0.338030 0.492790 -0.614733
O3    O     O_R   0.368720 0.526070 0.390200 -0.617867
O4    O     O_R   0.535820 0.492890 0.361630 -0.616429
O5    O     O_R   0.457950 0.661970 0.507210 -0.619243
O6    O     O_R   0.625050 0.628790 0.478640 -0.638411
O7    O     O_R   0.464180 0.507110 0.638370 -0.619083
O8    O     O_R   0.631280 0.473930 0.609800 -0.602527
Zn1   Zn    Zn3+2 0.388420 0.522150 0.519080 0.925119
Zn2   Zn    Zn3+2 0.611580 0.477850 0.480920 0.930375
H16   H     H_    0.812054 0.966176 0.515997 0.139659
N3    N     N_2   0.310501 0.933369 0.383917 -0.330698
H17   H     H_    0.229924 0.906258 0.379734 0.221753
C49   C     C_3   0.343388 0.953354 0.298298 -0.787124
H18   H     H_    0.319104 0.885224 0.260776 0.238091
H19   H     H_    0.432614 0.970025 0.304948 0.256152
H20   H     H_    0.303699 0.018934 0.260935 0.238891
H21   H     H_    0.183032 0.060620 0.421698 0.139850
H22   H     H_    0.621417 0.217863 0.592634 0.174351
H23   H     H_    0.316803 0.644223 0.645045 0.140440
N4    N     N_2   0.945816 0.658848 0.687314 -0.305506
H24   H     H_    0.991060 0.633749 0.746142 0.219002
C50   C     C_3   0.847619 0.699955 0.697283 -0.802679
H25   H     H_    0.865518 0.750679 0.751747 0.242660
H26   H     H_    0.785909 0.637964 0.713563 0.240821
H27   H     H_    0.816003 0.745837 0.636404 0.247960
N5    N     N_2   0.149936 0.463329 0.421285 -0.327748
H28   H     H_    0.214868 0.423973 0.419863 0.268034
C51   C     C_3   0.115988 0.528574 0.342820 -0.779992
H29   H     H_    0.129509 0.494026 0.283839 0.235786
H30   H     H_    0.161823 0.604882 0.346796 0.240228
H31   H     H_    0.028455 0.537915 0.335748 0.247383
H32   H     H_    0.847552 0.262888 0.363312 0.150792
N6    N     N_2   0.776425 0.413032 0.745449 -0.282591
H33   H     H_    0.857460 0.438273 0.759898 0.225216
C52   C     C_3   0.759404 0.303509 0.745579 -0.767149
H34   H     H_    0.801218 0.278607 0.695205 0.234864
H35   H     H_    0.671676 0.278329 0.729918 0.234659
H36   H     H_    0.792632 0.267170 0.811216 0.227592
H37   H     H_    0.787763 0.454297 0.061729 0.145693
H38   H     H_    0.527224 0.460082 0.211607 0.151118

loop_
_geom_bond_atom_site_label_1
_geom_bond_atom_site_label_2
_ccdc_geom_bond_type
C12   O4    A    
C52   H34   S    
C34   O7    A    
C17   C29   A    
C35   C36   A    
C4    C8    A    
C14   N6    S    
N3    H17   S    
C12   O3    A    
C26   C27   A    
C17   C23   S    
C31   C43   A    
C20   N3    S    
C35   H10   S    
C36   C37   A    
C38   C42   A    
C3    C7    A    
C5    C6    A    
N4    C50   S    
C9    H37   S    
O1    Zn1   S    
C18   C19   A    
C40   N4    S    
N5    H28   S    
C33   C35   A    
C11   C15   A    
C48   H38   S    
C33   H32   S    
C8    C9    A    
C37   N2    A    
O5    Zn1   S    
C18   C30   A    
C31   H8    S    
C9    C10   A    
C44   C47   A    
C52   H35   S    
C21   C22   A    
O8    Zn2   S    
C23   O5    A    
C32   H9    S    
C19   H21   S    
C43   N1    A    
C14   C45   A    
N3    C49   S    
C43   H23   S    
C23   O6    A    
C24   C25   A    
C41   H11   S    
O7    Zn1   S    
C39   C40   A    
C49   H19   S    
N4    H24   S    
C34   O8    A    
C51   H31   S    
C2    C48   A    
C16   C29   A    
C13   H2    S    
C15   H7    S    
C2    C4    A    
C26   H4    S    
N6    H33   S    
C50   H27   S    
N5    C51   S    
C1    O1    A    
C34   C45   S    
C50   H25   S    
C51   H30   S    
C7    H1    S    
C40   C41   A    
N6    C52   S    
C50   H26   S    
C52   H36   S    
C22   C27   A    
O2    Zn2   S    
C15   C45   A    
C42   N1    A    
C29   H3    S    
C16   C25   A    
C46   C47   A    
C27   H22   S    
C22   C30   A    
C46   H12   S    
C16   H16   S    
C17   C28   A    
C24   C28   A    
C4    C5    A    
C10   C13   A    
C47   H13   S    
C49   H20   S    
C28   H5    S    
C5    C11   A    
C6    C7    A    
C3    C46   A    
N2    Zn2   S    
C32   C33   A    
C6    H14   S    
C19   C20   A    
C36   C38   A    
C2    C3    A    
C25   C26   A    
C12   C44   S    
O6    Zn2   S    
C38   C39   A    
C1    C30   S    
C1    O2    A    
C31   C39   A    
O4    Zn2   S    
C42   N5    S    
C37   C41   A    
C51   H29   S    
C10   C11   A    
C18   H6    S    
C8    H15   S    
C49   H18   S    
C20   C21   A    
C21   C24   A    
N1    Zn1   S    
C13   C14   A    
O3    Zn1   S    
C44   C48   A    
C32   N2    A    
