data_mof_unit_66769.cif
_audit_creation_date              2013-03-05T15:40:48-0500
_audit_creation_method            fapswitch 2.2
_symmetry_space_group_name_H-M    P1
_symmetry_Int_Tables_number       1
_space_group_crystal_system       triclinic
_cell_length_a                    8.323717
_cell_length_b                    12.778833
_cell_length_c                    15.312627
_cell_angle_alpha                 94.94436
_cell_angle_beta                  99.716113
_cell_angle_gamma                 98.091701
_cell_volume                      1579.29814983

loop_
_atom_site_label
_atom_site_type_symbol
_atom_site_description
_atom_site_fract_x
_atom_site_fract_y
_atom_site_fract_z
_atom_type_partial_charge
P1    P     P_3+3 0.998660 0.747790 0.570900 0.423209
O1    O     O_2   0.168170 0.764170 0.543850 -0.373519
O2    O     O_3   0.898670 0.629780 0.545890 -0.368239
O3    O     O_3   0.365980 0.695510 0.380810 -0.418835
O4    O     O_2   0.287345 0.879427 0.434010 -0.395962
O5    O     O_3   0.074111 0.765291 0.686290 -0.699981
O6    O     O_3   0.356134 0.867226 0.274871 -0.497655
H1    H     H_    0.253304 0.712065 0.225119 0.143700
C1    C     C_3   0.297644 0.803510 0.119168 -0.845353
H2    H     H_    0.180539 0.836838 0.112378 0.263134
H3    H     H_    0.394951 0.862193 0.101740 0.303382
P2    P     P_3+3 0.306970 0.411860 0.294270 0.577219
P3    P     P_3+3 0.883529 0.630717 0.220021 0.541588
O7    O     O_2   0.136040 0.444100 0.280280 -0.282566
O8    O     O_3   0.934510 0.640480 0.335500 -0.336114
O9    O     O_2   0.008061 0.571047 0.179943 -0.346315
O10   O     O_3   0.258434 0.273792 0.271709 -0.479847
O11   O     O_3   0.925462 0.759734 0.192525 -0.532064
C2    C     C_3   0.828443 0.823081 0.234004 0.405410
H4    H     H_    0.786320 0.792573 0.293645 0.035813
H5    H     H_    0.717588 0.829919 0.184943 0.149823
C3    C     C_3   0.929865 0.931684 0.264519 -0.837294
H6    H     H_    0.856528 0.984848 0.295867 0.234801
H7    H     H_    0.038860 0.923174 0.314383 0.270644
C4    C     C_3   0.716503 0.237944 0.240365 1.066298
C5    C     C_3   0.758958 0.159181 0.167511 -0.181104
H8    H     H_    0.737083 0.188859 0.102052 0.117464
H9    H     H_    0.891725 0.152281 0.184822 0.168100
Ba1   Ba    Ba6+2 0.153570 0.551840 0.456200 1.621421
C6    C     C_3   0.949402 0.756971 0.737880 0.916010
H10   H     H_    0.828625 0.724298 0.695813 0.059761
C7    C     C_3   0.936948 0.867476 0.780657 0.034170
H11   H     H_    0.887175 0.910274 0.725806 0.024349
H12   H     H_    0.061938 0.912589 0.809124 0.077807
C8    C     C_3   0.234447 0.224606 0.347367 0.397944
H13   H     H_    0.102708 0.218804 0.352384 0.049912
H14   H     H_    0.313404 0.265126 0.410187 0.113848
C9    C     C_3   0.277173 0.113793 0.333373 -0.776332
H15   H     H_    0.214140 0.074253 0.266791 0.274351
H16   H     H_    0.241966 0.065894 0.385773 0.206592
H17   H     H_    0.411190 0.119303 0.335310 0.293740
P4    P     P_3+3 0.811620 0.252200 0.429030 0.530377
O12   O     O_2   0.642110 0.235770 0.456130 -0.366908
O13   O     O_3   0.911620 0.370210 0.454030 -0.345543
O14   O     O_3   0.444310 0.304480 0.619110 -0.375467
O15   O     O_3   0.772268 0.192174 0.318042 -0.658022
P5    P     P_3+3 0.926449 0.371727 0.782221 0.501772
O16   O     O_3   0.400800 0.556680 0.607590 -0.415120
O17   O     O_3   0.875770 0.359510 0.664420 -0.340202
O18   O     O_2   0.802476 0.436133 0.817525 -0.340348
O19   O     O_3   0.863713 0.244573 0.811415 -0.549084
Ba2   Ba    Ba6+2 0.656590 0.448150 0.543720 1.640194
P6    P     P_3+3 0.411053 0.833466 0.383316 0.440482
C10   C     C_3   0.347915 0.776982 0.213922 0.552078
H18   H     H_    0.469195 0.748919 0.220298 -0.041030
H19   H     H_    0.279387 0.730185 0.071822 0.208550
O20   O     O_3   0.409490 0.443300 0.392340 -0.408307
C11   C     C_3   0.476547 0.783493 0.669390 0.315797
H20   H     H_    0.474231 0.744071 0.601465 0.131816
H21   H     H_    0.352553 0.781985 0.684509 0.158164
C12   C     C_3   0.551371 0.899037 0.671042 -0.892526
H22   H     H_    0.589966 0.937876 0.740269 0.282563
H23   H     H_    0.656953 0.905277 0.635727 0.212480
H24   H     H_    0.459450 0.941480 0.635082 0.255747
P7    P     P_3+3 0.504614 0.598189 0.718305 0.515016
O21   O     O_2   0.674250 0.555830 0.719690 -0.284083
O22   O     O_3   0.566575 0.736137 0.736167 -0.514537
H25   H     H_    0.970469 0.966635 0.206483 0.272753
C13   C     C_3   0.967518 0.223452 0.888255 0.141022
H26   H     H_    0.964631 0.136455 0.884584 0.156490
H27   H     H_    0.098451 0.258183 0.893753 0.121484
C14   C     C_3   0.903662 0.250797 0.972468 -0.177321
H28   H     H_    0.890686 0.336034 0.981905 0.160888
H29   H     H_    0.780710 0.204265 0.967732 0.147353
P8    P     P_3+3 0.397229 0.166022 0.611407 0.442893
C15   C     C_3   0.345128 0.192307 0.776467 0.990851
O23   O     O_2   0.533765 0.119948 0.570717 -0.377622
O24   O     O_3   0.421957 0.128825 0.720169 -0.610883
H30   H     H_    0.309944 0.265003 0.748024 -0.150167
C16   C     C_3   0.468626 0.230377 0.863329 0.122435
H31   H     H_    0.431997 0.302420 0.895328 0.044523
H32   H     H_    0.593288 0.256059 0.849440 0.122060
C17   C     C_R   0.084964 0.183786 0.523070 -0.553351
C18   C     C_R   0.725150 0.818867 0.475733 -0.488420
C19   C     C_R   0.688792 0.996358 0.440589 -0.153168
C20   C     C_R   0.625748 0.888150 0.437597 0.225700
C21   C     C_R   0.889636 0.853494 0.516188 0.200207
C22   C     C_R   0.957903 0.963895 0.514470 -0.052025
C23   C     C_R   0.853547 0.037869 0.480698 -0.052003
C24   C     C_R   0.918914 0.150317 0.487336 0.303113
C25   C     C_R   0.188952 0.111833 0.549629 0.203849
C26   C     C_R   0.126592 0.003086 0.544204 -0.225472
H33   H     H_    0.607953 0.046640 0.410472 0.189500
H34   H     H_    0.207404 0.952275 0.573348 0.180622
H35   H     H_    0.135308 0.267494 0.529374 0.164575
H36   H     H_    0.672415 0.736260 0.474633 0.168985
C27   C     C_R   0.242681 0.474632 0.770696 -0.434455
C28   C     C_R   0.141435 0.439388 0.829158 0.246968
C29   C     C_R   0.201805 0.458977 0.921635 -0.361652
C30   C     C_R   0.361923 0.515041 0.957436 -0.033130
C31   C     C_R   0.452272 0.563821 0.895508 0.181798
C32   C     C_R   0.396025 0.537756 0.802426 0.114690
C33   C     C_R   0.603299 0.552921 0.089273 -0.193028
C34   C     C_R   0.667575 0.570270 0.180199 0.263659
C35   C     C_R   0.409235 0.486934 0.212748 0.283472
C36   C     C_R   0.336374 0.486766 0.121867 -0.330673
C37   C     C_R   0.432606 0.520749 0.057306 0.075918
C38   C     C_R   0.568979 0.540481 0.241767 -0.397398
H37   H     H_    0.690360 0.564119 0.045231 0.184935
H38   H     H_    0.121549 0.430739 0.964888 0.158761
H39   H     H_    0.206488 0.460071 0.103097 0.222458
H40   H     H_    0.620447 0.552551 0.312289 0.181831
H41   H     H_    0.196964 0.458517 0.699608 0.174016
N1    N     N_R   0.663193 0.052545 0.159305 0.240405
O25   O     O_R   0.681888 0.981369 0.097639 -0.453264
O26   O     O_R   0.561829 0.026650 0.212736 -0.381558
O27   O     O_3   0.981468 0.687277 0.803806 -0.569908
C39   C     C_3   0.143650 0.713705 0.854063 -0.082486
H42   H     H_    0.173068 0.796495 0.886649 0.085975
H43   H     H_    0.236549 0.700273 0.812282 0.127114
H44   H     H_    0.155142 0.662705 0.908726 0.164143
O28   O     O_3   0.824427 0.861497 0.840535 -0.556973
C40   C     C_3   0.904767 0.893689 0.929408 0.074796
H45   H     H_    0.998700 0.966123 0.936171 0.112813
H46   H     H_    0.960675 0.827842 0.958528 0.153705
H47   H     H_    0.811111 0.912817 0.968962 0.201539
N2    N     N_R   0.014282 0.222194 0.047669 0.228693
O29   O     O_R   0.043651 0.125115 0.050530 -0.445903
O30   O     O_R   0.069954 0.290946 0.116837 -0.397892
O31   O     O_3   0.207464 0.131740 0.801037 -0.663583
C41   C     C_3   0.077717 0.103233 0.728313 -0.278802
H48   H     H_    0.096664 0.028425 0.694740 0.152483
H49   H     H_    0.059200 0.168850 0.686869 0.156608
H50   H     H_    0.959498 0.082675 0.750197 0.185784
O32   O     O_3   0.469525 0.154011 0.925485 -0.616099
C42   C     C_3   0.521768 0.060146 0.892446 -0.043513
H51   H     H_    0.628413 0.076411 0.857901 0.124337
H52   H     H_    0.417672 0.007015 0.847863 0.170578
H53   H     H_    0.560836 0.015911 0.948928 0.192182
N3    N     N_R   0.583507 0.651363 0.925266 0.233177
O33   O     O_R   0.559825 0.733330 0.975266 -0.435579
O34   O     O_R   0.728798 0.647579 0.905775 -0.327219
O35   O     O_3   0.544050 0.240403 0.229476 -0.626695
C43   C     C_3   0.472052 0.247128 0.139190 -0.109393
H54   H     H_    0.443464 0.167434 0.100193 0.211240
H55   H     H_    0.546704 0.304496 0.105824 0.108343
H56   H     H_    0.353631 0.275136 0.135756 0.229761
N4    N     N_R   0.805193 0.344878 0.239624 0.183464
O36   O     O_R   0.805037 0.417319 0.304037 -0.371592
O37   O     O_R   0.832502 0.376318 0.164253 -0.446893

loop_
_geom_bond_atom_site_label_1
_geom_bond_atom_site_label_2
_geom_bond_distance
_ccdc_geom_bond_type
P1    C21   1.906184 S    
C6    C7    1.529244 S    
C21   C22   1.449026 A    
C31   C32   1.418000 A    
C16   H31   1.110083 S    
P2    Ba1   3.453328 S    
C12   H24   1.099499 S    
C14   H29   1.096550 S    
C19   H33   1.070686 S    
C2    H4    1.113522 S    
C18   C21   1.396425 A    
C41   H50   1.096960 S    
N2    O30   1.291408 A    
N1    O25   1.297896 A    
C40   H45   1.109618 S    
P5    O17   1.769817 S    
C19   C20   1.402211 A    
C5    H8    1.097747 S    
P5    C28   1.868040 S    
P3    O11   1.739116 S    
O1    Ba1   2.898735 S    
O4    P6    1.539242 D    
C2    H5    1.106113 S    
C15   O24   1.421902 S    
O11   C2    1.406914 S    
C42   H53   1.101990 S    
C18   H36   1.082267 S    
C6    H10   1.103086 S    
O3    P6    1.745679 S    
O12   Ba2   2.899128 S    
C40   H46   1.108284 S    
C36   C37   1.432095 A    
C11   H21   1.093159 S    
O35   C43   1.425900 S    
C27   C28   1.389879 A    
O2    Ba1   2.953391 S    
P1    O1    1.528149 D    
P4    O15   1.760880 S    
C13   H27   1.103740 S    
C39   H42   1.105914 S    
C15   O31   1.414095 S    
C22   C26   1.405925 A    
P7    O22   1.749755 S    
P2    O10   1.744319 S    
C27   C32   1.396144 A    
C15   H30   1.114326 S    
P6    C20   1.849255 S    
O16   P7    1.767406 S    
C1    H2    1.110237 S    
O3    Ba1   2.823078 S    
P8    C25   1.837253 S    
O19   C13   1.407513 S    
O13   Ba2   2.954303 S    
C11   C12   1.515917 S    
C4    O35   1.422010 S    
P4    O13   1.597844 S    
P7    C32   1.854869 S    
C43   H56   1.089746 S    
C26   H34   1.069951 S    
C31   N3    1.432643 S    
O8    Ba1   2.797960 S    
P5    O18   1.544400 D    
C36   H39   1.068746 S    
C9    H15   1.107273 S    
C35   C38   1.387698 A    
Ba1   O16   2.818132 S    
P1    O5    1.756206 S    
C7    O28   1.416161 S    
O32   C42   1.414322 S    
C2    C3    1.510738 S    
N4    O36   1.293517 A    
C9    H17   1.102988 S    
C16   H32   1.104674 S    
H1    C10   1.106307 S    
C25   C26   1.403550 A    
C19   C23   1.412104 A    
C43   H54   1.108742 S    
C40   H47   1.105360 S    
P5    O19   1.754399 S    
C14   N2    1.454930 S    
O14   Ba2   2.822426 S    
C11   H20   1.111820 S    
C29   H38   1.066680 S    
C38   H40   1.081668 S    
P1    O2    1.597827 S    
C39   H44   1.104112 S    
C7    H12   1.113331 S    
C13   C14   1.507802 S    
C5    N1    1.462523 S    
P8    O23   1.546166 D    
C29   C30   1.416679 A    
P2    O7    1.522257 D    
O17   Ba2   2.798558 S    
C17   H35   1.082366 S    
C8    C9    1.514202 S    
P1    Ba1   3.454380 S    
C1    H19   1.110104 S    
N3    O33   1.301159 A    
P3    C34   1.832377 S    
C16   O32   1.420575 S    
C3    H25   1.109394 S    
P2    O20   1.584832 S    
C43   H55   1.108194 S    
O5    C6    1.404671 S    
Ba1   O20   2.952775 S    
P7    O21   1.579315 D    
C1    H3    1.107288 S    
Ba1   O13   2.844704 S    
C3    H7    1.107333 S    
P4    O12   1.528503 D    
O6    P6    1.753680 S    
O7    Ba1   2.888746 S    
C27   H41   1.082406 S    
C41   H48   1.090000 S    
C34   C38   1.393672 A    
Ba2   O21   2.888937 S    
C42   H52   1.110235 S    
C17   C24   1.389478 A    
C10   H18   1.109921 S    
C30   C37   1.534639 S    
C8    H14   1.109201 S    
C12   H23   1.104197 S    
C15   C16   1.532537 S    
N4    O37   1.299185 A    
C14   H28   1.109150 S    
C41   H49   1.106653 S    
C12   H22   1.105760 S    
N1    O26   1.300709 A    
O2    Ba2   2.845343 S    
N3    O34   1.299918 A    
C6    O27   1.419318 S    
C17   C25   1.389147 A    
C35   C36   1.420813 A    
C5    H9    1.109917 S    
C33   H37   1.073710 S    
O14   P8    1.746785 S    
C7    H11   1.096228 S    
P3    O8    1.736739 S    
O31   C41   1.397329 S    
C4    C5    1.556302 S    
O27   C39   1.415935 S    
C9    H16   1.103577 S    
P2    C35   1.881070 S    
C30   C31   1.436663 A    
C4    N4    1.460798 S    
C13   H26   1.104947 S    
P8    O24   1.757903 S    
C39   H43   1.105502 S    
Ba2   O20   2.817368 S    
C11   O22   1.396076 S    
O16   Ba2   2.951856 S    
C22   C23   1.441998 A    
C1    C10   1.521511 S    
C28   C29   1.408450 A    
P3    O9    1.545673 D    
C33   C34   1.391359 A    
O28   C40   1.409712 S    
C3    H6    1.106364 S    
C18   C20   1.393449 A    
C33   C37   1.411886 A    
C8    H13   1.104702 S    
O10   C8    1.394771 S    
O6    C10   1.405813 S    
P4    C24   1.883713 S    
C23   C24   1.451635 A    
C4    O15   1.407944 S    
C42   H51   1.111980 S    
N2    O29   1.300695 A    
P4    Ba2   3.454861 S    
Ba1   Ba2   4.615027 S    
