data_mof_unit_51370.cif
_audit_creation_date              2012-10-26T17:16:17-0400
_audit_creation_method            fapswitch 2.2
_symmetry_space_group_name_H-M    P1
_symmetry_Int_Tables_number       1
_space_group_crystal_system       triclinic
_cell_length_a                    23.60825
_cell_length_b                    30.682182
_cell_length_c                    19.369008
_cell_angle_alpha                 89.776308
_cell_angle_beta                  126.909592
_cell_angle_gamma                 90.521843
_cell_volume                      11217.6719536

loop_
_atom_site_label
_atom_site_type_symbol
_atom_type_description
_atom_site_fract_x
_atom_site_fract_y
_atom_site_fract_z
_atom_type_partial_charge
C1    C     C_R   0.693976 0.809501 0.881210 0.615117
C2    C     C_R   0.291473 0.123127 0.187646 -0.076391
C3    C     C_R   0.698051 0.157099 0.629029 0.259628
C4    C     C_R   0.133194 0.326007 0.576735 0.272804
C5    C     C_R   0.747514 0.620526 0.308139 0.226945
C6    C     C_R   0.725524 0.396162 0.267638 0.236298
C7    C     C_R   0.185695 0.662088 0.617012 0.253936
C8    C     C_R   0.599515 0.859081 0.587845 -0.134992
C9    C     C_R   0.288869 0.053363 0.246647 -0.121915
C10   C     C_R   0.283031 0.916188 0.279983 -0.107047
C11   C     C_R   0.642995 0.132052 0.617446 -0.123887
C12   C     C_R   0.098458 0.358512 0.587547 -0.134891
C13   C     C_R   0.310515 0.854559 0.227743 -0.078540
C14   C     C_R   0.818624 0.613126 0.345705 -0.121427
C15   C     C_R   0.784097 0.417550 0.282352 -0.116354
C16   C     C_R   0.134546 0.634751 0.609828 -0.132299
C17   C     C_R   0.617327 0.868658 0.669803 -0.126632
C18   C     C_R   0.328240 0.088622 0.247392 -0.110874
C19   C     C_R   0.331253 0.895008 0.271112 -0.107269
C20   C     C_R   0.637276 0.126339 0.685412 -0.111707
C21   C     C_R   0.116871 0.368424 0.669669 -0.126364
C22   C     C_R   0.845535 0.617329 0.297658 -0.107144
C23   C     C_R   0.830319 0.396282 0.270101 -0.106111
C24   C     C_R   0.681552 0.151313 0.760846 -0.067035
C25   C     C_R   0.133051 0.628034 0.680984 -0.110877
C26   C     C_3   0.557679 0.860813 0.861950 0.030425
C27   C     C_3   0.546938 0.868490 0.931249 -0.238586
C28   C     C_3   0.472469 0.854827 0.899367 -0.483190
C29   C     C_3   0.466795 0.163026 0.177115 0.037007
C30   C     C_3   0.533570 0.185671 0.198790 -0.248183
C31   C     C_3   0.561036 0.163881 0.153541 -0.485835
C32   C     C_3   0.480692 0.833388 0.193606 0.029412
C33   C     C_3   0.522405 0.842062 0.157729 -0.243682
C34   C     C_3   0.588372 0.813828 0.201057 -0.495694
C35   C     C_R   0.162259 0.340270 0.739553 -0.064783
C36   C     C_3   0.625907 0.104218 0.930153 0.043255
C37   C     C_3   0.608066 0.112866 0.992763 -0.251637
C38   C     C_3   0.645152 0.080714 0.067793 -0.476684
C39   C     C_3   0.059902 0.362370 0.865284 0.029492
C40   C     C_3   0.051885 0.369703 0.936988 -0.238656
C41   C     C_3   0.977812 0.356790 0.907577 -0.482131
C42   C     C_3   0.949332 0.646340 0.140719 0.031172
C43   C     C_3   0.017123 0.658338 0.151194 -0.242360
C44   C     C_3   0.019062 0.637333 0.081428 -0.481933
C45   C     C_3   0.978106 0.328639 0.197146 0.027565
C46   C     C_R   0.803829 0.639073 0.217417 -0.078432
C47   C     C_3   0.022879 0.333208 0.164513 -0.248428
C48   C     C_3   0.081919 0.299558 0.205457 -0.491012
C49   C     C_3   0.138151 0.599087 0.935775 0.046456
C50   C     C_3   0.125977 0.605583 0.004077 -0.256540
C51   C     C_3   0.166507 0.572279 0.076682 -0.479496
C52   C     C_3   0.803579 0.791255 0.678475 0.029452
C53   C     C_3   0.820612 0.840809 0.693540 -0.305437
C54   C     C_3   0.896843 0.849945 0.726985 -0.466015
C55   C     C_3   0.091831 0.129934 0.146863 0.022409
C56   C     C_3   0.021303 0.120503 0.131244 -0.246686
C57   C     C_R   0.808509 0.355815 0.226376 -0.078248
C58   C     C_3   0.002537 0.156534 0.168246 -0.456471
C59   C     C_3   0.181624 0.816182 0.317432 0.026330
C60   C     C_3   0.130599 0.781950 0.309710 -0.249893
C61   C     C_3   0.151215 0.768835 0.398122 -0.475132
C62   C     C_3   0.814891 0.237900 0.740013 0.040537
C63   C     C_3   0.781722 0.262570 0.655125 -0.275539
C64   C     C_3   0.792934 0.311667 0.670252 -0.491113
C65   C     C_3   0.299886 0.287578 0.675555 0.028460
C66   C     C_3   0.318370 0.336970 0.688894 -0.304891
C67   C     C_3   0.394397 0.344794 0.720419 -0.462768
C68   C     C_R   0.177619 0.653673 0.755540 -0.067059
C69   C     C_3   0.610141 0.671057 0.206472 0.036656
C70   C     C_3   0.543153 0.658627 0.197594 -0.245556
C71   C     C_3   0.519625 0.695048 0.228336 -0.461861
C72   C     C_3   0.690352 0.316264 0.328744 0.044974
C73   C     C_3   0.646240 0.278210 0.324604 -0.260815
C74   C     C_3   0.672144 0.263631 0.414583 -0.479471
C75   C     C_3   0.296670 0.746429 0.721683 0.041567
C76   C     C_3   0.261823 0.771180 0.636625 -0.276768
C77   C     C_3   0.268639 0.820376 0.651135 -0.490527
C78   C     C_3   0.647962 0.832750 0.467882 0.000114
C79   C     C_R   0.663548 0.843395 0.814177 -0.003633
C80   C     C_3   0.639869 0.882485 0.457257 -0.283452
C81   C     C_3   0.672059 0.900682 0.414382 -0.450914
C82   C     C_3   0.175239 0.034042 0.284023 0.028067
C83   C     C_3   0.240464 0.020248 0.373391 -0.272754
C84   C     C_3   0.229150 0.027055 0.442283 -0.465737
C85   C     C_3   0.103969 0.917047 0.185015 0.032385
C86   C     C_3   0.097999 0.929419 0.103568 -0.265947
C87   C     C_3   0.020749 0.934160 0.025269 -0.459114
C88   C     C_3   0.725627 0.128110 0.544653 0.045969
C89   C     C_3   0.731622 0.138488 0.472009 -0.242073
C90   C     C_R   0.332955 0.155455 0.181690 -0.008718
C91   C     C_3   0.755389 0.098840 0.448451 -0.475852
C92   C     C_3   0.144385 0.328598 0.466048 0.000834
C93   C     C_3   0.138568 0.378313 0.454263 -0.283735
C94   C     C_3   0.171038 0.394278 0.410314 -0.448492
C95   C     C_3   0.696505 0.569093 0.339336 0.014338
C96   C     C_3   0.672120 0.558638 0.394893 -0.258303
C97   C     C_3   0.642069 0.512389 0.377976 -0.478293
C98   C     C_3   0.619493 0.430046 0.206850 0.012613
C99   C     C_3   0.629239 0.471614 0.170496 -0.291822
C100  C     C_3   0.558276 0.492025 0.100123 -0.455839
C101  C     C_R   0.340987 0.842345 0.186100 0.001440
C102  C     C_3   0.215266 0.636036 0.532831 0.045240
C103  C     C_3   0.222072 0.648614 0.461633 -0.237906
C104  C     C_3   0.249080 0.610709 0.438302 -0.468955
C105  C     C_R   0.302693 0.190452 0.117702 0.608750
C106  C     C_R   0.663151 0.155777 0.817702 0.004288
C107  C     C_R   0.163546 0.343436 0.814324 -0.002317
C108  C     C_R   0.838785 0.656640 0.184090 0.000061
C109  C     C_R   0.839570 0.342686 0.185717 -0.000388
C110  C     C_R   0.163570 0.655890 0.816968 0.002340
C111  C     C_R   0.627327 0.877505 0.820829 0.243809
C112  C     C_R   0.407312 0.153023 0.235064 0.254456
C113  C     C_R   0.396471 0.867149 0.197385 0.256072
C114  C     C_R   0.610181 0.129397 0.808582 0.240252
C115  C     C_R   0.128048 0.377847 0.821424 0.243468
C116  C     C_R   0.307856 0.809230 0.118747 0.610654
C117  C     C_R   0.910684 0.647816 0.224568 0.251873
C118  C     C_R   0.895899 0.366867 0.197765 0.255017
C119  C     C_R   0.114300 0.627400 0.811758 0.238747
C120  C     C_R   0.596129 0.910450 0.758936 0.214170
C121  C     C_R   0.442205 0.122105 0.300425 0.222831
C122  C     C_R   0.424885 0.902769 0.253941 0.218906
C123  C     C_R   0.572524 0.099993 0.739835 0.238490
C124  C     C_R   0.096775 0.410693 0.759337 0.214594
C125  C     C_R   0.947121 0.618982 0.294235 0.239209
C126  C     C_R   0.924627 0.402587 0.253900 0.219905
C127  C     C_R   0.693329 0.190446 0.882005 0.632907
C128  C     C_R   0.075787 0.598270 0.742726 0.237308
C129  C     C_R   0.589771 0.905624 0.682657 -0.021323
C130  C     C_R   0.403301 0.089556 0.306659 -0.011801
C131  C     C_R   0.396679 0.914382 0.297893 -0.022461
C132  C     C_R   0.588162 0.096869 0.679806 -0.020159
C133  C     C_R   0.089813 0.405611 0.682701 -0.020971
C134  C     C_R   0.913058 0.600907 0.327750 -0.022546
C135  C     C_R   0.896174 0.414959 0.297137 -0.022105
C136  C     C_R   0.087860 0.596806 0.679411 -0.021177
C137  C     C_R   0.057712 0.561091 0.616278 0.578295
C138  C     C_R   0.193839 0.309511 0.881238 0.612430
C139  C     C_R   0.936531 0.444257 0.373608 0.570719
C140  C     C_R   0.943847 0.562972 0.387483 0.560996
C141  C     C_R   0.058915 0.440458 0.618879 0.593588
C142  C     C_R   0.557732 0.061172 0.616282 0.592924
C143  C     C_R   0.436646 0.944009 0.373892 0.559512
C144  C     C_R   0.439843 0.058717 0.379046 0.578925
C145  C     C_R   0.558955 0.940519 0.618976 0.596168
C146  C     C_R   0.641646 0.750373 0.999414 0.567513
C147  C     C_R   0.359206 0.248849 0.002443 0.590238
C148  C     C_R   0.359257 0.751663 0.002614 0.596621
C149  C     C_R   0.806535 0.690499 0.118236 0.608805
C150  C     C_R   0.641888 0.249598 0.999837 0.589457
C151  C     C_R   0.141197 0.250872 0.998455 0.566525
C152  C     C_R   0.859263 0.748803 0.002564 0.597431
C153  C     C_R   0.858910 0.251327 0.001849 0.595416
C154  C     C_R   0.141995 0.749691 0.000056 0.587272
C155  C     C_1   0.580972 0.750575 0.999880 0.014802
C156  C     C_1   0.420177 0.248869 0.002511 0.030153
C157  C     C_1   0.420143 0.752245 0.002462 0.023181
C158  C     C_1   0.581456 0.249276 0.000764 0.024376
C159  C     C_1   0.080383 0.250967 0.998659 0.011269
C160  C     C_R   0.806881 0.309273 0.118702 0.614059
C161  C     C_1   0.920317 0.748829 0.002803 0.031260
C162  C     C_1   0.919324 0.251687 0.000785 0.015247
C163  C     C_1   0.081633 0.749366 0.001124 0.026638
C164  C     C_1   0.530284 0.751032 0.000738 -0.031409
C165  C     C_1   0.471058 0.249062 0.002015 -0.020382
C166  C     C_1   0.470901 0.751814 0.001736 -0.031029
C167  C     C_1   0.530652 0.249172 0.001402 -0.020811
C168  C     C_1   0.029488 0.251017 0.999106 -0.041337
C169  C     C_1   0.971261 0.749055 0.002427 -0.025854
C170  C     C_1   0.969930 0.251371 0.999750 -0.042834
C171  C     C_R   0.193630 0.690453 0.881851 0.635056
C172  C     C_1   0.030872 0.749213 0.001852 -0.019496
C173  C     C_R   0.705695 0.811939 0.731219 0.213696
C174  C     C_R   0.215575 0.122720 0.138462 0.191553
C175  C     C_R   0.257026 0.830058 0.223871 0.216534
C176  C     C_R   0.743893 0.169543 0.777594 0.195548
C177  C     C_R   0.204609 0.311316 0.730880 0.215101
C178  C     C_R   0.729770 0.643069 0.176262 0.211333
C179  C     C_R   0.755012 0.331743 0.223468 0.212309
C180  C     C_R   0.236436 0.674502 0.767208 0.197783
C181  C     C_R   0.693368 0.806560 0.650436 0.335640
C182  C     C_R   0.662776 0.840503 0.739683 -0.065718
C183  C     C_R   0.180760 0.092985 0.157543 0.321184
C184  C     C_R   0.213399 0.850336 0.240579 0.286723
C185  C     C_R   0.749891 0.175115 0.710086 0.322322
C186  C     C_R   0.191089 0.305076 0.649650 0.334147
C187  C     C_R   0.702259 0.634916 0.222368 0.299471
C188  C     C_R   0.715042 0.351857 0.246113 0.301234
C189  C     C_R   0.237983 0.681332 0.696512 0.321974
C190  C     C_R   0.635522 0.827397 0.577386 0.273159
C191  C     C_R   0.217713 0.057394 0.210186 0.259205
C192  C     C_R   0.221618 0.895301 0.258731 0.240590
Cl1   Cl    Cl    0.781487 0.788071 0.821195 -0.638506
Cl2   Cl    Cl    0.535423 0.126716 0.374971 -0.628191
Cl3   Cl    Cl    0.488434 0.935970 0.257835 -0.606885
Cl4   Cl    Cl    0.503801 0.069509 0.729934 -0.500072
Cl5   Cl    Cl    0.066865 0.458020 0.779797 -0.517196
Cl6   Cl    Cl    0.037491 0.609766 0.342025 -0.625029
Cl7   Cl    Cl    0.989979 0.434452 0.259208 -0.588690
Cl8   Cl    Cl    0.010088 0.566053 0.736358 -0.489381
Cl9   Cl    Cl    0.158160 0.151657 0.043683 -0.576021
Cl10  Cl    Cl    0.251476 0.772773 0.217342 -0.580089
Cl11  Cl    Cl    0.822122 0.171363 0.883724 -0.612322
Cl12  Cl    Cl    0.281241 0.288200 0.821073 -0.636363
Cl13  Cl    Cl    0.667106 0.648319 0.063773 -0.545098
Cl14  Cl    Cl    0.745725 0.274757 0.211568 -0.591475
Cl15  Cl    Cl    0.317011 0.678416 0.870737 -0.599798
Cl16  Cl    Cl    0.565286 0.957499 0.778999 -0.521517
Cu1   Cu    Cu3+1 0.719090 0.719080 0.938180 1.077525
Cu2   Cu    Cu3+1 0.055800 0.500000 0.500010 1.005877
Cu3   Cu    Cu3+1 0.444200 1.000000 0.499990 0.994058
Cu4   Cu    Cu3+1 0.555800 1.000000 0.500010 0.987386
Cu5   Cu    Cu3+1 0.280910 0.280920 0.061820 1.013548
Cu6   Cu    Cu3+1 0.280910 0.719080 0.061820 1.008573
Cu7   Cu    Cu3+1 0.719090 0.280920 0.938180 0.986178
Cu8   Cu    Cu3+1 0.219090 0.219080 0.938180 1.087770
Cu9   Cu    Cu3+1 0.780910 0.780920 0.061820 0.998141
Cu10  Cu    Cu3+1 0.780910 0.219080 0.061820 1.006552
Cu11  Cu    Cu3+1 0.219090 0.780920 0.938180 0.981329
Cu12  Cu    Cu3+1 0.944200 0.500000 0.499990 1.019883
H1    H     H_    0.556636 0.875852 0.530733 0.148830
H2    H     H_    0.512565 0.875959 0.800682 0.162556
H3    H     H_    0.598824 0.699321 0.163992 0.148801
H4    H     H_    0.651772 0.681214 0.274633 0.151951
H5    H     H_    0.499649 0.651053 0.128885 0.205860
H6    H     H_    0.553587 0.628956 0.236603 0.172649
H7    H     H_    0.562827 0.704047 0.296279 0.158066
H8    H     H_    0.472919 0.683956 0.224528 0.167595
H9    H     H_    0.504280 0.724034 0.186542 0.144533
H10   H     H_    0.686323 0.344289 0.361823 0.165174
H11   H     H_    0.746758 0.305612 0.367403 0.147402
H12   H     H_    0.589815 0.288005 0.287092 0.182654
H13   H     H_    0.586696 0.849604 0.990073 0.166904
H14   H     H_    0.650041 0.250395 0.291051 0.191407
H15   H     H_    0.727936 0.252584 0.452379 0.150307
H16   H     H_    0.638812 0.236067 0.409054 0.201722
H17   H     H_    0.668431 0.290845 0.449301 0.149912
H18   H     H_    0.353018 0.756934 0.766740 0.167947
H19   H     H_    0.271279 0.755445 0.753058 0.142006
H20   H     H_    0.287449 0.761951 0.605943 0.184025
H21   H     H_    0.204772 0.762127 0.592090 0.186411
H22   H     H_    0.242477 0.830439 0.680688 0.156446
H23   H     H_    0.242741 0.837326 0.588288 0.151397
H24   H     H_    0.554797 0.903660 0.948575 0.206424
H25   H     H_    0.325359 0.830299 0.694148 0.150418
H26   H     H_    0.626747 0.818240 0.404114 0.145489
H27   H     H_    0.704376 0.823299 0.510940 0.155316
H28   H     H_    0.582793 0.890605 0.417344 0.224520
H29   H     H_    0.666762 0.898350 0.521360 0.149410
H30   H     H_    0.728976 0.892044 0.452595 0.131786
H31   H     H_    0.667468 0.936738 0.410596 0.183372
H32   H     H_    0.643474 0.887597 0.347869 0.170580
H33   H     H_    0.128423 0.015637 0.269337 0.164700
H34   H     H_    0.164132 0.069073 0.285145 0.115980
H35   H     H_    0.432346 0.875752 0.844581 0.162799
H36   H     H_    0.251677 0.985330 0.372349 0.201692
H37   H     H_    0.287151 0.039850 0.391056 0.175889
H38   H     H_    0.218795 0.061952 0.445557 0.156130
H39   H     H_    0.277419 0.017121 0.506208 0.174836
H40   H     H_    0.183694 0.006978 0.427549 0.152457
H41   H     H_    0.072111 0.940605 0.191757 0.147187
H42   H     H_    0.079138 0.884772 0.176805 0.180333
H43   H     H_    0.126390 0.960572 0.114299 0.232736
H44   H     H_    0.122358 0.903786 0.088962 0.154663
H45   H     H_    0.991378 0.903117 0.012715 0.159669
H46   H     H_    0.467340 0.858503 0.952341 0.156086
H47   H     H_    0.018088 0.942380 0.967503 0.164157
H48   H     H_    0.995198 0.960657 0.036231 0.167841
H49   H     H_    0.688380 0.100074 0.524349 0.162649
H50   H     H_    0.779018 0.118984 0.603458 0.153695
H51   H     H_    0.679383 0.149289 0.413898 0.207243
H52   H     H_    0.770434 0.165518 0.492649 0.168984
H53   H     H_    0.808114 0.087827 0.505257 0.153351
H54   H     H_    0.759361 0.107566 0.395792 0.155898
H55   H     H_    0.716376 0.071762 0.425736 0.164830
H56   H     H_    0.122012 0.313323 0.402602 0.146274
H57   H     H_    0.461754 0.820314 0.877714 0.143555
H58   H     H_    0.200299 0.318166 0.508640 0.156683
H59   H     H_    0.081932 0.387495 0.414666 0.223354
H60   H     H_    0.166530 0.394734 0.518009 0.148862
H61   H     H_    0.227802 0.385179 0.449175 0.132701
H62   H     H_    0.167057 0.430314 0.404202 0.189065
H63   H     H_    0.142332 0.379925 0.344732 0.167300
H64   H     H_    0.738876 0.545672 0.355923 0.132494
H65   H     H_    0.650408 0.564985 0.270247 0.166748
H66   H     H_    0.717721 0.561968 0.464236 0.192887
H67   H     H_    0.630641 0.582118 0.380228 0.174795
H68   H     H_    0.423268 0.166863 0.107080 0.124611
H69   H     H_    0.595309 0.508705 0.309369 0.145969
H70   H     H_    0.625290 0.505589 0.419633 0.156925
H71   H     H_    0.682869 0.488298 0.392919 0.184776
H72   H     H_    0.581615 0.436761 0.221593 0.157392
H73   H     H_    0.595122 0.403556 0.157415 0.163069
H74   H     H_    0.661568 0.495596 0.223368 0.162951
H75   H     H_    0.657870 0.463747 0.143011 0.162215
H76   H     H_    0.525088 0.468556 0.046292 0.159340
H77   H     H_    0.567417 0.521549 0.074572 0.192738
H78   H     H_    0.529729 0.501764 0.126816 0.149194
H79   H     H_    0.478429 0.127530 0.191045 0.161028
H80   H     H_    0.181521 0.606216 0.512772 0.172338
H81   H     H_    0.269264 0.628936 0.592733 0.154718
H82   H     H_    0.169672 0.658849 0.403021 0.217927
H83   H     H_    0.259425 0.676643 0.483837 0.165278
H84   H     H_    0.301963 0.600306 0.495698 0.151278
H85   H     H_    0.253878 0.621073 0.387008 0.157842
H86   H     H_    0.211490 0.582709 0.413806 0.179552
H87   H     H_    0.521913 0.220418 0.179215 0.167384
H88   H     H_    0.575512 0.184366 0.269672 0.196497
H89   H     H_    0.313007 0.022575 0.276694 0.154655
H90   H     H_    0.577790 0.130028 0.177457 0.155723
H91   H     H_    0.607443 0.182424 0.167351 0.176141
H92   H     H_    0.519304 0.163066 0.082606 0.153496
H93   H     H_    0.465275 0.798388 0.185054 0.126025
H94   H     H_    0.515991 0.841016 0.264102 0.146820
H95   H     H_    0.487869 0.835528 0.087230 0.167277
H96   H     H_    0.538724 0.876941 0.167901 0.209496
H97   H     H_    0.623689 0.819383 0.271847 0.138029
H98   H     H_    0.617866 0.822215 0.174734 0.156975
H99   H     H_    0.573465 0.778873 0.188056 0.139438
H100  H     H_    0.289010 0.950312 0.296136 0.170886
H101  H     H_    0.684400 0.106275 0.966210 0.144646
H102  H     H_    0.608383 0.070530 0.904353 0.201244
H103  H     H_    0.624721 0.146531 0.018736 0.187009
H104  H     H_    0.549839 0.110001 0.957753 0.193531
H105  H     H_    0.628380 0.046797 0.043458 0.172463
H106  H     H_    0.630925 0.087825 0.111766 0.151117
H107  H     H_    0.703550 0.083709 0.104851 0.151549
H108  H     H_    0.057772 0.326675 0.853437 0.105019
H109  H     H_    0.014508 0.378248 0.805343 0.165360
H110  H     H_    0.091977 0.350161 0.994501 0.169197
H111  H     H_    0.603812 0.118317 0.554403 0.199862
H112  H     H_    0.061266 0.404701 0.955719 0.205774
H113  H     H_    0.937620 0.378613 0.854855 0.165854
H114  H     H_    0.974954 0.359738 0.962506 0.158777
H115  H     H_    0.965252 0.322640 0.883796 0.141028
H116  H     H_    0.902481 0.654902 0.074516 0.139622
H117  H     H_    0.948934 0.610320 0.149186 0.164861
H118  H     H_    0.020987 0.694292 0.148174 0.173143
H119  H     H_    0.063843 0.647419 0.215590 0.204856
H120  H     H_    0.018288 0.601249 0.085712 0.165353
H121  H     H_    0.068418 0.647505 0.090605 0.153096
H122  H     H_    0.055746 0.375426 0.530523 0.147328
H123  H     H_    0.973016 0.647913 0.016335 0.163495
H124  H     H_    0.957825 0.294603 0.186801 0.137552
H125  H     H_    0.012996 0.335732 0.267841 0.143663
H126  H     H_    0.988464 0.329168 0.093326 0.172304
H127  H     H_    0.046640 0.366451 0.179711 0.199817
H128  H     H_    0.119277 0.304553 0.276315 0.138011
H129  H     H_    0.111691 0.303054 0.178067 0.159180
H130  H     H_    0.059487 0.266029 0.191999 0.148493
H131  H     H_    0.195951 0.601954 0.967245 0.143819
H132  H     H_    0.120379 0.565610 0.908799 0.202992
H133  H     H_    0.852242 0.604475 0.413297 0.176539
H134  H     H_    0.143576 0.638911 0.031751 0.188089
H135  H     H_    0.068454 0.602310 0.973366 0.192396
H136  H     H_    0.148819 0.538686 0.050670 0.174352
H137  H     H_    0.156370 0.577960 0.124967 0.153755
H138  H     H_    0.224325 0.575504 0.109355 0.152216
H139  H     H_    0.817068 0.779684 0.635726 0.144473
H140  H     H_    0.839666 0.773393 0.740042 0.206431
H141  H     H_    0.784723 0.859284 0.632921 0.137830
H142  H     H_    0.814280 0.853412 0.742139 0.190894
H143  H     H_    0.934390 0.832565 0.788883 0.168308
H144  H     H_    0.790296 0.451708 0.299005 0.166280
H145  H     H_    0.908049 0.885473 0.738292 0.155841
H146  H     H_    0.905122 0.839234 0.678948 0.148545
H147  H     H_    0.086228 0.160263 0.111812 0.193413
H148  H     H_    0.133124 0.135743 0.217366 0.086827
H149  H     H_    0.978648 0.117653 0.060671 0.224900
H150  H     H_    0.024651 0.089052 0.162157 0.160137
H151  H     H_    0.042855 0.158544 0.239422 0.138263
H152  H     H_    0.950130 0.149371 0.153560 0.175443
H153  H     H_    0.999905 0.188414 0.139261 0.164638
H154  H     H_    0.179739 0.845934 0.348705 0.151630
H155  H     H_    0.095198 0.619914 0.547742 0.172326
H156  H     H_    0.236288 0.802585 0.358710 0.157667
H157  H     H_    0.075956 0.795185 0.270085 0.176563
H158  H     H_    0.131002 0.752520 0.276676 0.196596
H159  H     H_    0.205338 0.754941 0.438316 0.150871
H160  H     H_    0.113469 0.743761 0.390180 0.199632
H161  H     H_    0.149615 0.797556 0.431624 0.143162
H162  H     H_    0.871891 0.247001 0.785108 0.169365
H163  H     H_    0.790289 0.248347 0.771605 0.143597
H164  H     H_    0.805995 0.251490 0.623777 0.188151
H165  H     H_    0.723954 0.255410 0.610894 0.187165
H166  H     H_    0.557033 0.825054 0.851668 0.108257
H167  H     H_    0.768593 0.323546 0.700990 0.158182
H168  H     H_    0.767757 0.328579 0.607495 0.153420
H169  H     H_    0.850417 0.319740 0.712436 0.148196
H170  H     H_    0.312139 0.274802 0.632321 0.143717
H171  H     H_    0.336045 0.270003 0.737464 0.207405
H172  H     H_    0.282416 0.355161 0.627927 0.137667
H173  H     H_    0.313365 0.350709 0.737886 0.193116
H174  H     H_    0.432084 0.327680 0.782610 0.170791
H175  H     H_    0.406681 0.380243 0.730509 0.157807
H176  H     H_    0.401317 0.332911 0.671827 0.148855
O1    O     O_R   0.678810 0.768970 0.857610 -0.488932
O2    O     O_R   0.269010 0.178840 0.038010 -0.478026
O3    O     O_R   0.269010 0.821160 0.038010 -0.492102
O4    O     O_R   0.730990 0.178840 0.961990 -0.494398
O5    O     O_R   0.230990 0.321160 0.961990 -0.465942
O6    O     O_R   0.769010 0.678840 0.038010 -0.480214
O7    O     O_R   0.769010 0.321160 0.038010 -0.490266
O8    O     O_R   0.230990 0.678840 0.961990 -0.492982
O9    O     O_R   0.642490 0.723880 0.947790 -0.458443
O10   O     O_R   0.357510 0.276120 0.052210 -0.503117
O11   O     O_R   0.357510 0.723880 0.052210 -0.505663
O12   O     O_R   0.321190 0.231030 0.142390 -0.484725
O13   O     O_R   0.642490 0.276120 0.947790 -0.514853
O14   O     O_R   0.142490 0.223880 0.947790 -0.448340
O15   O     O_R   0.857510 0.776120 0.052210 -0.506456
O16   O     O_R   0.857510 0.223880 0.052210 -0.504404
O17   O     O_R   0.142490 0.776120 0.947790 -0.518499
O18   O     O_R   0.694660 0.776070 0.052170 -0.528494
O19   O     O_R   0.305340 0.223930 0.947830 -0.466749
O20   O     O_R   0.305340 0.776070 0.947830 -0.499174
O21   O     O_R   0.694660 0.223930 0.052170 -0.473006
O22   O     O_R   0.194660 0.276070 0.052170 -0.530649
O23   O     O_R   0.321190 0.768970 0.142390 -0.470800
O24   O     O_R   0.805340 0.723930 0.947830 -0.470151
O25   O     O_R   0.805340 0.276070 0.947830 -0.503491
O26   O     O_R   0.194660 0.723930 0.052170 -0.470403
O27   O     O_R   0.997960 0.545070 0.590160 -0.439991
O28   O     O_R   0.002040 0.454930 0.409840 -0.471951
O29   O     O_R   0.002040 0.545070 0.409840 -0.439225
O30   O     O_R   0.997960 0.454930 0.590160 -0.455923
O31   O     O_R   0.497960 0.045070 0.590160 -0.429238
O32   O     O_R   0.502040 0.954930 0.409840 -0.475123
O33   O     O_R   0.502040 0.045070 0.409840 -0.448547
O34   O     O_R   0.678810 0.231030 0.857610 -0.511975
O35   O     O_R   0.497960 0.954930 0.590160 -0.456218
O36   O     O_R   0.092180 0.545060 0.590150 -0.526872
O37   O     O_R   0.907820 0.454940 0.409850 -0.537804
O38   O     O_R   0.907820 0.545060 0.409850 -0.552215
O39   O     O_R   0.092180 0.454940 0.590150 -0.526575
O40   O     O_R   0.592180 0.045060 0.590150 -0.526204
O41   O     O_R   0.407820 0.954940 0.409850 -0.551427
O42   O     O_R   0.407820 0.045060 0.409850 -0.557650
O43   O     O_R   0.592180 0.954940 0.590150 -0.526964
O44   O     O_3   0.623392 0.879138 0.889317 -0.519132
O45   O     O_R   0.178810 0.268970 0.857610 -0.490549
O46   O     O_3   0.446913 0.182648 0.225657 -0.526732
O47   O     O_3   0.418702 0.858947 0.146847 -0.531819
O48   O     O_3   0.590918 0.135305 0.862874 -0.542823
O49   O     O_3   0.125488 0.380065 0.890936 -0.519076
O50   O     O_3   0.947598 0.670711 0.201200 -0.546979
O51   O     O_3   0.920163 0.357378 0.149875 -0.529915
O52   O     O_3   0.099300 0.630862 0.870576 -0.540687
O53   O     O_3   0.732121 0.777729 0.639040 -0.527877
O54   O     O_3   0.108193 0.094494 0.115100 -0.505947
O55   O     O_3   0.160501 0.826197 0.233848 -0.553673
O56   O     O_R   0.821190 0.731030 0.142390 -0.502137
O57   O     O_3   0.810909 0.192418 0.725424 -0.519285
O58   O     O_3   0.228280 0.275135 0.637745 -0.530411
O59   O     O_3   0.629669 0.635175 0.179518 -0.529708
O60   O     O_3   0.663652 0.328230 0.243644 -0.536561
O61   O     O_3   0.295738 0.701142 0.707189 -0.522913
O62   O     O_3   0.608739 0.814311 0.494435 -0.544165
O63   O     O_3   0.183010 0.023776 0.218900 -0.561016
O64   O     O_3   0.174148 0.919353 0.262805 -0.583064
O65   O     O_3   0.700408 0.165337 0.560587 -0.545654
O66   O     O_3   0.104874 0.312199 0.493710 -0.544698
O67   O     O_R   0.821190 0.268970 0.142390 -0.472561
O68   O     O_3   0.722139 0.612426 0.355361 -0.569178
O69   O     O_3   0.684141 0.417562 0.285117 -0.586520
O70   O     O_3   0.184118 0.670923 0.545883 -0.555056
O71   O     O_R   0.178810 0.731030 0.857610 -0.512337
O72   O     O_R   0.730990 0.821160 0.961990 -0.466090

loop_
_geom_bond_atom_site_label_1
_geom_bond_atom_site_label_2
_ccdc_geom_bond_type
C72   H11   S    
C101  C113  A    
C27   H24   S    
Cu1   O1    S    
Cu2   O29   S    
C114  O48   S    
C49   H131  S    
C60   H158  S    
C124  C133  A    
Cu8   O2    S    
C33   H96   S    
Cu11  O3    S    
C47   H126  S    
C9    H89   S    
C116  O3    A    
C6    C188  A    
Cu11  O71   S    
C71   H8    S    
C4    C186  A    
C2    C90   A    
C30   H88   S    
C52   H140  S    
C32   O47   S    
C153  O25   A    
C141  O39   A    
Cu9   O56   S    
C17   C182  A    
C57   C109  A    
C113  C122  A    
C62   O57   S    
C8    C190  A    
C44   H120  S    
C97   H71   S    
C146  O18   A    
C4    C12   A    
C122  Cl3   S    
C129  C145  S    
C87   H48   S    
C94   H62   S    
C110  C171  S    
C59   C60   S    
C104  H84   S    
C19   C131  A    
C176  Cl11  S    
C81   H31   S    
C37   H103  S    
C21   C133  A    
C141  O30   A    
C109  C118  A    
C127  O4    A    
C39   H109  S    
C31   H90   S    
C139  O28   A    
C11   C20   A    
C1    O1    A    
Cu10  O16   S    
C65   O58   S    
C120  Cl16  S    
C64   H168  S    
C176  C185  A    
C55   O54   S    
C48   H128  S    
C179  C188  A    
C65   H170  S    
C17   C129  A    
C124  Cl5   S    
C174  Cl9   S    
C177  C186  A    
C142  O31   A    
C135  C139  S    
C43   C44   S    
C38   H106  S    
C42   H116  S    
C37   C38   S    
C181  C190  A    
C116  O23   A    
C32   H94   S    
C88   O65   S    
C147  O19   A    
Cu5   O12   S    
C49   O52   S    
C68   C110  A    
Cu6   O11   S    
C163  C172  T    
Cu12  O27   S    
C50   H135  S    
C173  C182  A    
C29   H68   S    
C62   H163  S    
C1    C79   S    
C123  Cl4   S    
C18   C130  A    
C113  O47   S    
C121  Cl2   S    
C131  C143  S    
C16   C25   A    
Cu7   O34   S    
Cu10  O4    S    
C70   H6    S    
C90   C105  S    
C72   C73   S    
C150  O13   A    
C56   H149  S    
C21   C35   A    
Cu12  O30   S    
C63   H164  S    
C79   C182  A    
C83   H36   S    
Cu1   Cu9   S    
C107  C138  S    
C76   H21   S    
Cu2   O28   S    
C29   H79   S    
C8    C17   A    
C97   H69   S    
C92   H58   S    
C69   C70   S    
Cu9   O15   S    
C35   C107  A    
C48   H129  S    
C88   H49   S    
C88   C89   S    
C154  O17   A    
C98   C99   S    
C16   H155  S    
C102  O70   S    
C75   H18   S    
C189  O61   S    
C100  H77   S    
C9    C191  A    
C187  O59   S    
Cu2   O39   S    
Cu7   O13   S    
C123  C132  A    
C146  O9    A    
C152  O15   A    
C121  C130  A    
C99   H74   S    
C85   C86   S    
C67   H176  S    
C72   H10   S    
C32   H93   S    
C36   C37   S    
Cu9   O72   S    
C180  C189  A    
C102  H80   S    
C58   H151  S    
C78   C80   S    
C137  O27   A    
C96   H67   S    
C105  O12   A    
C64   H169  S    
C47   H127  S    
C78   O62   S    
Cu5   O5    S    
C46   C108  A    
C26   H2    S    
C7    C189  A    
C82   H33   S    
C89   C91   S    
C130  C144  S    
C152  C161  S    
C161  C169  T    
C66   C67   S    
C165  C167  S    
C5    O68   S    
Cu12  O38   S    
C3    C185  A    
C111  O44   S    
C78   H27   S    
C63   H165  S    
C75   O61   S    
C93   H59   S    
C117  O50   S    
C120  C129  A    
C3    C11   A    
Cu7   Cu10  S    
C39   C40   S    
C69   O59   S    
C43   H118  S    
C186  O58   S    
C61   H161  S    
C31   H91   S    
Cu4   O43   S    
C69   H3    S    
C26   O44   S    
C98   H72   S    
C29   C30   S    
C55   H148  S    
C83   C84   S    
C148  O11   A    
C149  O6    A    
C184  C192  A    
C71   H9    S    
Cu7   O25   S    
C61   H160  S    
Cu1   O9    S    
C114  C123  A    
C143  O41   A    
C105  O2    A    
C125  Cl6   S    
C82   C83   S    
C149  O56   A    
C112  O46   S    
C36   H102  S    
Cu11  O17   S    
C98   H73   S    
C92   H56   S    
C138  O5    A    
C73   C74   S    
C122  C131  A    
C52   C53   S    
C148  O20   A    
C151  O14   A    
C23   C57   A    
C67   H174  S    
C145  O43   A    
C77   H23   S    
C108  C117  A    
C45   O51   S    
C91   H54   S    
C190  O62   S    
C175  Cl10  S    
C136  C137  S    
C110  C119  A    
C140  O38   A    
C39   H108  S    
C53   C54   S    
C64   H167  S    
Cu3   O35   S    
C26   H166  S    
C14   C22   A    
C112  C121  A    
C33   H95   S    
C119  C128  A    
C1    O72   A    
C41   H113  S    
C191  O63   S    
C78   H26   S    
C56   C58   S    
C148  C157  S    
C102  C103  S    
C144  O42   A    
C63   C64   S    
C9    C18   A    
C138  O45   A    
C24   C106  A    
C137  O36   A    
C49   C50   S    
Cu4   O40   S    
C13   C175  A    
C59   O55   S    
C74   H15   S    
C13   C101  A    
C34   H97   S    
C54   H145  S    
C87   H47   S    
C94   H63   S    
C36   O48   S    
C125  C134  A    
C35   C177  A    
C55   C56   S    
C72   O60   S    
C89   H52   S    
C171  O71   A    
C118  O51   S    
C42   O50   S    
C84   H39   S    
C75   H19   S    
C28   H35   S    
C34   H98   S    
C85   H42   S    
C100  H76   S    
C28   H57   S    
Cu5   O22   S    
C25   C68   A    
C26   C27   S    
C152  O24   A    
C20   C132  A    
C99   H75   S    
C128  C136  A    
C30   C31   S    
Cu10  O21   S    
C14   H133  S    
C86   H44   S    
C95   O68   S    
C38   H107  S    
C103  H82   S    
C146  C155  S    
Cu3   O42   S    
C40   H110  S    
Cu8   O14   S    
C41   H115  S    
C96   H66   S    
C80   H28   S    
C4    O66   S    
C70   C71   S    
C180  Cl15  S    
C151  O22   A    
C168  C170  S    
C173  C181  A    
C160  O67   A    
C66   H173  S    
C81   H30   S    
C53   H142  S    
Cu8   O45   S    
Cu2   O36   S    
C49   H132  S    
C60   H157  S    
Cu1   O24   S    
C13   C19   A    
Cu4   O33   S    
Cu6   O23   S    
C92   O66   S    
C57   C179  A    
C56   H150  S    
C86   C87   S    
C95   H65   S    
C10   C192  A    
C60   C61   S    
C144  O33   A    
C30   H87   S    
C128  Cl8   S    
C52   H139  S    
C140  O29   A    
C43   H119  S    
C51   H137  S    
Cu3   Cu4   S    
C162  C170  T    
C10   C19   A    
C50   C51   S    
C65   H171  S    
C51   H138  S    
C147  C156  S    
C5    C14   A    
C48   H130  S    
C54   H143  S    
C87   H45   S    
C94   H61   S    
C178  C187  A    
C88   H50   S    
C7    C16   A    
C22   C46   A    
C22   C134  A    
C126  C135  A    
C173  Cl1   S    
C31   H92   S    
C42   C43   S    
C5    C187  A    
C81   H32   S    
C100  H78   S    
Cu10  O67   S    
C37   H104  S    
C86   H43   S    
C183  O54   S    
C181  O53   S    
C29   O46   S    
Cu1   O6    S    
Cu5   Cu8   S    
C115  C124  A    
C150  C158  S    
C85   O64   S    
C126  Cl7   S    
C145  O35   A    
C174  C183  A    
C67   H175  S    
C133  C141  S    
C23   C135  A    
C153  C162  S    
C76   H20   S    
C32   C33   S    
C127  O34   A    
C91   H55   S    
C38   H105  S    
C102  H81   S    
C58   H152  S    
C42   H117  S    
Cu7   O7    S    
C156  C165  T    
C106  C127  S    
C92   C93   S    
C151  C159  S    
C83   H37   S    
C104  H86   S    
C50   H134  S    
C3    O65   S    
C119  O52   S    
C59   H156  S    
C95   H64   S    
C103  C104  S    
C62   H162  S    
C101  C116  S    
C82   H34   S    
C104  H85   S    
C58   H153  S    
C40   H112  S    
C175  C184  A    
Cu3   O31   S    
C15   H144  S    
C93   C94   S    
C139  O37   A    
C2    C18   A    
C46   C178  A    
C95   C96   S    
C70   H5    S    
C90   C112  A    
C75   C76   S    
C192  O64   S    
Cu2   Cu12  S    
C153  O16   A    
C62   C63   S    
C106  C114  A    
C66   H172  S    
C84   H38   S    
C59   H154  S    
Cu6   Cu11  S    
C134  C140  S    
C44   H121  S    
C178  Cl13  S    
C7    O70   S    
C28   H46   S    
C159  C168  T    
C97   H70   S    
C45   C47   S    
C51   H136  S    
C25   C136  A    
C150  O21   A    
C93   H60   S    
C154  O26   A    
C55   H147  S    
C6    C15   A    
C10   H100  S    
C52   O53   S    
C20   C24   A    
C184  O55   S    
C12   H122  S    
C61   H159  S    
C15   C23   A    
C179  Cl14  S    
C11   H111  S    
Cu11  O20   S    
C36   H101  S    
C132  C142  S    
C177  Cl12  S    
C158  C167  T    
C77   H22   S    
C115  O49   S    
C47   C48   S    
C53   H141  S    
C154  C163  S    
C91   H53   S    
C76   C77   S    
C6    O69   S    
C185  O57   S    
C12   C21   A    
C68   C180  A    
C111  C120  A    
Cu4   O32   S    
Cu6   O8    S    
C99   C100  S    
C96   C97   S    
C147  O10   A    
C33   C34   S    
C73   H14   S    
C107  C115  A    
C40   C41   S    
C143  O32   A    
C80   H29   S    
C39   O49   S    
C169  C172  S    
Cu12  O37   S    
C74   H16   S    
C41   H114  S    
C54   H146  S    
C89   H51   S    
C71   H7    S    
C84   H40   S    
C142  O40   A    
C85   H41   S    
C80   C81   S    
C183  C191  A    
C157  C166  T    
C155  C164  T    
C44   H123  S    
C45   H125  S    
Cu6   O26   S    
C79   C111  A    
C69   H4    S    
C74   H17   S    
C164  C166  S    
Cu9   O18   S    
C160  O7    A    
C2    C174  A    
C82   O63   S    
C117  C125  A    
C103  H83   S    
C77   H25   S    
C98   O69   S    
C27   H13   S    
C108  C149  S    
C45   H124  S    
Cu3   O41   S    
C65   C66   S    
Cu8   O19   S    
C34   H99   S    
C27   C28   S    
C188  O60   S    
Cu5   O10   S    
C171  O8    A    
C118  C126  A    
C109  C160  S    
C73   H12   S    
C8    H1    S    
C24   C176  A    
