data_mof_unit_7732.cif
_audit_creation_date              2013-03-05T15:42:57-0500
_audit_creation_method            fapswitch 2.2
_symmetry_space_group_name_H-M    P1
_symmetry_Int_Tables_number       1
_space_group_crystal_system       triclinic
_cell_length_a                    6.925043
_cell_length_b                    14.184316
_cell_length_c                    16.190731
_cell_angle_alpha                 89.999922
_cell_angle_beta                  90.000574
_cell_angle_gamma                 90.000162
_cell_volume                      1590.36690512

loop_
_atom_site_label
_atom_site_type_symbol
_atom_site_description
_atom_site_fract_x
_atom_site_fract_y
_atom_site_fract_z
_atom_type_partial_charge
O1    O     O_R   0.469910 0.836130 0.163900 -0.578254
O2    O     O_R   0.530090 0.163870 0.836100 -0.571491
O3    O     O_R   0.530090 0.163870 0.663900 -0.578270
O4    O     O_R   0.469910 0.836130 0.336100 -0.571508
O5    O     O_R   0.969910 0.663870 0.336100 -0.578177
O6    O     O_R   0.030090 0.336130 0.663900 -0.571583
O7    O     O_R   0.030090 0.336130 0.836100 -0.578226
O8    O     O_R   0.969910 0.663870 0.163900 -0.571525
O9    O     O_R   0.140100 0.847470 0.335520 -0.514040
O10   O     O_R   0.859900 0.152530 0.664480 -0.519263
O11   O     O_R   0.859900 0.152530 0.835520 -0.514005
O12   O     O_R   0.140100 0.847470 0.164480 -0.519388
O13   O     O_R   0.640100 0.652530 0.164480 -0.514015
O14   O     O_R   0.359900 0.347470 0.835520 -0.519419
O15   O     O_R   0.359900 0.347470 0.664480 -0.514022
O16   O     O_R   0.640100 0.652530 0.335520 -0.519378
C1    C     C_R   0.309428 0.866374 0.366540 0.801345
C2    C     C_R   0.690433 0.132735 0.633497 0.810331
C3    C     C_R   0.690571 0.133619 0.866536 0.801438
C4    C     C_R   0.309561 0.867257 0.133495 0.810272
C5    C     C_R   0.809430 0.633615 0.133466 0.801393
C6    C     C_R   0.190440 0.367255 0.866506 0.810291
C7    C     C_R   0.190570 0.366380 0.633464 0.801310
C8    C     C_R   0.809563 0.632743 0.366505 0.810360
O17   O     O_3   0.303300 0.689750 0.250000 -0.262629
O18   O     O_3   0.696700 0.310250 0.750000 -0.262703
O19   O     O_3   0.803300 0.810250 0.250000 -0.262691
O20   O     O_3   0.196700 0.189750 0.750000 -0.262583
V1    V     V_3+5 0.028490 0.761170 0.250000 1.284589
V2    V     V_3+5 0.971510 0.238830 0.750000 1.284649
V3    V     V_3+5 0.528490 0.738830 0.250000 1.284595
V4    V     V_3+5 0.471510 0.261170 0.750000 1.284576
H1    H     H_    0.951911 0.502629 0.596632 0.118813
H2    H     H_    0.121600 0.548099 0.424836 0.148878
H3    H     H_    0.048095 0.497363 0.096640 0.118865
H4    H     H_    0.878513 0.452041 0.924770 0.148669
H5    H     H_    0.451907 0.997372 0.903366 0.118841
H6    H     H_    0.621573 0.951932 0.075179 0.148804
H7    H     H_    0.548082 0.002604 0.403383 0.118684
H8    H     H_    0.378165 0.048418 0.575013 0.149280
C9    C     C_2   0.823021 0.571793 0.441970 0.194759
C10   C     C_2   0.176962 0.416627 0.552908 0.234814
C11   C     C_2   0.177001 0.428175 0.941988 0.194800
C12   C     C_2   0.823050 0.583363 0.052914 0.234849
C13   C     C_2   0.323012 0.928201 0.058026 0.194742
C14   C     C_2   0.676962 0.083371 0.947091 0.234873
C15   C     C_2   0.676943 0.071720 0.558069 0.194626
C16   C     C_2   0.322999 0.916610 0.447103 0.234897
C17   C     C_2   0.997973 0.535332 0.464457 -0.038068
C18   C     C_2   0.037301 0.483339 0.542963 -0.055444
C19   C     C_2   0.002093 0.464708 0.964443 -0.038146
C20   C     C_2   0.962736 0.516667 0.042966 -0.055388
C21   C     C_2   0.497954 0.964677 0.035546 -0.038198
C22   C     C_2   0.537291 0.016665 0.957037 -0.055398
C23   C     C_2   0.501898 0.035419 0.535512 -0.038206
C24   C     C_2   0.462623 0.983347 0.457043 -0.055509
N1    N     N_R   0.287848 0.379599 0.484220 0.124439
O21   O     O_R   0.428121 0.320665 0.498329 -0.299528
O22   O     O_R   0.226520 0.387629 0.408596 -0.320649
N2    N     N_R   0.652527 0.558051 0.492066 0.097971
O23   O     O_R   0.512497 0.619191 0.489971 -0.331350
O24   O     O_R   0.632778 0.483584 0.538091 -0.325350
N3    N     N_R   0.712190 0.620382 0.984218 0.124301
O25   O     O_R   0.571595 0.679127 0.998326 -0.299323
O26   O     O_R   0.773902 0.612625 0.908636 -0.320596
N4    N     N_R   0.347452 0.441788 0.992137 0.097964
O27   O     O_R   0.487349 0.380576 0.990038 -0.331236
O28   O     O_R   0.367303 0.516200 0.038220 -0.325356
N5    N     N_R   0.787856 0.120393 0.015781 0.124449
O29   O     O_R   0.928204 0.179287 0.001666 -0.299359
O30   O     O_R   0.726437 0.112425 0.091402 -0.320577
N6    N     N_R   0.152524 0.941912 0.007919 0.097991
O31   O     O_R   0.012523 0.880756 0.010018 -0.331305
O32   O     O_R   0.132759 0.016357 0.961869 -0.325317
N7    N     N_R   0.212005 0.879579 0.515769 0.124909
O33   O     O_R   0.072479 0.820213 0.501654 -0.299588
O34   O     O_R   0.272392 0.888244 0.591491 -0.320492
N8    N     N_R   0.847538 0.057697 0.508096 0.098046
O35   O     O_R   0.987858 0.118680 0.510192 -0.331574
O36   O     O_R   0.867032 0.983148 0.462153 -0.325285

loop_
_geom_bond_atom_site_label_1
_geom_bond_atom_site_label_2
_geom_bond_distance
_ccdc_geom_bond_type
O17   V3    1.707784 S    
N4    O28   1.299853 A    
C23   C24   1.494524 S    
N3    O26   1.300872 A    
O18   V4    1.707784 S    
O12   V1    2.003255 S    
O19   V1    1.707787 S    
C1    C16   1.489290 S    
C2    C15   1.499720 S    
C3    C14   1.489278 S    
O15   V4    2.003247 S    
C21   C22   1.494564 S    
O16   V3    2.003246 S    
H6    C21   1.085020 S    
O11   C3    1.303516 A    
C7    C10   1.489273 S    
O8    V1    2.003156 S    
O2    V4    2.003154 S    
N8    O36   1.299882 A    
N1    O22   1.300966 A    
O1    V3    2.003155 S    
O3    C2    1.292405 A    
N2    O24   1.299872 A    
N5    O30   1.301057 A    
C14   N5    1.449940 S    
H7    C24   1.086119 S    
O11   V2    2.003254 S    
O1    C4    1.292403 A    
C4    C13   1.499660 S    
O9    V1    2.003245 S    
C12   C20   1.362601 D    
O15   C7    1.303513 A    
N4    O27   1.301379 A    
C13   C21   1.366699 D    
O16   C8    1.306763 A    
O7    V2    2.003155 S    
C13   N6    1.445640 S    
C8    C9    1.499659 S    
C16   N7    1.450075 S    
C14   C22   1.362616 D    
O3    V4    2.003163 S    
C10   N1    1.449943 S    
C9    C17   1.366694 D    
O5    V1    2.003158 S    
C12   N3    1.449883 S    
O17   V1    2.155911 S    
O19   V3    2.155906 S    
C19   C20   1.494578 S    
O20   V4    2.155906 S    
N6    O32   1.299865 A    
N8    O35   1.301385 A    
H1    C18   1.086098 S    
N2    O23   1.301384 A    
N7    O33   1.301869 A    
C5    C12   1.489272 S    
O10   V2    2.003246 S    
C6    C11   1.499641 S    
H8    C23   1.085009 S    
O12   C4    1.306760 A    
O8    C5    1.289186 A    
O13   C5    1.303520 A    
N7    O34   1.301165 A    
H4    C19   1.085007 S    
C10   C18   1.362619 D    
H5    C22   1.086091 S    
O9    C1    1.303501 A    
O6    V2    2.003159 S    
O18   V2    2.155911 S    
O4    C1    1.289196 A    
C15   C23   1.366711 D    
C16   C24   1.362671 D    
H2    C17   1.085015 S    
O2    C3    1.289190 A    
O13   V3    2.003260 S    
C9    N2    1.445638 S    
O14   V4    2.003259 S    
N6    O31   1.301383 A    
O7    C6    1.292399 A    
O14   C6    1.306750 A    
O20   V2    1.707788 S    
C11   C19   1.366689 D    
N1    O21   1.301761 A    
O5    C8    1.292399 A    
O10   C2    1.306795 A    
C11   N4    1.445622 S    
O6    C7    1.289188 A    
N5    O29   1.301800 A    
O4    V3    2.003162 S    
N3    O25   1.301707 A    
C17   C18   1.494557 S    
H3    C20   1.086083 S    
C15   N8    1.445646 S    
