data_mof_unit_12167.cif
_audit_creation_date              2012-12-10T19:11:29-0500
_audit_creation_method            fapswitch 2.2
_symmetry_space_group_name_H-M    P1
_symmetry_Int_Tables_number       1
_space_group_crystal_system       triclinic
_cell_length_a                    10.842825
_cell_length_b                    9.737319
_cell_length_c                    10.609475
_cell_angle_alpha                 88.303366
_cell_angle_beta                  87.352562
_cell_angle_gamma                 89.958356
_cell_volume                      1118.46250984

loop_
_atom_site_label
_atom_site_type_symbol
_atom_type_description
_atom_site_fract_x
_atom_site_fract_y
_atom_site_fract_z
_atom_type_partial_charge
C1    C     C_R   0.257960 0.499960 0.508444 0.984818
C2    C     C_3   0.941180 0.473641 0.368554 0.245478
C3    C     C_3   0.375771 0.080061 0.532973 -0.313096
C4    C     C_3   0.374872 0.918138 0.527604 -0.308097
C5    C     C_3   0.533963 0.085869 0.369428 0.053592
C6    C     C_3   0.540081 0.921999 0.371156 0.044243
C7    C     C_3   0.584925 0.077303 0.589420 -0.276617
C8    C     C_3   0.579863 0.916025 0.594262 -0.250904
C9    C     C_R   0.500712 0.501790 0.257407 0.919657
C10   C     C_R   0.742857 0.500368 0.502488 0.891042
C11   C     C_R   0.497695 0.497944 0.741970 0.973027
C12   C     C_3   0.499502 0.504436 0.123119 -0.164902
C13   C     C_3   0.479606 0.629180 0.032536 0.012629
C14   C     C_3   0.408094 0.418762 0.049970 -0.002281
C15   C     C_3   0.387503 0.543918 0.961196 0.499886
C16   C     C_3   0.495959 0.493991 0.875356 -0.166901
C17   C     C_3   0.587135 0.578690 0.947381 0.017028
C18   C     C_3   0.515638 0.369579 0.964435 0.077906
C19   C     C_3   0.606680 0.454208 0.036051 0.035376
C20   C     C_3   0.201770 0.655148 0.001211 -0.293607
C21   C     C_3   0.085689 0.818090 0.708886 -0.301360
C22   C     C_3   0.078038 0.346299 0.840789 -0.256715
C23   C     C_3   0.072756 0.652750 0.544258 0.610527
C24   C     C_3   0.067322 0.392519 0.618359 0.569261
C25   C     C_3   0.928346 0.645276 0.553077 -0.190411
C26   C     C_3   0.922353 0.393545 0.609772 -0.225883
C27   C     C_3   0.082240 0.461145 0.380363 -0.599864
C28   C     C_3   0.121531 0.501272 0.513817 -0.084552
C29   C     C_3   0.880222 0.501532 0.505097 -0.032240
H1    H     H_    0.306831 0.122168 0.467976 0.162874
H2    H     H_    0.544939 0.880479 0.690000 0.180476
H3    H     H_    0.898074 0.647591 0.654411 0.157597
H4    H     H_    0.883541 0.433222 0.700747 0.147398
H5    H     H_    0.132584 0.524002 0.305801 0.162727
H6    H     H_    0.114968 0.357008 0.356547 0.185348
H7    H     H_    0.228065 0.765314 0.997995 0.167659
H8    H     H_    0.207699 0.611746 0.098795 0.112160
H9    H     H_    0.103673 0.649418 0.976472 0.188181
H10   H     H_    0.821348 0.600137 0.272430 0.187595
H11   H     H_    0.955237 0.569232 0.191483 0.174344
H12   H     H_    0.311555 0.888004 0.454458 0.170533
H13   H     H_    0.800829 0.352731 0.302963 0.229187
H14   H     H_    0.921890 0.258863 0.356815 0.173375
H15   H     H_    0.659821 0.126397 0.220729 0.157451
H16   H     H_    0.723076 0.130462 0.363891 0.163734
H17   H     H_    0.677214 0.890861 0.233707 0.130398
H18   H     H_    0.729226 0.913063 0.377163 0.172619
H19   H     H_    0.544406 0.807053 0.098105 0.188048
H20   H     H_    0.395274 0.773962 0.139649 0.171275
H21   H     H_    0.265782 0.285484 0.036075 0.187653
H22   H     H_    0.252063 0.387119 0.160871 0.163939
H23   H     H_    0.345807 0.112100 0.629445 0.185530
H24   H     H_    0.732489 0.708194 0.960916 0.170764
H25   H     H_    0.746162 0.601116 0.840044 0.160821
H26   H     H_    0.541844 0.167741 0.008324 0.192434
H27   H     H_    0.619461 0.224266 0.876631 0.166728
H28   H     H_    0.768871 0.356585 0.997616 0.168928
H29   H     H_    0.779355 0.490841 0.089814 0.170002
H30   H     H_    0.090656 0.852096 0.458454 0.138759
H31   H     H_    0.092296 0.729050 0.354492 0.163610
H32   H     H_    0.083909 0.180410 0.662559 0.144067
H33   H     H_    0.107007 0.218032 0.509711 0.133861
H34   H     H_    0.337880 0.872847 0.619020 0.208433
H35   H     H_    0.986002 0.823136 0.736035 0.131931
H36   H     H_    0.134507 0.833961 0.796639 0.191683
H37   H     H_    0.114653 0.905316 0.645328 0.125770
H38   H     H_    0.154591 0.270775 0.845015 0.165209
H39   H     H_    0.988100 0.292800 0.838261 0.101977
H40   H     H_    0.075900 0.403103 0.929792 0.193315
H41   H     H_    0.900132 0.787382 0.402839 0.206225
H42   H     H_    0.891455 0.854481 0.547049 0.144552
H43   H     H_    0.911788 0.189857 0.543468 0.161693
H44   H     H_    0.860142 0.209035 0.692802 0.156632
H45   H     H_    0.458773 0.115700 0.305681 0.130615
H46   H     H_    0.473211 0.887845 0.302512 0.104202
H47   H     H_    0.680580 0.110944 0.566799 0.166939
H48   H     H_    0.673724 0.873099 0.584031 0.178002
H49   H     H_    0.561004 0.115878 0.684847 0.173614
N1    N     N_3   0.499750 0.138610 0.497240 -0.038934
N2    N     N_3   0.534052 0.228381 0.926158 -0.445252
N3    N     N_3   0.725987 0.404504 0.074792 -0.465372
N4    N     N_3   0.120048 0.751729 0.443950 -0.466635
N5    N     N_3   0.121926 0.254352 0.598921 -0.453182
N6    N     N_3   0.871140 0.767674 0.496260 -0.449155
N7    N     N_3   0.865221 0.256778 0.603158 -0.458815
N8    N     N_3   0.499750 0.861390 0.497240 -0.042856
N9    N     N_3   0.916518 0.589273 0.281272 -0.485491
N10   N     N_3   0.896055 0.349010 0.310607 -0.474835
N11   N     N_3   0.644890 0.154748 0.314454 -0.403502
N12   N     N_3   0.660130 0.866295 0.329348 -0.404181
N13   N     N_3   0.461488 0.771932 0.065145 -0.452089
N14   N     N_3   0.314238 0.327463 0.108424 -0.450922
N15   N     N_3   0.684396 0.665402 0.888527 -0.448039
O1    O     O_R   0.314910 0.616040 0.499970 -0.598375
O2    O     O_3   0.121673 0.688248 0.662500 -0.520679
O3    O     O_3   0.100483 0.440845 0.738376 -0.535068
O4    O     O_R   0.314910 0.383960 0.499970 -0.637112
O5    O     O_R   0.500080 0.616020 0.313900 -0.639125
O6    O     O_R   0.500080 0.383980 0.313900 -0.589830
O7    O     O_R   0.685320 0.616040 0.499930 -0.591618
O8    O     O_R   0.685320 0.383960 0.499930 -0.606691
O9    O     O_R   0.500150 0.616060 0.686000 -0.606284
O10   O     O_R   0.500150 0.383940 0.686000 -0.631466
O11   O     O_3   0.274097 0.583567 0.911007 -0.545890
Zn1   Zn    Zn3+2 0.500150 0.654960 0.499940 0.959193
Zn2   Zn    Zn3+2 0.500150 0.345040 0.499940 0.944296

loop_
_geom_bond_atom_site_label_1
_geom_bond_atom_site_label_2
_ccdc_geom_bond_type
H33   N5    S    
O1    Zn1   S    
C9    O5    A    
C20   H8    S    
C23   N4    S    
C21   H37   S    
C14   C18   S    
H30   N4    S    
H10   N9    S    
C3    N1    S    
H43   N7    S    
C7    C8    S    
C18   N2    S    
C4    H34   S    
O7    Zn1   S    
O5    Zn1   S    
C2    C29   S    
H14   N10   S    
H11   N9    S    
C24   N5    S    
C24   C26   S    
C24   O3    S    
C5    C6    S    
C4    N8    S    
C4    H12   S    
C15   C16   S    
O9    Zn1   S    
C18   C19   S    
C5    H45   S    
H25   N15   S    
H31   N4    S    
C16   C17   S    
C21   H35   S    
H19   N13   S    
C25   N6    S    
C2    N10   S    
C2    C27   S    
C15   O11   S    
C5    N1    S    
H16   N11   S    
C22   H40   S    
C25   H3    S    
C9    O6    A    
C13   N13   S    
H20   N13   S    
C27   H5    S    
C25   C29   S    
H24   N15   S    
C6    H46   S    
H32   N5    S    
H29   N3    S    
C1    O4    A    
C1    O1    A    
C21   O2    S    
C27   H6    S    
C6    N12   S    
N1    Zn2   S    
C3    H1    S    
H22   N14   S    
C1    C28   S    
C20   H9    S    
C11   C16   S    
C26   H4    S    
C14   N14   S    
C2    N9    S    
C23   C28   S    
C10   O7    A    
C22   H39   S    
C11   O9    A    
C7    H49   S    
H17   N12   S    
O4    Zn2   S    
H21   N14   S    
C12   C14   S    
C13   C15   S    
C8    H48   S    
H18   N12   S    
H28   N3    S    
N8    Zn1   S    
H13   N10   S    
C3    C4    S    
H41   N6    S    
C7    N1    S    
H42   N6    S    
H44   N7    S    
O8    Zn2   S    
O6    Zn2   S    
C21   H36   S    
C8    H2    S    
C22   O3    S    
C10   O8    A    
C24   C28   S    
H27   N2    S    
C3    H23   S    
C7    H47   S    
C20   O11   S    
C6    N8    S    
C13   C17   S    
H26   N2    S    
C10   C29   S    
C26   N7    S    
C12   C19   S    
C17   C19   S    
C23   O2    S    
O10   Zn2   S    
C8    N8    S    
C23   C25   S    
C9    C12   S    
C22   H38   S    
C20   H7    S    
C17   N15   S    
C12   C13   S    
C26   C29   S    
C16   C18   S    
C27   C28   S    
C14   C15   S    
C11   O10   A    
C19   N3    S    
C5    N11   S    
H15   N11   S    
