data_mof_unit_51510.cif
_audit_creation_date              2012-12-11T14:30:10-0500
_audit_creation_method            fapswitch 2.2
_symmetry_space_group_name_H-M    P1
_symmetry_Int_Tables_number       1
_space_group_crystal_system       triclinic
_cell_length_a                    12.915531
_cell_length_b                    13.052228
_cell_length_c                    26.908799
_cell_angle_alpha                 90.04507
_cell_angle_beta                  89.577546
_cell_angle_gamma                 119.675312
_cell_volume                      3941.11705933

loop_
_atom_site_label
_atom_site_type_symbol
_atom_type_description
_atom_site_fract_x
_atom_site_fract_y
_atom_site_fract_z
_atom_type_partial_charge
C1    C     C_R   0.562147 0.455432 0.822556 0.539909
C2    C     C_R   0.456164 0.558786 0.178349 0.540358
C3    C     C_R   0.945300 0.293530 0.467663 0.157937
C4    C     C_R   0.347212 0.061570 0.038879 0.178371
C5    C     C_R   0.714316 0.643751 0.465066 0.153989
C6    C     C_R   0.342948 0.063800 0.516484 0.176866
C7    C     C_R   0.947869 0.290853 0.979547 0.163271
C8    C     C_R   0.719261 0.654810 0.517124 0.173603
C9    C     C_R   0.339843 0.061757 0.986453 0.158187
C10   C     C_R   0.953247 0.291849 0.520681 0.165102
C11   C     C_R   0.723886 0.647024 0.982178 0.149691
C12   C     C_R   0.442087 0.898671 0.321058 0.542653
C13   C     C_R   0.104068 0.545233 0.177981 0.537270
C14   C     C_R   0.988173 0.493541 0.974625 -0.008002
C15   C     C_R   0.510810 0.026148 0.521775 -0.007100
C16   C     C_R   0.514599 0.493448 0.976176 -0.003199
C17   C     C_R   0.986790 0.493121 0.524781 -0.010811
C18   C     C_R   0.508553 0.024546 0.978697 -0.003353
C19   C     C_R   0.512630 0.494419 0.524361 -0.004644
C20   C     C_R   0.507874 0.012519 0.469820 -0.000845
C21   C     C_R   0.896561 0.439771 0.677982 0.539193
C22   C     C_R   0.002007 0.504233 0.026431 -0.002039
C23   C     C_R   0.501753 0.495033 0.472214 -0.000069
C24   C     C_R   0.506861 0.011435 0.030850 -0.003724
C25   C     C_R   0.998294 0.502725 0.472822 -0.003210
C26   C     C_R   0.503163 0.496022 0.028039 0.000986
C27   C     C_R   0.046527 0.700395 0.967114 0.131448
C28   C     C_R   0.667859 0.973682 0.526933 0.155757
C29   C     C_R   0.301579 0.352002 0.969028 0.142440
C30   C     C_R   0.034893 0.697971 0.531023 0.161947
C31   C     C_R   0.665505 0.970394 0.971764 0.148936
C32   C     C_R   0.544996 0.109065 0.823627 0.544627
C33   C     C_R   0.300897 0.346803 0.532294 0.151841
C34   C     C_R   0.659871 0.952718 0.475255 0.158912
C35   C     C_R   0.068854 0.715586 0.018518 0.157130
C36   C     C_R   0.288819 0.349938 0.480680 0.171431
C37   C     C_R   0.657240 0.950019 0.023104 0.167385
C38   C     C_R   0.062635 0.713401 0.480019 0.153666
C39   C     C_R   0.289945 0.354562 0.020813 0.160878
C40   C     C_R   0.974052 0.573780 0.894969 -0.131461
C41   C     C_R   0.604143 0.034978 0.601376 -0.133368
C42   C     C_R   0.428291 0.416045 0.894977 -0.145456
C43   C     C_R   0.562029 0.456143 0.677545 0.540501
C44   C     C_R   0.970730 0.573249 0.604533 -0.131854
C45   C     C_R   0.598841 0.032389 0.897689 -0.137280
C46   C     C_R   0.427038 0.414253 0.605925 -0.143031
C47   C     C_R   0.573323 0.957689 0.394643 -0.122738
C48   C     C_R   0.077720 0.628406 0.099343 -0.132420
C49   C     C_R   0.378283 0.434442 0.398447 -0.135379
C50   C     C_R   0.572949 0.953025 0.104387 -0.129190
C51   C     C_R   0.059370 0.624564 0.398434 -0.130886
C52   C     C_R   0.378649 0.437607 0.102051 -0.125017
C53   C     C_R   0.048931 0.529519 0.128570 -0.017104
C54   C     C_R   0.896253 0.439596 0.821970 0.538511
C55   C     C_R   0.482286 0.961166 0.368374 -0.008618
C56   C     C_R   0.476010 0.518837 0.129954 -0.008524
C57   C     C_R   0.040644 0.526824 0.370177 -0.018230
C58   C     C_R   0.490563 0.967102 0.132903 -0.016251
C59   C     C_R   0.475107 0.518125 0.370272 -0.010346
C60   C     C_R   0.525417 0.063369 0.625068 -0.013679
C61   C     C_R   0.950350 0.469850 0.871668 -0.021026
C62   C     C_R   0.538190 0.480592 0.626954 -0.004454
C63   C     C_R   0.523545 0.065356 0.875612 -0.008764
C64   C     C_R   0.950417 0.470473 0.628075 -0.021192
C65   C     C_R   0.545277 0.107432 0.676773 0.544200
C66   C     C_R   0.540063 0.477615 0.873683 -0.003342
C67   C     C_R   0.003370 0.589861 0.945615 0.025122
C68   C     C_R   0.594602 0.011421 0.550155 0.020692
C69   C     C_R   0.413906 0.420848 0.946576 -0.004870
C70   C     C_R   0.997685 0.588716 0.553427 0.024109
C71   C     C_R   0.591509 0.008494 0.949084 0.006644
C72   C     C_R   0.412655 0.418668 0.554349 -0.004113
C73   C     C_R   0.582791 0.976175 0.446204 0.018798
C74   C     C_R   0.047820 0.617165 0.048618 0.016937
C75   C     C_R   0.389098 0.423787 0.450114 0.004903
C76   C     C_R   0.455589 0.558537 0.321763 0.540907
C77   C     C_R   0.581445 0.973693 0.052948 0.012498
C78   C     C_R   0.038446 0.614185 0.449982 0.015024
C79   C     C_R   0.390113 0.426872 0.050560 0.005995
C80   C     C_R   0.961228 0.384251 0.898937 -0.125719
C81   C     C_R   0.434540 0.066451 0.597289 -0.122883
C82   C     C_R   0.637748 0.556043 0.902598 -0.108249
C83   C     C_R   0.962341 0.385380 0.600768 -0.123609
C84   C     C_R   0.435136 0.071299 0.904591 -0.125901
C85   C     C_R   0.633989 0.564303 0.597855 -0.112080
C86   C     C_R   0.413674 0.003511 0.391204 -0.142692
C87   C     C_R   0.444274 0.900668 0.179484 0.540544
C88   C     C_R   0.986438 0.417467 0.107839 -0.135414
C89   C     C_R   0.587483 0.579857 0.391807 -0.135580
C90   C     C_R   0.433878 0.023599 0.112810 -0.124152
C91   C     C_R   0.983696 0.415068 0.391785 -0.130240
C92   C     C_R   0.588888 0.578455 0.108153 -0.138970
C93   C     C_R   0.965920 0.388840 0.951111 0.013280
C94   C     C_R   0.427670 0.051023 0.545584 0.009362
C95   C     C_R   0.626044 0.566376 0.953470 0.013838
C96   C     C_R   0.967760 0.389609 0.548641 0.015881
C97   C     C_R   0.426701 0.052451 0.956347 0.008592
C98   C     C_R   0.101498 0.544403 0.321559 0.537718
C99   C     C_R   0.622346 0.572856 0.546647 0.017175
C100  C     C_R   0.427632 0.032540 0.441332 0.003752
C101  C     C_R   0.972328 0.402776 0.055985 0.007997
C102  C     C_R   0.602988 0.569670 0.442512 0.010121
C103  C     C_R   0.430910 0.035951 0.060963 0.021445
C104  C     C_R   0.971769 0.401768 0.443861 0.012843
C105  C     C_R   0.604325 0.569628 0.057294 0.006345
C106  C     C_R   0.939105 0.293014 0.032293 0.152439
C107  C     C_R   0.352850 0.068192 0.464572 0.161301
C108  C     C_R   0.716409 0.641425 0.034175 0.143107
Cr1   Cr    Cr6+3 0.487630 0.241180 0.750000 1.014302
Cr2   Cr    Cr6+3 0.753550 0.512370 0.750000 1.015971
Cr3   Cr    Cr6+3 0.758820 0.246450 0.750000 1.017812
Cr4   Cr    Cr6+3 0.241180 0.487630 0.250000 1.007836
Cr5   Cr    Cr6+3 0.512370 0.753550 0.250000 1.006148
Cr6   Cr    Cr6+3 0.246450 0.758820 0.250000 1.005289
H1    H     H_    0.131151 0.713009 0.116379 0.137358
H2    H     H_    0.663770 0.029573 0.873508 0.118060
H3    H     H_    0.964967 0.640254 0.626240 0.148125
H4    H     H_    0.354687 0.363132 0.870810 0.113556
H5    H     H_    0.959603 0.345639 0.133634 0.124063
H6    H     H_    0.340698 0.001837 0.370793 0.133190
H7    H     H_    0.662379 0.639873 0.130707 0.131925
H8    H     H_    0.957577 0.341598 0.366901 0.135108
H9    H     H_    0.386170 0.048549 0.138516 0.132275
H10   H     H_    0.659746 0.645333 0.369409 0.131129
H11   H     H_    0.377355 0.092749 0.615751 0.137644
H12   H     H_    0.630361 0.932571 0.375028 0.129868
H13   H     H_    0.956791 0.309974 0.879618 0.156313
H14   H     H_    0.720640 0.614607 0.614798 0.143705
H15   H     H_    0.380158 0.100651 0.886481 0.136328
H16   H     H_    0.957714 0.311352 0.620644 0.157169
H17   H     H_    0.725061 0.603206 0.885434 0.151929
H18   H     H_    0.033951 0.844590 0.037135 0.239148
H19   H     H_    0.130758 0.840705 0.075516 0.214640
H20   H     H_    0.805410 0.969704 0.436384 0.224621
H21   H     H_    0.678127 0.840571 0.426110 0.226365
H22   H     H_    0.168360 0.216940 0.063516 0.231068
H23   H     H_    0.292600 0.389644 0.120021 0.135624
H24   H     H_    0.154074 0.340126 0.063775 0.226751
H25   H     H_    0.052139 0.845155 0.443746 0.228606
H26   H     H_    0.182618 0.841945 0.433521 0.225957
H27   H     H_    0.797242 0.969088 0.066206 0.234151
H28   H     H_    0.673409 0.830590 0.066360 0.219404
H29   H     H_    0.155269 0.205196 0.444091 0.234041
H30   H     H_    0.156585 0.337390 0.436091 0.221526
H31   H     H_    0.809340 0.943542 0.534309 0.289381
H32   H     H_    0.711889 0.894366 0.583106 0.252613
H33   H     H_    0.062241 0.863224 0.953043 0.283061
H34   H     H_    0.094179 0.708693 0.379905 0.130935
H35   H     H_    0.158308 0.831054 0.919955 0.259491
H36   H     H_    0.167790 0.310775 0.584596 0.252228
H37   H     H_    0.223287 0.217791 0.585389 0.204471
H38   H     H_    0.731362 0.866035 0.948909 0.296050
H39   H     H_    0.761599 0.970259 0.907169 0.209911
H40   H     H_    0.056847 0.864516 0.540175 0.293324
H41   H     H_    0.109880 0.816290 0.587829 0.241534
H42   H     H_    0.172678 0.323582 0.917908 0.248767
H43   H     H_    0.219135 0.223749 0.916870 0.207601
H44   H     H_    0.905013 0.194541 0.097861 0.207133
H45   H     H_    0.625606 0.920394 0.122252 0.129374
H46   H     H_    0.961233 0.154639 0.053258 0.235225
H47   H     H_    0.326229 0.148722 0.403043 0.223146
H48   H     H_    0.197298 0.034064 0.428039 0.228601
H49   H     H_    0.827072 0.667330 0.094032 0.230602
H50   H     H_    0.829566 0.792281 0.073535 0.230455
H51   H     H_    0.967224 0.214076 0.405071 0.197614
H52   H     H_    0.953011 0.140884 0.453804 0.219373
H53   H     H_    0.246570 0.041534 0.102901 0.203558
H54   H     H_    0.181614 0.043768 0.053665 0.241660
H55   H     H_    0.820768 0.674647 0.401642 0.223570
H56   H     H_    0.293245 0.384075 0.380577 0.130525
H57   H     H_    0.842781 0.798599 0.431643 0.226877
H58   H     H_    0.228670 0.052732 0.575435 0.208941
H59   H     H_    0.204167 0.100213 0.519588 0.290056
H60   H     H_    0.872396 0.159767 0.929951 0.237454
H61   H     H_    0.935681 0.124905 0.976890 0.300250
H62   H     H_    0.844558 0.752737 0.571712 0.249898
H63   H     H_    0.877698 0.813992 0.514392 0.261676
H64   H     H_    0.229467 0.053077 0.927179 0.215112
H65   H     H_    0.212872 0.112806 0.980099 0.276342
H66   H     H_    0.878776 0.160128 0.572636 0.253971
H67   H     H_    0.673555 0.033640 0.623338 0.143867
H68   H     H_    0.957921 0.130482 0.529044 0.269930
H69   H     H_    0.864506 0.717863 0.933436 0.250794
H70   H     H_    0.882593 0.806112 0.982716 0.271261
H71   H     H_    0.969172 0.641230 0.873320 0.155250
H72   H     H_    0.353776 0.357710 0.630291 0.113934
N1    N     N_3   0.106450 0.830478 0.038548 -0.621125
N2    N     N_3   0.753244 0.953169 0.945158 -0.631432
N3    N     N_3   0.042638 0.792313 0.561389 -0.673411
N4    N     N_3   0.198212 0.274838 0.940286 -0.587173
N5    N     N_3   0.901790 0.184849 0.059549 -0.640233
N6    N     N_3   0.282684 0.105644 0.436326 -0.657749
N7    N     N_3   0.822653 0.712267 0.062721 -0.670371
N8    N     N_3   0.915846 0.189905 0.437951 -0.620862
N9    N     N_3   0.266706 0.084595 0.068823 -0.637753
N10   N     N_3   0.822892 0.710891 0.436406 -0.659844
N11   N     N_3   0.231985 0.046706 0.537065 -0.644035
N12   N     N_3   0.727051 0.902152 0.453833 -0.644525
N13   N     N_3   0.944625 0.192660 0.953685 -0.602650
N14   N     N_3   0.808171 0.764254 0.539092 -0.643888
N15   N     N_3   0.232285 0.050703 0.965553 -0.657235
N16   N     N_3   0.952523 0.196291 0.548450 -0.620984
N17   N     N_3   0.821276 0.746326 0.957687 -0.648427
N18   N     N_3   0.173453 0.285806 0.041876 -0.614287
N19   N     N_3   0.117620 0.830318 0.460058 -0.630257
N20   N     N_3   0.728069 0.903755 0.043818 -0.621937
N21   N     N_3   0.171008 0.284219 0.460994 -0.614318
N22   N     N_3   0.753669 0.960667 0.556435 -0.668967
N23   N     N_3   0.072303 0.797898 0.934851 -0.669578
N24   N     N_3   0.198198 0.265607 0.561736 -0.597188
O1    O     O_R   0.460870 0.120930 0.805240 -0.520502
O2    O     O_R   0.120930 0.460870 0.194760 -0.521103
O3    O     O_R   0.539130 0.660060 0.305240 -0.524096
O4    O     O_R   0.339940 0.879070 0.194760 -0.524575
O5    O     O_R   0.498910 0.350470 0.801870 -0.503953
O6    O     O_R   0.851560 0.501090 0.698130 -0.502912
O7    O     O_R   0.649530 0.148440 0.801870 -0.500312
O8    O     O_R   0.498910 0.350470 0.698130 -0.503034
O9    O     O_R   0.851560 0.501090 0.801870 -0.504772
O10   O     O_R   0.649530 0.148440 0.698130 -0.499185
O11   O     O_R   0.350470 0.498910 0.301870 -0.502834
O12   O     O_R   0.660060 0.539130 0.694760 -0.520622
O13   O     O_R   0.501090 0.851560 0.198130 -0.504684
O14   O     O_R   0.148440 0.649530 0.301870 -0.504091
O15   O     O_R   0.350470 0.498910 0.198130 -0.503654
O16   O     O_R   0.501090 0.851560 0.301870 -0.505117
O17   O     O_R   0.148440 0.649530 0.198130 -0.505717
O18   O     O_3   0.666667 0.333333 0.750000 -0.254201
O19   O     O_3   0.333333 0.666667 0.250000 -0.244278
O20   O     O_R   0.879070 0.339940 0.805240 -0.522301
O21   O     O_R   0.460870 0.120930 0.694760 -0.521234
O22   O     O_R   0.660060 0.539130 0.805240 -0.520318
O23   O     O_R   0.879070 0.339940 0.694760 -0.522144
O24   O     O_R   0.120930 0.460870 0.305240 -0.520823
O25   O     O_R   0.539130 0.660060 0.194760 -0.523645
O26   O     O_R   0.339940 0.879070 0.305240 -0.527779

loop_
_geom_bond_atom_site_label_1
_geom_bond_atom_site_label_2
_ccdc_geom_bond_type
C3    C104  A    
C4    N9    S    
C92   C105  A    
C35   C74   A    
H37   N24   S    
C89   C102  A    
C45   C71   A    
Cr4   O11   S    
Cr6   O4    S    
Cr2   O6    S    
C45   H2    S    
Cr5   O3    S    
C91   C104  A    
H38   N2    S    
H51   N8    S    
Cr6   O19   S    
H48   N6    S    
C88   C101  A    
C101  C106  A    
C54   O9    A    
C64   C83   A    
C44   C64   A    
Cr1   O1    S    
H60   N13   S    
C22   C101  A    
C46   C62   A    
C18   C24   A    
Cr3   O18   S    
Cr4   O2    S    
C38   N19   S    
C8    C99   A    
H35   N23   S    
H66   N16   S    
C49   H56   S    
C23   C102  A    
H49   N7    S    
C61   C80   A    
C4    C103  A    
C84   H15   S    
C27   N23   S    
C33   C36   A    
C30   C38   A    
H20   N12   S    
C59   C89   A    
C30   N3    S    
H27   N20   S    
Cr5   O13   S    
C21   C64   S    
Cr1   O8    S    
H25   N19   S    
C33   C72   A    
Cr6   O17   S    
H43   N4    S    
H24   N18   S    
C76   O3    A    
C21   O23   A    
H65   N15   S    
H28   N20   S    
C6    C94   A    
C91   H8    S    
C98   O14   A    
C31   N2    S    
C1    O5    A    
C6    C107  A    
C49   C75   A    
C44   C70   A    
C51   C57   A    
C18   C97   A    
H55   N10   S    
C52   C79   A    
C86   C100  A    
C14   C93   A    
C46   C72   A    
C32   O7    A    
H31   N22   S    
H30   N21   S    
C31   C71   A    
H64   N15   S    
C28   C34   A    
C17   C70   A    
H70   N17   S    
C39   N18   S    
C58   C87   S    
C13   O2    A    
C41   H67   S    
C19   C72   A    
C15   C20   A    
H26   N19   S    
C106  N5    S    
H62   N14   S    
H47   N6    S    
H18   N1    S    
C30   C70   A    
Cr1   O18   S    
C1    C66   S    
C41   C68   A    
C29   C69   A    
C16   C26   A    
C48   C53   A    
C7    C93   A    
C62   C85   A    
H29   N21   S    
C21   O6    A    
C3    N8    S    
C65   O21   A    
H59   N11   S    
C25   C78   A    
C50   C58   A    
C48   C74   A    
C43   O12   A    
C27   C67   A    
C47   C73   A    
C83   H16   S    
H32   N22   S    
C32   O1    A    
C19   C99   A    
H50   N7    S    
C42   H4    S    
Cr6   O26   S    
C40   H71   S    
C38   C78   A    
C27   C35   A    
C34   C73   A    
C37   C77   A    
H54   N9    S    
C42   C69   A    
Cr4   O19   S    
C31   C37   A    
H21   N12   S    
C36   N21   S    
C87   O13   A    
C107  N6    S    
C19   C23   A    
C13   C53   S    
C85   C99   A    
C36   C75   A    
Cr4   O15   S    
C66   C82   A    
C89   H10   S    
C58   C90   A    
C60   C81   A    
C34   N12   S    
C12   O16   A    
C98   O24   A    
C10   C96   A    
C14   C67   A    
C29   C39   A    
C6    N11   S    
C52   H23   S    
C7    C106  A    
H58   N11   S    
C17   C96   A    
C11   N17   S    
C105  C108  A    
C46   H72   S    
C88   H5    S    
Cr2   O9    S    
C10   N16   S    
H61   N13   S    
C9    N15   S    
C2    C56   S    
C48   H1    S    
Cr2   O22   S    
C80   H13   S    
C33   N24   S    
C60   C65   S    
C5    N10   S    
C28   N22   S    
C16   C95   A    
C8    N14   S    
C43   O8    A    
Cr3   O10   S    
C84   C97   A    
C5    C8    A    
Cr2   O12   S    
C50   C77   A    
H36   N24   S    
H22   N18   S    
C40   C67   A    
C47   H12   S    
C47   C55   A    
C11   C95   A    
C18   C71   A    
Cr5   O25   S    
C37   N20   S    
C12   O26   A    
C5    C102  A    
C100  C107  A    
C9    C97   A    
C82   C95   A    
C57   C91   A    
C81   H11   S    
H68   N16   S    
H53   N9    S    
H63   N14   S    
H40   N3    S    
C16   C69   A    
H52   N8    S    
C41   C60   A    
C23   C75   A    
H57   N10   S    
C28   C68   A    
C54   C61   S    
C13   O17   A    
C65   O10   A    
C108  N7    S    
C25   C104  A    
Cr5   O19   S    
H39   N2    S    
C76   O11   A    
C32   C63   S    
H19   N1    S    
C15   C68   A    
C26   C79   A    
C49   C59   A    
C26   C105  A    
C63   C84   A    
C24   C103  A    
C17   C25   A    
C14   C22   A    
C55   C86   A    
C4    C9    A    
C51   C78   A    
H69   N17   S    
C82   H17   S    
C3    C10   A    
Cr2   O18   S    
C92   H7    S    
C81   C94   A    
Cr1   O21   S    
C1    O22   A    
Cr5   O16   S    
H33   N23   S    
C44   H3    S    
Cr4   O24   S    
C83   C96   A    
C51   H34   S    
Cr3   O23   S    
C87   O4    A    
C45   C63   A    
C20   C73   A    
C53   C88   A    
Cr1   O5    S    
C7    N13   S    
C57   C98   S    
C90   C103  A    
C12   C55   S    
H41   N3    S    
C40   C61   A    
C50   H45   S    
C2    O25   A    
C24   C77   A    
C56   C92   A    
C15   C94   A    
C43   C62   S    
C35   N1    S    
H46   N5    S    
C11   C108  A    
C42   C66   A    
Cr3   O20   S    
C22   C74   A    
C29   N4    S    
C85   H14   S    
C86   H6    S    
Cr3   O7    S    
Cr6   O14   S    
C80   C93   A    
H44   N5    S    
C59   C76   S    
C54   O20   A    
C90   H9    S    
C52   C56   A    
C2    O15   A    
C39   C79   A    
C20   C100  A    
H42   N4    S    
