data_mof_unit_41487.cif
_audit_creation_date              2012-12-10T20:25:46-0500
_audit_creation_method            fapswitch 2.2
_symmetry_space_group_name_H-M    P1
_symmetry_Int_Tables_number       1
_space_group_crystal_system       triclinic
_cell_length_a                    8.592031
_cell_length_b                    10.655524
_cell_length_c                    9.878982
_cell_angle_alpha                 89.991565
_cell_angle_beta                  98.180221
_cell_angle_gamma                 90.210234
_cell_volume                      895.237950223

loop_
_atom_site_label
_atom_site_type_symbol
_atom_type_description
_atom_site_fract_x
_atom_site_fract_y
_atom_site_fract_z
_atom_type_partial_charge
C1    C     C_R   0.506226 0.260025 0.500887 0.872302
C2    C     C_R   0.414003 0.412924 0.918295 0.177786
C3    C     C_3   0.239523 0.397929 0.892440 -0.518742
C4    C     C_R   0.201319 0.499916 0.464298 0.965546
C5    C     C_3   0.241109 0.394697 0.046547 -0.149444
C6    C     C_R   0.505428 0.740078 0.500712 0.877096
C7    C     C_R   0.798478 0.501008 0.535341 0.965256
C8    C     C_2   0.036315 0.498339 0.444481 -0.400276
C9    C     C_2   0.962996 0.504698 0.553695 -0.384355
C10   C     C_R   0.529506 0.064039 0.627276 0.146533
C11   C     C_R   0.534664 0.128921 0.505761 -0.105297
C12   C     C_R   0.570762 0.935349 0.390079 -0.232003
C13   C     C_R   0.572592 0.065276 0.390657 -0.230119
C14   C     C_3   0.186048 0.270898 0.106589 -0.349745
C15   C     C_3   0.272820 0.151710 0.071256 -0.337410
C16   C     C_3   0.220022 0.037747 0.146835 -0.884045
C17   C     C_R   0.532760 0.871494 0.505290 -0.103154
C18   C     C_R   0.528588 0.936174 0.627121 0.128191
C19   C     C_3   0.413347 0.929280 0.727037 -0.477307
C20   C     C_3   0.414855 0.071594 0.727363 -0.505598
C21   C     C_R   0.415247 0.412049 0.061261 0.192399
C22   C     C_R   0.594628 0.579081 0.083593 -0.143839
C23   C     C_R   0.594772 0.578988 0.939753 -0.133597
H1    H     H_    0.975596 0.490752 0.340316 0.176098
H2    H     H_    0.469264 0.112512 0.826458 0.199522
H3    H     H_    0.668973 0.644584 0.894717 0.144279
H4    H     H_    0.243266 0.052874 0.259155 0.270249
H5    H     H_    0.092358 0.020341 0.115967 0.256187
H6    H     H_    0.285910 0.953559 0.121244 0.253033
H7    H     H_    0.247723 0.132424 0.960042 0.220571
H8    H     H_    0.401654 0.163637 0.099831 0.216449
H9    H     H_    0.200566 0.281321 0.219612 0.220534
H10   H     H_    0.058234 0.259205 0.070682 0.194268
H11   H     H_    0.587863 0.886196 0.297367 0.168039
H12   H     H_    0.182282 0.484000 0.846957 0.192092
H13   H     H_    0.668677 0.644794 0.146947 0.144431
H14   H     H_    0.201747 0.310108 0.836791 0.196810
H15   H     H_    0.181636 0.477814 0.083928 0.168369
H16   H     H_    0.023160 0.513820 0.656977 0.169326
H17   H     H_    0.591743 0.114714 0.298694 0.170138
H18   H     H_    0.298303 0.888340 0.681966 0.204724
H19   H     H_    0.465852 0.887924 0.826381 0.203446
H20   H     H_    0.300604 0.113588 0.682901 0.199050
N1    N     N_R   0.498950 0.499140 0.142680 -0.119268
N2    N     N_R   0.498950 0.499180 0.857030 -0.103006
O1    O     O_R   0.500020 0.316790 0.614690 -0.614603
O2    O     O_R   0.500000 0.316760 0.385350 -0.627254
O3    O     O_R   0.271760 0.500010 0.587850 -0.609366
O4    O     O_R   0.271740 0.499970 0.358500 -0.637942
O5    O     O_R   0.500000 0.683240 0.614650 -0.620937
O6    O     O_R   0.499980 0.683210 0.385310 -0.625083
O7    O     O_R   0.728260 0.500030 0.641500 -0.628256
O8    O     O_R   0.728240 0.499990 0.412150 -0.616611
Zn1   Zn    Zn3+2 0.500010 0.500020 0.653130 0.937152
Zn2   Zn    Zn3+2 0.499990 0.499980 0.346870 0.927385

loop_
_geom_bond_atom_site_label_1
_geom_bond_atom_site_label_2
_ccdc_geom_bond_type
C12   C17   A    
C16   H5    S    
C15   H8    S    
C20   H2    S    
C23   N2    A    
C6    O6    A    
C21   N1    A    
C22   H13   S    
N2    Zn1   S    
C19   C20   S    
C1    C11   S    
C19   H19   S    
C3    H12   S    
C4    O4    A    
C4    C8    S    
O1    Zn1   S    
C2    C21   A    
C2    C3    S    
C5    H15   S    
C6    O5    A    
O3    Zn1   S    
C11   C13   A    
N1    Zn2   S    
C5    C14   S    
O5    Zn1   S    
C14   H10   S    
C16   H4    S    
C8    H1    S    
O7    Zn1   S    
C7    O7    A    
C17   C18   A    
O6    Zn2   S    
O8    Zn2   S    
C2    N2    A    
C10   C18   A    
C1    O1    A    
C10   C11   A    
C7    O8    A    
C12   H11   S    
C15   C16   S    
C9    H16   S    
C20   H20   S    
C5    C21   S    
C12   C13   A    
C3    H14   S    
C15   H7    S    
O2    Zn2   S    
C18   C19   S    
C4    O3    A    
C23   H3    S    
C10   C20   S    
C7    C9    S    
C6    C17   S    
C14   C15   S    
C1    O2    A    
C13   H17   S    
C16   H6    S    
O4    Zn2   S    
C22   C23   A    
C22   N1    A    
C19   H18   S    
C14   H9    S    
C8    C9    D    
C3    C5    S    
