data_mof_unit_21969.cif
_audit_creation_date              2012-12-11T16:47:41-0500
_audit_creation_method            fapswitch 2.2
_symmetry_space_group_name_H-M    P1
_symmetry_Int_Tables_number       1
_space_group_crystal_system       triclinic
_cell_length_a                    26.149159
_cell_length_b                    7.174282
_cell_length_c                    23.927319
_cell_angle_alpha                 89.999926
_cell_angle_beta                  101.562512
_cell_angle_gamma                 90.000184
_cell_volume                      4397.70652647

loop_
_atom_site_label
_atom_site_type_symbol
_atom_type_description
_atom_site_fract_x
_atom_site_fract_y
_atom_site_fract_z
_atom_type_partial_charge
O1    O     O_R   0.797620 0.601060 0.203310 -0.536487
O2    O     O_R   0.202380 0.398940 0.796690 -0.536359
O3    O     O_R   0.702380 0.101060 0.296690 -0.536496
O4    O     O_R   0.297620 0.898940 0.703310 -0.536360
O5    O     O_R   0.692070 0.267810 0.186600 -0.533549
O6    O     O_R   0.307930 0.732190 0.813400 -0.533539
O7    O     O_R   0.807930 0.767810 0.313400 -0.533548
O8    O     O_R   0.192070 0.232190 0.686600 -0.533539
C1    C     C_R   0.673834 0.439792 0.171476 0.708447
C2    C     C_R   0.326186 0.560208 0.828510 0.708406
C3    C     C_R   0.826166 0.939792 0.328524 0.708453
C4    C     C_R   0.173815 0.060208 0.671489 0.708403
O9    O     O_R   0.796590 0.271120 0.196480 -0.538995
O10   O     O_R   0.203410 0.728880 0.803520 -0.539178
O11   O     O_R   0.703410 0.771120 0.303520 -0.539003
O12   O     O_R   0.296590 0.228880 0.696480 -0.539179
O13   O     O_R   0.807640 0.104280 0.306650 -0.534041
O14   O     O_R   0.192360 0.895720 0.693350 -0.533948
O15   O     O_R   0.692360 0.604280 0.193350 -0.534039
O16   O     O_R   0.307640 0.395720 0.806650 -0.533946
C5    C     C_R   0.812293 0.439870 0.184455 0.683654
C6    C     C_R   0.187667 0.560147 0.815518 0.683145
C7    C     C_R   0.687707 0.939869 0.315546 0.683656
C8    C     C_R   0.312333 0.060147 0.684482 0.683146
O17   O     O_3   0.753500 0.435660 0.286130 -0.371737
O18   O     O_3   0.246500 0.564340 0.713870 -0.371746
O19   O     O_3   0.746500 0.935660 0.213870 -0.371729
O20   O     O_3   0.253500 0.064340 0.786130 -0.371747
V1    V     V_3+5 0.749350 0.159470 0.243300 1.399182
V2    V     V_3+5 0.250650 0.840530 0.756700 1.398342
V3    V     V_3+5 0.750650 0.659470 0.256700 1.399177
V4    V     V_3+5 0.249350 0.340530 0.743300 1.398343
C9    C     C_R   0.351624 0.895618 0.610545 -0.166799
C10   C     C_R   0.649060 0.103681 0.390042 -0.162715
C11   C     C_R   0.148367 0.395605 0.889449 -0.166796
C12   C     C_R   0.850911 0.603606 0.109924 -0.162724
H1    H     H_    0.324157 0.782268 0.609945 0.125769
H2    H     H_    0.676853 0.216123 0.390913 0.126622
H3    H     H_    0.175831 0.282244 0.890044 0.125775
H4    H     H_    0.823092 0.715980 0.109024 0.126604
C13   C     C_R   0.387722 0.886404 0.574586 -0.160699
C14   C     C_R   0.613084 0.113110 0.426118 -0.171249
C15   C     C_R   0.112268 0.386390 0.925407 -0.160706
C16   C     C_R   0.886889 0.613040 0.073850 -0.171254
H5    H     H_    0.386763 0.766798 0.546792 0.118021
H6    H     H_    0.614449 0.231931 0.454297 0.121331
H7    H     H_    0.113223 0.266773 0.953196 0.118054
H8    H     H_    0.885505 0.731797 0.045644 0.121325
C17   C     C_R   0.424253 0.030322 0.574084 0.127937
C18   C     C_R   0.576175 0.970271 0.426285 0.130173
C19   C     C_R   0.075743 0.530323 0.925915 0.127973
C20   C     C_R   0.923825 0.470278 0.073717 0.130168
C21   C     C_R   0.423466 0.184040 0.610500 -0.113210
C22   C     C_R   0.576380 0.817582 0.389352 -0.101812
C23   C     C_R   0.076538 0.684056 0.889506 -0.113203
C24   C     C_R   0.923648 0.317662 0.110683 -0.101785
H9    H     H_    0.451971 0.294574 0.612831 0.142615
H10   H     H_    0.547541 0.708068 0.386744 0.143912
H11   H     H_    0.048037 0.794603 0.887179 0.142609
H12   H     H_    0.952508 0.208212 0.113313 0.143869
C25   C     C_R   0.386473 0.195462 0.645374 -0.191791
C26   C     C_R   0.613280 0.805837 0.354381 -0.197508
C27   C     C_R   0.113531 0.695476 0.854633 -0.191791
C28   C     C_R   0.886749 0.305916 0.145656 -0.197488
H13   H     H_    0.386982 0.315560 0.672915 0.121839
H14   H     H_    0.612386 0.686492 0.326474 0.122184
H15   H     H_    0.113026 0.815585 0.827097 0.121844
H16   H     H_    0.887666 0.186635 0.173592 0.122158
C29   C     C_R   0.350364 0.050815 0.646077 -0.040669
C30   C     C_R   0.649796 0.949338 0.354053 -0.040413
C31   C     C_R   0.149635 0.550815 0.853923 -0.040681
C32   C     C_R   0.850204 0.449338 0.145948 -0.040399
C33   C     C_R   0.476375 0.173091 0.505571 0.433564
C34   C     C_R   0.524857 0.827679 0.495439 0.432767
C35   C     C_R   0.023621 0.673095 0.994429 0.433498
C36   C     C_R   0.975145 0.327680 0.004571 0.432773
C37   C     C_R   0.513456 0.155039 0.470911 -0.294917
C38   C     C_R   0.487571 0.845685 0.530102 -0.309451
C39   C     C_R   0.986539 0.655049 0.029088 -0.294910
C40   C     C_R   0.012422 0.345690 0.969898 -0.309575
H17   H     H_    0.522668 0.276401 0.447896 0.171628
H18   H     H_    0.478159 0.724069 0.552895 0.172549
H19   H     H_    0.977326 0.776409 0.052104 0.171650
H20   H     H_    0.021832 0.224070 0.947104 0.172564
C41   C     C_R   0.537453 0.983107 0.464460 -0.076124
C42   C     C_R   0.463336 0.017404 0.536286 -0.084126
C43   C     C_R   0.962546 0.483116 0.035542 -0.076072
C44   C     C_R   0.036658 0.517407 0.963712 -0.084113
C45   C     C_3   0.960359 0.939721 0.521976 0.393214
C46   C     C_3   0.039453 0.060112 0.478175 0.393122
C47   C     C_3   0.539642 0.439738 0.978024 0.393217
C48   C     C_3   0.460545 0.560094 0.021825 0.393135
C49   C     C_3   0.989492 0.126695 0.539354 -0.434745
C50   C     C_3   0.010325 0.873134 0.460812 -0.434736
C51   C     C_3   0.510506 0.626708 0.960649 -0.434748
C52   C     C_3   0.489676 0.373121 0.039186 -0.434781
H21   H     H_    0.980767 0.230957 0.570421 0.160645
H22   H     H_    0.019046 0.768866 0.429745 0.160717
H23   H     H_    0.519232 0.730976 0.929585 0.160653
H24   H     H_    0.480957 0.268841 0.070250 0.160719
C53   C     C_1   0.128006 0.050135 0.625790 -0.206500
C54   C     C_1   0.871919 0.949846 0.374275 -0.206145
C55   C     C_1   0.371995 0.550134 0.874209 -0.206499
C56   C     C_1   0.628080 0.449847 0.125726 -0.206139
C57   C     C_3   0.012483 0.837102 0.525129 0.389571
C58   C     C_3   0.987334 0.162730 0.475038 0.389543
C59   C     C_3   0.487520 0.337106 0.974869 0.389521
C60   C     C_3   0.512662 0.662725 0.024966 0.389576
C61   C     C_3   0.042031 0.021514 0.542171 -0.055803
C62   C     C_3   0.957801 0.978340 0.457990 -0.055619
C63   C     C_3   0.457968 0.521512 0.957829 -0.055798
C64   C     C_3   0.542199 0.478341 0.042010 -0.055600
C65   C     C_1   0.089371 0.038929 0.587989 0.041045
C66   C     C_1   0.910507 0.960997 0.412128 0.041258
C67   C     C_1   0.410629 0.538926 0.912011 0.041043
C68   C     C_1   0.589492 0.461000 0.087872 0.041266
O21   O     O_3   0.454536 0.346408 0.510408 -0.578889
C69   C     C_3   0.405732 0.360318 0.472313 0.079062
H25   H     H_    0.378508 0.433243 0.495140 0.136001
H26   H     H_    0.387293 0.223008 0.458313 0.106777
C70   C     C_3   0.411460 0.476527 0.420272 -0.293709
H27   H     H_    0.429567 0.612979 0.434577 0.216199
H28   H     H_    0.437274 0.402605 0.395921 0.189657
C71   C     C_3   0.358663 0.510814 0.381080 -0.853509
H29   H     H_    0.340036 0.376243 0.365581 0.234192
H30   H     H_    0.364203 0.594518 0.343709 0.233298
H31   H     H_    0.332535 0.588815 0.404113 0.231595
O22   O     O_3   0.546236 0.654387 0.489010 -0.578788
C72   C     C_3   0.583439 0.606340 0.538444 0.082379
H32   H     H_    0.580794 0.453393 0.544575 0.151513
H33   H     H_    0.576393 0.672645 0.578438 0.105211
C73   C     C_3   0.638447 0.653306 0.529821 -0.317611
H34   H     H_    0.644792 0.589173 0.489457 0.205904
H35   H     H_    0.642521 0.806857 0.526585 0.197214
C74   C     C_3   0.680041 0.581757 0.579192 -0.842942
H36   H     H_    0.674825 0.645701 0.619961 0.231265
H37   H     H_    0.719354 0.619245 0.571807 0.237452
H38   H     H_    0.677624 0.427652 0.582418 0.230144
O23   O     O_3   0.045476 0.846394 0.989608 -0.578885
C75   C     C_3   0.094271 0.860256 0.027722 0.079029
H39   H     H_    0.121540 0.932869 0.004884 0.135978
H40   H     H_    0.112656 0.722936 0.041809 0.106789
C76   C     C_3   0.088551 0.976835 0.079692 -0.293569
H41   H     H_    0.070551 0.113370 0.065306 0.216111
H42   H     H_    0.062647 0.903325 0.104022 0.189768
C77   C     C_3   0.141333 0.010843 0.118944 -0.853654
H43   H     H_    0.159847 0.876194 0.134536 0.234210
H44   H     H_    0.135799 0.094873 0.156254 0.233306
H45   H     H_    0.167557 0.088394 0.095926 0.231620
O24   O     O_3   0.953782 0.154377 0.011020 -0.578766
C78   C     C_3   0.916565 0.106269 0.961604 0.082358
H46   H     H_    0.919303 0.953380 0.955405 0.151547
H47   H     H_    0.923515 0.172893 0.921613 0.105147
C79   C     C_3   0.861553 0.152660 0.970326 -0.317490
H48   H     H_    0.855300 0.088238 0.010688 0.205825
H49   H     H_    0.857384 0.306159 0.973628 0.197276
C80   C     C_3   0.819953 0.080990 0.920979 -0.842996
H50   H     H_    0.825070 0.145242 0.880217 0.231278
H51   H     H_    0.780637 0.118027 0.928443 0.237473
H52   H     H_    0.822473 0.926924 0.917687 0.230129
O25   O     O_3   0.917207 0.866706 0.541872 -0.549370
C81   C     C_3   0.926585 0.876950 0.601898 0.121407
H53   H     H_    0.924861 0.024398 0.615796 0.111512
H54   H     H_    0.965157 0.816123 0.621741 0.149770
C82   C     C_3   0.884520 0.767586 0.623259 -0.717979
H55   H     H_    0.885605 0.619111 0.610364 0.222821
H56   H     H_    0.891217 0.775572 0.670517 0.171759
H57   H     H_    0.845437 0.826415 0.605048 0.224603
O26   O     O_3   0.082529 0.133115 0.458128 -0.549515
C83   C     C_3   0.072978 0.122764 0.398090 0.120997
H58   H     H_    0.034284 0.182861 0.378343 0.149959
H59   H     H_    0.074869 0.975355 0.384218 0.111820
C84   C     C_3   0.114768 0.232927 0.376505 -0.716652
H60   H     H_    0.153958 0.174653 0.394525 0.224302
H61   H     H_    0.107884 0.225028 0.329235 0.172261
H62   H     H_    0.113548 0.381328 0.389432 0.222822
O27   O     O_3   0.582798 0.366755 0.958129 -0.549369
C85   C     C_3   0.573410 0.376923 0.898101 0.121388
H63   H     H_    0.575114 0.524357 0.884183 0.111516
H64   H     H_    0.534844 0.316024 0.878272 0.149807
C86   C     C_3   0.615482 0.267590 0.876746 -0.717998
H65   H     H_    0.614425 0.119138 0.889672 0.222834
H66   H     H_    0.608771 0.275474 0.829485 0.171763
H67   H     H_    0.654558 0.326516 0.894931 0.224613
O28   O     O_3   0.417469 0.633093 0.041871 -0.549508
C87   C     C_3   0.427005 0.622620 0.101907 0.121020
H68   H     H_    0.465701 0.682656 0.121674 0.149923
H69   H     H_    0.425099 0.475185 0.115750 0.111817
C88   C     C_3   0.385218 0.732756 0.123502 -0.716662
H70   H     H_    0.346023 0.674616 0.105433 0.224333
H71   H     H_    0.392072 0.724653 0.170768 0.172259
H72   H     H_    0.386473 0.881204 0.110635 0.222802
O29   O     O_3   0.976575 0.333811 0.446096 -0.558644
C89   C     C_3   0.928211 0.406268 0.453843 0.101872
H73   H     H_    0.935702 0.524496 0.484275 0.196124
H74   H     H_    0.902879 0.304317 0.470778 0.115757
C90   C     C_3   0.898002 0.477373 0.396909 -0.674399
H75   H     H_    0.888453 0.360001 0.366395 0.216542
H76   H     H_    0.861136 0.543738 0.402913 0.193616
H77   H     H_    0.921805 0.580732 0.378848 0.219849
O30   O     O_3   0.023223 0.666022 0.554074 -0.558675
C91   C     C_3   0.071596 0.593549 0.546365 0.101946
H78   H     H_    0.096927 0.695444 0.529407 0.115457
H79   H     H_    0.064120 0.475223 0.515968 0.196049
C92   C     C_3   0.101795 0.522623 0.603327 -0.674918
H80   H     H_    0.078007 0.419207 0.621389 0.219851
H81   H     H_    0.138687 0.456372 0.597361 0.193447
H82   H     H_    0.111296 0.640070 0.633822 0.216607
O31   O     O_3   0.523418 0.833797 0.053913 -0.558631
C93   C     C_3   0.571779 0.906274 0.046165 0.101851
H83   H     H_    0.564285 0.024495 0.015732 0.196106
H84   H     H_    0.597115 0.804332 0.029233 0.115764
C94   C     C_3   0.601986 0.977392 0.103099 -0.674388
H85   H     H_    0.611536 0.860024 0.133615 0.216545
H86   H     H_    0.638850 0.043764 0.097094 0.193616
H87   H     H_    0.578180 0.080746 0.121158 0.219846
O32   O     O_3   0.476781 0.166029 0.945921 -0.558698
C95   C     C_3   0.428409 0.093549 0.953631 0.101933
H88   H     H_    0.403076 0.195444 0.970586 0.115468
H89   H     H_    0.435887 0.975233 0.984031 0.196051
C96   C     C_3   0.398212 0.022609 0.896670 -0.674924
H90   H     H_    0.422002 0.919193 0.878612 0.219850
H91   H     H_    0.361321 0.956354 0.902637 0.193453
H92   H     H_    0.388711 0.140049 0.866173 0.216606

loop_
_geom_bond_atom_site_label_1
_geom_bond_atom_site_label_2
_ccdc_geom_bond_type
O17   V3    S    
C76   C77   S    
C89   H74   S    
C50   C57   S    
O1    C5    A    
C80   H50   S    
C23   H11   S    
O19   V1    S    
C53   C65   T    
O26   C83   S    
O12   C8    A    
O3    C7    A    
C10   C14   A    
C75   C76   S    
C48   C52   S    
C40   H20   S    
C28   C32   A    
O15   V3    S    
O22   C72   S    
C39   C43   A    
C60   O31   S    
C95   H88   S    
C74   H36   S    
C82   H55   S    
C94   H85   S    
O7    C3    A    
C52   C64   S    
C18   C22   A    
C91   H79   S    
C28   H16   S    
O9    V1    S    
C2    C55   S    
C75   H40   S    
C77   H43   S    
C96   H92   S    
C1    C56   S    
C93   H83   S    
O16   V4    S    
O4    C8    A    
C51   H23   S    
C86   H67   S    
C89   C90   S    
C83   H58   S    
C50   H22   S    
C76   H41   S    
C77   H45   S    
C52   H24   S    
O1    V3    S    
O13   V1    S    
C26   C30   A    
O2    V4    S    
O30   C91   S    
C78   C79   S    
C45   O25   S    
O3    V1    S    
C96   H90   S    
C69   H25   S    
C70   C71   S    
C57   C61   S    
C18   C41   S    
C58   C62   S    
C59   O32   S    
C21   C25   A    
C1    O15   A    
C34   O22   S    
C88   H72   S    
C2    O16   A    
C73   H34   S    
C91   C92   S    
C23   C27   A    
O2    C6    A    
C78   H46   S    
C24   C28   A    
O14   V2    S    
C37   H17   S    
C11   C15   A    
C10   C30   A    
O5    V1    S    
C9    C29   A    
C72   C73   S    
C38   C42   A    
O11   C7    A    
C89   H73   S    
C11   C31   A    
C80   H51   S    
C56   C68   T    
C84   H61   S    
C7    C30   S    
C90   H75   S    
C59   C63   S    
O10   V2    S    
C13   C17   A    
C48   C60   S    
C8    C29   S    
C46   C50   S    
C58   O29   S    
C77   H44   S    
C94   H86   S    
C27   H15   S    
O7    V3    S    
C91   H78   S    
C26   H14   S    
C5    C32   S    
O8    V4    S    
C47   C59   S    
C12   H4    S    
C33   O21   S    
C75   H39   S    
C46   C58   S    
C79   C80   S    
C86   H66   S    
C21   H9    S    
O18   V4    S    
C22   C26   A    
O32   C95   S    
C86   H65   S    
C47   C51   S    
C45   C62   S    
C50   C62   S    
C9    H1    S    
C60   C64   S    
C69   C70   S    
C10   H2    S    
C47   C64   S    
C90   H77   S    
C11   H3    S    
O5    C1    A    
C55   C67   T    
C54   C66   T    
C25   H13   S    
C49   C58   S    
C81   C82   S    
C38   H18   S    
C57   O30   S    
C36   O24   S    
O8    C4    A    
C4    O14   A    
O31   C93   S    
C79   H48   S    
O9    C5    A    
C16   H8    S    
C36   C43   A    
C70   H27   S    
C74   H38   S    
C14   C18   A    
C71   H31   S    
C73   H35   S    
O6    V2    S    
C52   C59   S    
C27   C31   A    
O27   C85   S    
C82   H57   S    
C93   H84   S    
C14   H6    S    
C74   H37   S    
C12   C16   A    
O12   V4    S    
C87   H69   S    
C49   H21   S    
C6    C31   S    
C64   C68   S    
C95   C96   S    
C71   H30   S    
C81   H53   S    
C22   H10   S    
C92   H82   S    
C25   C29   A    
C76   H42   S    
C92   H80   S    
C3    O13   A    
C33   C37   A    
C48   O28   S    
C79   H49   S    
C17   C42   S    
C20   C43   S    
C36   C40   A    
C15   H7    S    
C19   C44   S    
O6    C2    A    
C85   H64   S    
O23   C75   S    
C48   C63   S    
O11   V3    S    
C94   H87   S    
C16   C20   A    
C61   C65   S    
C80   H52   S    
C93   C94   S    
C51   C63   S    
C95   H89   S    
C96   H91   S    
C9    C13   A    
C62   C66   S    
O10   C6    A    
C87   C88   S    
C90   H76   S    
C72   H32   S    
C4    C53   S    
C40   C44   A    
C81   H54   S    
C35   O23   S    
O21   C69   S    
C39   H19   S    
C15   C19   A    
O28   C87   S    
O25   C81   S    
C37   C41   A    
C73   C74   S    
C17   C21   A    
C47   O27   S    
C46   O26   S    
O20   V2    S    
C84   H62   S    
C3    C54   S    
C19   C23   A    
C78   H47   S    
C34   C41   A    
C45   C49   S    
C88   H70   S    
C69   H26   S    
C33   C42   A    
C70   H28   S    
C85   C86   S    
C51   C60   S    
C84   H60   S    
C20   C24   A    
C35   C44   A    
C24   H12   S    
C82   H56   S    
O29   C89   S    
C34   C38   A    
C45   C57   S    
C13   H5    S    
O24   C78   S    
C71   H29   S    
C63   C67   S    
C83   H59   S    
C46   C61   S    
C88   H71   S    
C87   H68   S    
C92   H81   S    
C35   C39   A    
O4    V2    S    
C12   C32   A    
C49   C61   S    
C85   H63   S    
C72   H33   S    
C83   C84   S    
