data_mof_unit_20717.cif
_audit_creation_date              2012-12-11T14:21:08-0500
_audit_creation_method            fapswitch 2.2
_symmetry_space_group_name_H-M    P1
_symmetry_Int_Tables_number       1
_space_group_crystal_system       triclinic
_cell_length_a                    21.969156
_cell_length_b                    7.203792
_cell_length_c                    14.911436
_cell_angle_alpha                 89.959413
_cell_angle_beta                  106.830509
_cell_angle_gamma                 89.988212
_cell_volume                      2258.81609972

loop_
_atom_site_label
_atom_site_type_symbol
_atom_type_description
_atom_site_fract_x
_atom_site_fract_y
_atom_site_fract_z
_atom_type_partial_charge
O1    O     O_R   0.584770 0.505770 0.002090 -0.540691
O2    O     O_R   0.415230 0.005770 0.997910 -0.540723
O3    O     O_R   0.467060 0.173340 0.861950 -0.537293
O4    O     O_R   0.532940 0.673340 0.138050 -0.537257
C1    C     C_R   0.455038 0.344348 0.826041 0.679929
C2    C     C_R   0.544969 0.844179 0.173970 0.680120
O5    O     O_R   0.587510 0.175890 0.993210 -0.536970
O6    O     O_R   0.412490 0.675890 0.006790 -0.536928
O7    O     O_R   0.536540 0.008150 0.130100 -0.537046
O8    O     O_R   0.463460 0.508150 0.869900 -0.537057
C3    C     C_R   0.613453 0.343675 0.999135 0.736836
C4    C     C_R   0.386544 0.843702 0.000858 0.736866
O9    O     O_3   0.483140 0.340040 0.044760 -0.378105
O10   O     O_3   0.516860 0.840040 0.955240 -0.378173
V1    V     V_3+5 0.503130 0.064190 0.991700 1.420116
V2    V     V_3+5 0.496870 0.564190 0.008300 1.420301
C5    C     C_2   0.210351 0.727800 0.988523 -0.114794
C6    C     C_2   0.789679 0.227810 0.011539 -0.114493
C7    C     C_2   0.179151 0.887816 0.991004 -0.282440
C8    C     C_2   0.820846 0.387842 0.008995 -0.281827
H1    H     H_    0.185670 0.597820 0.990409 0.155940
H2    H     H_    0.814391 0.097834 0.009716 0.155200
H3    H     H_    0.201345 0.019919 0.985068 0.138224
H4    H     H_    0.798622 0.519933 0.014878 0.137677
C9    C     C_2   0.275868 0.713414 0.977784 0.179830
C10   C     C_2   0.724163 0.213374 0.022270 0.179990
C11   C     C_2   0.319335 0.853286 0.003498 -0.301028
C12   C     C_2   0.680657 0.353249 0.996473 -0.301008
H5    H     H_    0.305651 0.982724 0.029303 0.110755
H6    H     H_    0.694311 0.482716 0.970601 0.110499
C13   C     C_R   0.926890 0.890126 0.723795 -0.259672
C14   C     C_R   0.073178 0.389146 0.276137 -0.260131
C15   C     C_R   0.573511 0.852280 0.275246 -0.028031
C16   C     C_R   0.426503 0.353281 0.724787 -0.027877
C17   C     C_R   0.935987 0.940693 0.568319 -0.141899
C18   C     C_R   0.063594 0.430021 0.431952 -0.141812
C19   C     C_R   0.963846 0.933445 0.664664 0.546968
C20   C     C_R   0.035840 0.425819 0.335528 0.546734
C21   C     C_R   0.861462 0.858762 0.686748 0.493585
C22   C     C_R   0.138827 0.361536 0.312990 0.493027
C23   C     C_R   0.830790 0.886010 0.589600 -0.099528
C24   C     C_R   0.169217 0.385488 0.410409 -0.099572
C25   C     C_R   0.870048 0.917077 0.530118 -0.171830
C26   C     C_R   0.129686 0.409632 0.470063 -0.172243
C27   C     C_R   0.763103 0.883580 0.549277 0.098359
C28   C     C_R   0.236888 0.385930 0.450845 0.098188
C29   C     C_R   0.736612 0.884606 0.449603 -0.045531
C30   C     C_R   0.263293 0.382553 0.550510 -0.045748
C31   C     C_R   0.778186 0.905125 0.393609 -0.248993
C32   C     C_R   0.221532 0.396267 0.606583 -0.249546
C33   C     C_R   0.843244 0.925354 0.433102 0.701712
C34   C     C_R   0.156363 0.413951 0.567169 0.701795
C35   C     C_R   0.720934 0.892554 0.604959 -0.088979
C36   C     C_R   0.279036 0.401988 0.395409 -0.088360
C37   C     C_R   0.655548 0.884080 0.565621 -0.243218
C38   C     C_R   0.344457 0.396412 0.434782 -0.243087
C39   C     C_R   0.629206 0.870871 0.469053 0.142977
C40   C     C_R   0.370821 0.379109 0.531190 0.142850
C41   C     C_R   0.669155 0.872035 0.409329 0.116939
C42   C     C_R   0.330809 0.372770 0.590769 0.116992
C43   C     C_R   0.562824 0.860564 0.431609 -0.161664
C44   C     C_R   0.437260 0.372581 0.568680 -0.161574
C45   C     C_R   0.535152 0.851413 0.335152 -0.175787
C46   C     C_R   0.464928 0.360176 0.665049 -0.175917
C47   C     C_R   0.639675 0.860970 0.311564 -0.203657
C48   C     C_R   0.360293 0.357785 0.688399 -0.204351
H7    H     H_    0.666437 0.856028 0.261431 0.097597
H8    H     H_    0.333522 0.347393 0.738371 0.097999
H9    H     H_    0.483869 0.844226 0.307175 0.109292
H10   H     H_    0.516255 0.356741 0.693100 0.109254
H11   H     H_    0.625213 0.890378 0.611415 0.129372
H12   H     H_    0.374787 0.408392 0.389183 0.129352
H13   H     H_    0.966098 0.968670 0.523753 0.221157
H14   H     H_    0.033241 0.452671 0.476697 0.221134
H15   H     H_    0.761767 0.914023 0.318378 0.151253
H16   H     H_    0.237843 0.401669 0.681899 0.151308
H17   H     H_    0.736672 0.916620 0.679269 0.201847
H18   H     H_    0.263170 0.429661 0.321400 0.201926
H19   H     H_    0.532254 0.860366 0.477105 0.120829
H20   H     H_    0.467874 0.378384 0.523315 0.120908
O11   O     O_R   0.036450 0.233070 0.130130 -0.529017
O12   O     O_R   0.963550 0.733070 0.869870 -0.528000
O13   O     O_R   0.912470 0.560570 0.006790 -0.535064
O14   O     O_R   0.087530 0.060570 0.993210 -0.534702
C49   C     C_R   0.887205 0.392202 0.003588 0.769721
C50   C     C_R   0.112794 0.892181 0.996413 0.768958
O15   O     O_R   0.032920 0.562940 0.138050 -0.543391
O16   O     O_R   0.967080 0.062940 0.861950 -0.542767
O17   O     O_R   0.084790 0.730500 0.002090 -0.548478
O18   O     O_R   0.915210 0.230500 0.997910 -0.548676
C51   C     C_R   0.044813 0.394524 0.174518 0.849348
C52   C     C_R   0.955184 0.894692 0.825463 0.847624
O19   O     O_3   0.016820 0.396170 0.955260 -0.385930
O20   O     O_3   0.983180 0.896170 0.044740 -0.386771
V3    V     V_3+5 0.996880 0.672090 0.008300 1.562330
V4    V     V_3+5 0.003120 0.172090 0.991700 1.563598
F1    F     F_    0.027208 0.965106 0.700257 -0.644595
F2    F     F_    0.972236 0.453544 0.300101 -0.645269
F3    F     F_    0.830092 0.793168 0.746327 -0.713345
F4    F     F_    0.170723 0.301874 0.252925 -0.713700
C53   C     C_3   0.291363 0.532461 0.937715 -0.687462
H21   H     H_    0.248170 0.445908 0.909877 0.196648
H22   H     H_    0.311296 0.559886 0.878501 0.197069
H23   H     H_    0.325450 0.450208 0.992938 0.208326
C54   C     C_3   0.708711 0.032393 0.062443 -0.687357
H24   H     H_    0.751927 0.945829 0.090348 0.196690
H25   H     H_    0.688760 0.059803 0.121624 0.196751
H26   H     H_    0.674645 0.950185 0.007268 0.208049
F5    F     F_    0.880317 0.952142 0.375371 -0.650891
F6    F     F_    0.119057 0.434097 0.625052 -0.650494

loop_
_geom_bond_atom_site_label_1
_geom_bond_atom_site_label_2
_ccdc_geom_bond_type
C40   C44   A    
C48   H8    S    
O16   V4    S    
O4    V2    S    
C53   H21   S    
O15   C51   A    
C11   H5    S    
C35   H17   S    
O1    C3    A    
C20   F2    S    
C7    C50   S    
O2    C4    A    
C16   C48   A    
C2    O7    A    
C19   F1    S    
C15   C47   A    
C29   C31   A    
O5    C3    A    
C54   H25   S    
C44   H20   S    
C17   C19   A    
O14   C50   A    
C24   C28   A    
C39   C41   A    
C14   C51   S    
C40   C42   A    
O12   C52   A    
O14   V4    S    
C27   C29   A    
C43   C45   A    
C8    H4    S    
C44   C46   A    
C6    C10   S    
C45   H9    S    
C13   C21   A    
C47   H7    S    
O15   V3    S    
C32   C34   A    
C31   H15   S    
C46   H10   S    
C17   C25   A    
C15   C45   A    
C26   C34   A    
C30   C32   A    
C42   C48   A    
O6    V2    S    
C8    C49   S    
C23   C25   A    
C24   C26   A    
C9    C53   S    
C10   C54   S    
C30   C42   A    
C28   C30   A    
C35   C37   A    
C54   H26   S    
C36   C38   A    
C4    C11   S    
O16   C52   A    
C21   C23   A    
O11   V4    S    
C38   H12   S    
C27   C35   A    
C5    H1    S    
C13   C19   A    
O17   V3    S    
C7    H3    S    
C32   H16   S    
C21   F3    S    
C34   F6    S    
O6    C4    A    
O13   V3    S    
C1    C16   S    
C28   C36   A    
C16   C46   A    
O1    V2    S    
C39   C43   A    
O2    V1    S    
C18   H14   S    
O4    C2    A    
O13   C49   A    
O19   V4    S    
C14   C20   A    
C37   C39   A    
C18   C26   A    
C18   C20   A    
O3    V1    S    
C53   H22   S    
C17   H13   S    
O12   V3    S    
C6    H2    S    
C22   C24   A    
O3    C1    A    
C50   O17   A    
C22   F4    S    
C49   O18   A    
O18   V4    S    
C9    C11   D    
C54   H24   S    
C10   C12   D    
C2    C15   S    
C5    C9    S    
C12   H6    S    
O7    V1    S    
C1    O8    A    
O8    V2    S    
C41   C47   A    
C25   C33   A    
C3    C12   S    
C43   H19   S    
O5    V1    S    
C5    C7    D    
C38   C40   A    
C6    C8    D    
C14   C22   A    
O20   V3    S    
C31   C33   A    
C29   C41   A    
O11   C51   A    
C33   F5    S    
C13   C52   S    
O9    V2    S    
C23   C27   A    
O10   V1    S    
C53   H23   S    
C37   H11   S    
C36   H18   S    
