data_mof_unit_14864.cif
_audit_creation_date              2012-12-11T14:08:46-0500
_audit_creation_method            fapswitch 2.2
_symmetry_space_group_name_H-M    P1
_symmetry_Int_Tables_number       1
_space_group_crystal_system       triclinic
_cell_length_a                    28.1922
_cell_length_b                    7.162127
_cell_length_c                    17.325557
_cell_angle_alpha                 89.999976
_cell_angle_beta                  101.835718
_cell_angle_gamma                 89.999945
_cell_volume                      3423.93414548

loop_
_atom_site_label
_atom_site_type_symbol
_atom_type_description
_atom_site_fract_x
_atom_site_fract_y
_atom_site_fract_z
_atom_type_partial_charge
O1    O     O_R   0.000700 0.436510 0.857920 -0.530060
O2    O     O_R   0.999300 0.563490 0.142080 -0.526984
O3    O     O_R   0.999300 0.936510 0.642080 -0.530059
O4    O     O_R   0.000700 0.063490 0.357920 -0.526990
O5    O     O_R   0.930080 0.766380 0.721890 -0.504006
O6    O     O_R   0.069920 0.233620 0.278110 -0.540050
O7    O     O_R   0.069920 0.266380 0.778110 -0.504006
O8    O     O_R   0.930080 0.733620 0.221890 -0.540046
C1    C     C_R   0.910262 0.597623 0.710983 0.767919
C2    C     C_R   0.089606 0.402737 0.290408 0.769891
C3    C     C_R   0.089737 0.097622 0.789017 0.767921
C4    C     C_R   0.910393 0.902737 0.209591 0.769889
O9    O     O_R   0.996180 0.766230 0.862310 -0.505843
O10   O     O_R   0.003820 0.233770 0.137690 -0.509588
O11   O     O_R   0.003820 0.266230 0.637690 -0.505843
O12   O     O_R   0.996180 0.733770 0.362310 -0.509590
O13   O     O_R   0.065870 0.936460 0.783500 -0.552267
O14   O     O_R   0.934130 0.063540 0.216500 -0.514993
O15   O     O_R   0.934130 0.436460 0.716500 -0.552266
O16   O     O_R   0.065870 0.563540 0.283500 -0.515003
C5    C     C_R   0.998308 0.595719 0.894260 0.741536
C6    C     C_R   0.001665 0.404274 0.105734 0.744130
C7    C     C_R   0.001691 0.095719 0.605740 0.741537
C8    C     C_R   0.998335 0.904274 0.394266 0.744105
O17   O     O_3   0.022790 0.603020 0.723980 -0.356845
O18   O     O_3   0.977210 0.396980 0.276020 -0.351275
O19   O     O_3   0.977210 0.103020 0.776020 -0.356845
O20   O     O_3   0.022790 0.896980 0.223980 -0.351280
V1    V     V_3+5 0.995770 0.877900 0.754830 1.698651
V2    V     V_3+5 0.004230 0.122100 0.245170 1.711171
V3    V     V_3+5 0.004230 0.377900 0.745170 1.698651
V4    V     V_3+5 0.995770 0.622100 0.254830 1.711174
C9    C     C_2   0.006814 0.078816 0.522545 0.132324
C10   C     C_2   0.993257 0.921129 0.477479 0.131231
C11   C     C_2   0.993186 0.578816 0.977455 0.132330
C12   C     C_2   0.006743 0.421129 0.022521 0.131231
C13   C     C_R   0.683915 0.920499 0.014835 0.679357
C14   C     C_R   0.317616 0.012741 0.961497 0.664068
C15   C     C_R   0.316083 0.420569 0.485163 0.679329
C16   C     C_R   0.682383 0.512748 0.538505 0.664063
O21   O     O_2   0.713645 0.935524 0.963218 -0.485142
O22   O     O_2   0.288949 0.036405 0.014315 -0.484367
O23   O     O_2   0.286353 0.435623 0.536778 -0.485145
O24   O     O_2   0.711051 0.536402 0.485687 -0.484367
N1    N     N_R   0.703159 0.906798 0.093721 -0.548736
N2    N     N_R   0.297713 0.015385 0.882688 -0.547083
N3    N     N_R   0.296840 0.406835 0.406278 -0.548733
N4    N     N_R   0.702286 0.515395 0.617315 -0.547082
C17   C     C_R   0.674021 0.887617 0.147498 0.702767
C18   C     C_R   0.325776 0.989837 0.827616 0.701572
C19   C     C_R   0.325978 0.387629 0.352503 0.702770
C20   C     C_R   0.674223 0.489857 0.672386 0.701579
C21   C     C_R   0.777961 0.075206 0.160769 -0.047950
C22   C     C_R   0.226516 0.214595 0.823459 -0.046998
C23   C     C_R   0.222037 0.575201 0.339201 -0.047979
C24   C     C_R   0.773484 0.714597 0.676546 -0.047005
C25   C     C_R   0.828562 0.070906 0.192935 0.259448
C26   C     C_R   0.175421 0.233371 0.798272 0.269301
C27   C     C_R   0.171437 0.570887 0.307035 0.259437
C28   C     C_R   0.824579 0.733374 0.701731 0.269303
C29   C     C_R   0.832731 0.756123 0.141882 -0.181879
C30   C     C_R   0.164825 0.919726 0.846018 -0.171273
C31   C     C_R   0.167267 0.256156 0.358140 -0.181894
C32   C     C_R   0.835175 0.419729 0.653983 -0.171277
C33   C     C_R   0.782890 0.757867 0.112516 -0.100023
C34   C     C_R   0.214831 0.898803 0.868051 -0.088719
C35   C     C_R   0.217108 0.257911 0.387508 -0.099991
C36   C     C_R   0.785169 0.398808 0.631950 -0.088712
C37   C     C_R   0.755136 0.915256 0.121245 0.312043
C38   C     C_R   0.246041 0.043971 0.857688 0.305084
C39   C     C_R   0.244862 0.415283 0.378752 0.312029
C40   C     C_R   0.753959 0.543976 0.642315 0.305079
C41   C     C_R   0.602366 0.910086 0.041513 -0.099231
C42   C     C_R   0.397890 0.967285 0.932835 -0.095564
C43   C     C_R   0.397633 0.410131 0.458488 -0.099234
C44   C     C_R   0.602109 0.467311 0.567167 -0.095566
C45   C     C_R   0.633379 0.921823 0.987304 -0.027899
C46   C     C_R   0.367694 0.987578 0.987917 -0.038702
C47   C     C_R   0.366619 0.421893 0.512695 -0.027907
C48   C     C_R   0.632306 0.487592 0.512086 -0.038701
C49   C     C_R   0.613462 0.938779 0.906801 -0.006437
C50   C     C_R   0.388002 0.985556 0.068492 -0.032695
C51   C     C_R   0.386535 0.438874 0.593197 -0.006444
C52   C     C_R   0.611998 0.485565 0.431510 -0.032690
C53   C     C_R   0.622763 0.890950 0.123019 -0.114738
C54   C     C_R   0.376860 0.967295 0.851162 -0.113048
C55   C     C_R   0.377236 0.390968 0.376983 -0.114735
C56   C     C_R   0.623138 0.467326 0.648840 -0.113049
C57   C     C_R   0.856540 0.911178 0.182057 -0.097826
C58   C     C_R   0.143973 0.085819 0.811212 -0.109966
C59   C     C_R   0.143459 0.411180 0.317940 -0.097826
C60   C     C_R   0.856027 0.585821 0.688790 -0.109967
H1    H     H_    0.852827 0.632241 0.132413 0.183772
H2    H     H_    0.142335 0.804003 0.856830 0.182965
H3    H     H_    0.147170 0.132291 0.367630 0.183724
H4    H     H_    0.857664 0.304005 0.643170 0.182966
H5    H     H_    0.765554 0.635154 0.082813 0.168568
H6    H     H_    0.229582 0.768340 0.894162 0.157886
H7    H     H_    0.234445 0.135221 0.417231 0.168590
H8    H     H_    0.770417 0.268348 0.605838 0.157892
H9    H     H_    0.636518 0.949905 0.864068 0.194366
H10   H     H_    0.365573 0.002254 0.111867 0.213335
H11   H     H_    0.363480 0.450022 0.635928 0.194372
H12   H     H_    0.634426 0.502254 0.388135 0.213331
C61   C     C_R   0.479708 0.936598 0.904594 -0.015374
C62   C     C_R   0.520086 0.916372 0.068901 -0.016511
C63   C     C_R   0.520290 0.436651 0.595407 -0.015376
C64   C     C_R   0.479913 0.416395 0.431101 -0.016513
C65   C     C_R   0.469177 0.941289 0.042138 0.059501
C66   C     C_R   0.531101 0.932188 0.931757 0.063493
C67   C     C_R   0.530822 0.441312 0.457864 0.059501
C68   C     C_R   0.468897 0.432251 0.568244 0.063492
C69   C     C_R   0.449075 0.947887 0.959866 0.077858
C70   C     C_R   0.551022 0.919070 0.013978 0.078144
C71   C     C_R   0.550924 0.447921 0.540136 0.077859
C72   C     C_R   0.448976 0.419114 0.486023 0.078145
C73   C     C_R   0.457782 0.929791 0.823652 -0.225266
C74   C     C_R   0.541168 0.888401 0.149268 -0.213228
C75   C     C_R   0.542215 0.429850 0.676350 -0.225269
C76   C     C_R   0.458832 0.388401 0.350735 -0.213228
C77   C     C_R   0.407745 0.944710 0.796847 0.417453
C78   C     C_R   0.591121 0.876776 0.176454 0.429073
C79   C     C_R   0.592253 0.444754 0.703155 0.417451
C80   C     C_R   0.408879 0.376773 0.323549 0.429077
O25   O     O_2   0.304012 0.987591 0.750771 -0.456723
O26   O     O_2   0.695022 0.867191 0.224197 -0.454488
O27   O     O_2   0.695986 0.487612 0.749232 -0.456724
O28   O     O_2   0.304978 0.367166 0.275806 -0.454495
C81   C     C_R   0.563550 0.943996 0.879509 -0.122559
C82   C     C_R   0.437540 0.963653 0.095154 -0.130151
C83   C     C_R   0.436448 0.444088 0.620490 -0.122563
C84   C     C_R   0.562460 0.463665 0.404848 -0.130152
H13   H     H_    0.478685 0.908810 0.778867 0.157994
H14   H     H_    0.519525 0.871162 0.193254 0.159095
H15   H     H_    0.521311 0.408880 0.721134 0.157998
H16   H     H_    0.480475 0.371145 0.306752 0.159096
H17   H     H_    0.551694 0.963224 0.816875 0.133545
H18   H     H_    0.449925 0.970695 0.158141 0.148099
H19   H     H_    0.448304 0.463338 0.683122 0.133549
H20   H     H_    0.550075 0.470702 0.341860 0.148096
Cl1   Cl    Cl    0.037429 0.269415 0.489054 -0.575607
Cl2   Cl    Cl    0.962746 0.730300 0.511017 -0.574155
Cl3   Cl    Cl    0.962571 0.769414 0.010946 -0.575595
Cl4   Cl    Cl    0.037254 0.230301 0.988983 -0.574145
Cl5   Cl    Cl    0.151886 0.441220 0.749271 -0.638699
Cl6   Cl    Cl    0.855906 0.264347 0.248868 -0.641976
Cl7   Cl    Cl    0.848115 0.941227 0.750727 -0.638702
Cl8   Cl    Cl    0.144093 0.764277 0.251067 -0.641917
C85   C     C_2   0.258913 0.374502 0.814682 0.466127
H21   H     H_    0.247020 0.482819 0.771368 0.131150
O29   O     O_2   0.299046 0.390382 0.856997 -0.525102
C86   C     C_2   0.749468 0.247336 0.168411 0.460645
H22   H     H_    0.762661 0.349522 0.213865 0.130959
O30   O     O_2   0.711265 0.280217 0.122823 -0.521604
C87   C     C_2   0.741087 0.874498 0.685329 0.466141
H23   H     H_    0.752980 0.982803 0.728649 0.131154
O31   O     O_2   0.700954 0.890386 0.643014 -0.525104
C88   C     C_2   0.250530 0.747314 0.331532 0.460691
H24   H     H_    0.237342 0.849442 0.286052 0.130988
O32   O     O_2   0.288728 0.780245 0.377126 -0.521606
Cl9   Cl    Cl    0.387179 0.934425 0.693450 -0.583484
Cl10  Cl    Cl    0.610573 0.846532 0.279314 -0.579423
Cl11  Cl    Cl    0.612818 0.434469 0.806553 -0.583473
Cl12  Cl    Cl    0.389428 0.346502 0.220691 -0.579432

loop_
_geom_bond_atom_site_label_1
_geom_bond_atom_site_label_2
_ccdc_geom_bond_type
O17   V3    S    
C61   C66   A    
O1    C5    A    
C34   H6    S    
C23   C27   A    
O19   V1    S    
O13   V1    S    
C63   C68   A    
C64   C76   A    
O3    C7    A    
C11   C12   D    
C48   C52   A    
C73   H13   S    
C26   Cl5   S    
O4    V2    S    
C49   H9    S    
O7    C3    A    
C17   O26   S    
C25   C57   A    
C62   C70   A    
C19   O28   S    
C32   C36   A    
O9    V1    S    
N4    C40   S    
C14   O22   S    
N4    C20   A    
C85   O29   D    
O16   V4    S    
C55   C80   A    
O4    C8    A    
C29   H1    S    
C87   O31   D    
C31   H3    S    
O1    V3    S    
C44   C71   A    
C66   C81   A    
O2    V4    S    
C31   C59   A    
C74   C78   A    
O3    V1    S    
C73   C77   A    
C1    O15   A    
C23   C88   S    
C3    O13   A    
C2    O16   A    
C7    C9    S    
O2    C6    A    
C21   C86   S    
C16   C48   A    
O14   V2    S    
C28   Cl7   S    
N1    C17   A    
C50   C82   A    
C66   C70   A    
C74   H14   S    
C65   C69   A    
C27   Cl8   S    
O11   C7    A    
O15   V3    S    
O12   C8    A    
C25   Cl6   S    
C62   C74   A    
C88   O32   D    
C61   C73   A    
O10   V2    S    
C56   C79   A    
C1    C60   S    
C63   C75   A    
C20   O27   S    
C29   C57   A    
C22   C85   S    
O5    V1    S    
C28   C60   A    
C31   C35   A    
C87   H23   S    
O7    V3    S    
C30   C34   A    
N1    C37   S    
O8    V4    S    
C17   C53   A    
C4    C57   S    
C20   C56   A    
C32   H4    S    
C19   C55   A    
C21   C25   A    
O18   V4    S    
N3    C19   A    
C14   C46   A    
C24   C40   A    
C21   C37   A    
C42   C69   A    
C13   C45   A    
C52   C84   A    
C75   H15   S    
C41   C70   A    
C24   C28   A    
C36   C40   A    
C76   H16   S    
C15   C47   A    
C36   H8    S    
O5    C1    A    
C79   Cl11  S    
C46   C50   A    
C49   C81   A    
C22   C38   A    
C45   C49   A    
O8    C4    A    
C77   Cl9   S    
C54   C77   A    
C9    C10   D    
C50   H10   S    
O9    C5    A    
C53   C78   A    
C18   O25   S    
C27   C59   A    
C42   C54   A    
C26   C58   A    
C41   C53   A    
C51   H11   S    
C24   C87   S    
C43   C55   A    
O6    V2    S    
C86   O30   D    
C2    C59   S    
C75   C79   A    
C30   H2    S    
C88   H24   S    
C52   H12   S    
C84   H20   S    
N3    C39   S    
C13   N1    A    
C82   H18   S    
C68   C72   A    
N2    C38   S    
C15   N3    A    
C22   C26   A    
C61   C69   A    
C16   N4    A    
C44   C56   A    
C10   Cl2   S    
C41   C45   A    
C44   C48   A    
O6    C2    A    
C15   O23   S    
O11   V3    S    
C5    C11   S    
C35   H7    S    
O12   V4    S    
C6    C12   S    
N2    C18   A    
C78   Cl10  S    
C64   C67   A    
C9    Cl1   S    
C64   C72   A    
O20   V2    S    
C51   C83   A    
C12   Cl4   S    
C33   H5    S    
C85   H21   S    
C47   C51   A    
C3    C58   S    
O10   C6    A    
C34   C38   A    
C33   C37   A    
C30   C58   A    
C63   C71   A    
C35   C39   A    
C68   C83   A    
C13   O21   S    
C8    C10   S    
C14   N2    A    
C83   H19   S    
C18   C54   A    
C29   C33   A    
C67   C84   A    
C16   O24   S    
C81   H17   S    
C86   H22   S    
C42   C46   A    
C4    O14   A    
C65   C82   A    
C32   C60   A    
C67   C71   A    
C43   C72   A    
C43   C47   A    
C23   C39   A    
C76   C80   A    
C11   Cl3   S    
C80   Cl12  S    
C62   C65   A    
