data_mof_unit_46592.cif
_audit_creation_date              2012-12-10T18:09:30-0500
_audit_creation_method            fapswitch 2.2
_symmetry_space_group_name_H-M    P1
_symmetry_Int_Tables_number       1
_space_group_crystal_system       triclinic
_cell_length_a                    15.927764
_cell_length_b                    14.965211
_cell_length_c                    9.529038
_cell_angle_alpha                 90.536344
_cell_angle_beta                  90.40228
_cell_angle_gamma                 90.44915
_cell_volume                      2271.13741333

loop_
_atom_site_label
_atom_site_type_symbol
_atom_type_description
_atom_site_fract_x
_atom_site_fract_y
_atom_site_fract_z
_atom_type_partial_charge
C1    C     C_R   0.116936 0.375510 0.500078 0.752039
C2    C     C_R   0.119702 0.620394 0.501029 0.776076
C3    C     C_R   0.616936 0.875510 0.500078 0.752036
C4    C     C_R   0.619703 0.120394 0.501029 0.776075
C5    C     C_3   0.087516 0.494661 0.083911 -0.200451
C6    C     C_3   0.087594 0.497916 0.918765 -0.198580
C7    C     C_3   0.587516 0.994661 0.083911 -0.200452
C8    C     C_3   0.587594 0.997916 0.918765 -0.198580
C9    C     C_R   0.882580 0.377248 0.499309 0.790182
C10   C     C_R   0.884174 0.623649 0.500159 0.815175
C11   C     C_R   0.382580 0.877248 0.499309 0.790180
C12   C     C_R   0.384174 0.123649 0.500159 0.815176
C13   C     C_3   0.838472 0.224830 0.598086 0.672412
C14   C     C_3   0.796792 0.266267 0.347030 0.636306
C15   C     C_3   0.820800 0.753094 0.636908 0.635598
C16   C     C_3   0.823129 0.756412 0.369636 0.617257
C17   C     C_3   0.338473 0.724829 0.598083 0.672411
C18   C     C_3   0.296789 0.766271 0.347031 0.636306
C19   C     C_3   0.320800 0.253093 0.636909 0.635599
C20   C     C_3   0.323131 0.256413 0.369637 0.617259
C21   C     C_3   0.272300 0.648588 0.572595 -0.072657
C22   C     C_3   0.210989 0.717143 0.348461 -0.041747
C23   C     C_3   0.241082 0.312684 0.641913 -0.029187
C24   C     C_3   0.242551 0.314845 0.363320 -0.022416
C25   C     C_3   0.772300 0.148589 0.572599 -0.072659
C26   C     C_3   0.710991 0.217140 0.348460 -0.041741
C27   C     C_3   0.741083 0.812685 0.641912 -0.029184
C28   C     C_3   0.742549 0.814843 0.363319 -0.022414
C29   C     C_3   0.733538 0.347767 0.558994 -0.381022
C30   C     C_3   0.729873 0.642683 0.495250 -0.419186
C31   C     C_3   0.233539 0.847767 0.558999 -0.381020
C32   C     C_3   0.229873 0.142684 0.495247 -0.419185
C33   C     C_3   0.815711 0.305223 0.499242 -0.071718
C34   C     C_3   0.816898 0.693744 0.500434 -0.067407
C35   C     C_3   0.315710 0.805223 0.499243 -0.071719
C36   C     C_3   0.316899 0.193744 0.500434 -0.067408
C37   C     C_3   0.190005 0.688156 0.503321 -0.090173
C38   C     C_3   0.186374 0.304317 0.500708 -0.111407
C39   C     C_3   0.690005 0.188155 0.503320 -0.090176
C40   C     C_3   0.686374 0.804317 0.500709 -0.111408
C41   C     C_3   0.165803 0.774714 0.584855 -0.371871
C42   C     C_3   0.153324 0.206997 0.496318 -0.446072
C43   C     C_3   0.665802 0.274715 0.584851 -0.371876
C44   C     C_3   0.653324 0.706997 0.496323 -0.446076
C45   C     C_3   0.961970 0.582378 0.084455 0.073815
C46   C     C_3   0.959320 0.580750 0.916236 0.089872
C47   C     C_3   0.951287 0.424287 0.082024 0.120329
C48   C     C_3   0.955046 0.420663 0.914692 0.050410
C49   C     C_3   0.461970 0.082378 0.084455 0.073816
C50   C     C_3   0.459319 0.080749 0.916237 0.089871
C51   C     C_3   0.451288 0.924286 0.082024 0.120325
C52   C     C_3   0.455046 0.920663 0.914692 0.050414
Cu1   Cu    Cu3+1 0.000100 0.500000 0.642410 0.931654
Cu2   Cu    Cu3+1 0.000100 0.500000 0.357590 0.969934
Cu3   Cu    Cu3+1 0.500100 0.000000 0.642410 0.931654
Cu4   Cu    Cu3+1 0.500100 0.000000 0.357590 0.969934
H1    H     H_    0.298335 0.599392 0.496193 0.136705
H2    H     H_    0.214661 0.656899 0.279069 0.121327
H3    H     H_    0.260682 0.383876 0.652774 0.128163
H4    H     H_    0.261215 0.386568 0.357260 0.130826
H5    H     H_    0.798335 0.099391 0.496199 0.136702
H6    H     H_    0.714665 0.156894 0.279070 0.121325
H7    H     H_    0.760683 0.883878 0.652771 0.128162
H8    H     H_    0.761212 0.886565 0.357255 0.130827
H9    H     H_    0.746134 0.384351 0.659262 0.207429
H10   H     H_    0.708994 0.397810 0.483754 0.204829
H11   H     H_    0.724972 0.597001 0.586377 0.196560
H12   H     H_    0.726252 0.599888 0.399226 0.208246
H13   H     H_    0.246135 0.884349 0.659268 0.207429
H14   H     H_    0.208994 0.897811 0.483762 0.204829
H15   H     H_    0.224971 0.097001 0.586372 0.196558
H16   H     H_    0.226254 0.099889 0.399222 0.208249
H17   H     H_    0.160783 0.761896 0.699015 0.198822
H18   H     H_    0.103236 0.799454 0.551323 0.172552
H19   H     H_    0.112200 0.192612 0.586807 0.177434
H20   H     H_    0.112449 0.194116 0.403428 0.183765
H21   H     H_    0.660781 0.261899 0.699011 0.198822
H22   H     H_    0.603237 0.299454 0.551314 0.172550
H23   H     H_    0.612201 0.692612 0.586815 0.177435
H24   H     H_    0.612447 0.694114 0.403436 0.183764
H25   H     H_    0.895353 0.583718 0.118477 0.195575
H26   H     H_    0.891667 0.576340 0.886625 0.183642
H27   H     H_    0.884205 0.434550 0.109828 0.173984
H28   H     H_    0.888985 0.421583 0.875405 0.158946
H29   H     H_    0.395354 0.083718 0.118478 0.195576
H30   H     H_    0.391667 0.076339 0.886626 0.183642
H31   H     H_    0.384206 0.934548 0.109828 0.173986
H32   H     H_    0.388985 0.921582 0.875405 0.158943
H33   H     H_    0.128461 0.548548 0.127133 0.148684
H34   H     H_    0.125163 0.555802 0.885109 0.132582
H35   H     H_    0.119049 0.433131 0.117741 0.177220
H36   H     H_    0.122665 0.440168 0.878661 0.187433
H37   H     H_    0.628461 0.048548 0.127133 0.148684
H38   H     H_    0.625162 0.055803 0.885110 0.132582
H39   H     H_    0.619049 0.933131 0.117741 0.177222
H40   H     H_    0.622665 0.940168 0.878661 0.187433
N1    N     N_3   0.001260 0.500000 0.143650 -0.155632
N2    N     N_3   0.001260 0.500000 0.856350 -0.161474
N3    N     N_3   0.501260 0.000000 0.143650 -0.155631
N4    N     N_3   0.501260 1.000000 0.856350 -0.161473
O1    O     O_R   0.091250 0.408820 0.620260 -0.620599
O2    O     O_R   0.091250 0.408820 0.379740 -0.578308
O3    O     O_R   0.091250 0.591180 0.620260 -0.580036
O4    O     O_R   0.091250 0.591180 0.379740 -0.582069
O5    O     O_R   0.591250 0.908820 0.620260 -0.620598
O6    O     O_R   0.591250 0.908820 0.379740 -0.578307
O7    O     O_R   0.591250 0.091180 0.620260 -0.580036
O8    O     O_R   0.591250 0.091180 0.379740 -0.582068
O9    O     O_R   0.908940 0.408800 0.620260 -0.597013
O10   O     O_R   0.908940 0.408800 0.379740 -0.509958
O11   O     O_R   0.908940 0.591200 0.620260 -0.523629
O12   O     O_R   0.908940 0.591200 0.379740 -0.525621
O13   O     O_R   0.408940 0.908800 0.620260 -0.597014
O14   O     O_R   0.408940 0.908800 0.379740 -0.509958
O15   O     O_R   0.408940 0.091200 0.620260 -0.523629
O16   O     O_R   0.408940 0.091200 0.379740 -0.525621
F1    F     F_    0.834621 0.253910 0.736766 -0.694974
F2    F     F_    0.793533 0.333985 0.248479 -0.674134
F3    F     F_    0.822895 0.697581 0.752996 -0.679338
F4    F     F_    0.829355 0.704255 0.248973 -0.686143
F5    F     F_    0.334623 0.753907 0.736764 -0.694977
F6    F     F_    0.293529 0.833990 0.248483 -0.674135
F7    F     F_    0.322893 0.197580 0.752996 -0.679336
F8    F     F_    0.329357 0.204256 0.248974 -0.686144
N5    N     N_3   0.922780 0.189323 0.572832 -0.638836
H41   H     H_    0.936095 0.142008 0.649802 0.249419
H42   H     H_    0.967536 0.239979 0.584626 0.176224
N6    N     N_3   0.860850 0.201496 0.304363 -0.660506
H43   H     H_    0.851882 0.183803 0.198844 0.224214
H44   H     H_    0.920786 0.228950 0.317316 0.238561
N7    N     N_3   0.896313 0.809911 0.645230 -0.624909
H45   H     H_    0.897705 0.842448 0.742892 0.234878
H46   H     H_    0.949621 0.769763 0.641380 0.220397
N8    N     N_3   0.897785 0.814420 0.373276 -0.621767
H47   H     H_    0.900912 0.849441 0.278904 0.235940
H48   H     H_    0.950990 0.774248 0.376667 0.213288
N9    N     N_3   0.422780 0.689322 0.572826 -0.638829
H49   H     H_    0.436098 0.642012 0.649804 0.249422
H50   H     H_    0.467536 0.739981 0.584609 0.176217
N10   N     N_3   0.360846 0.701499 0.304359 -0.660507
H51   H     H_    0.351877 0.683810 0.198838 0.224216
H52   H     H_    0.420782 0.728952 0.317313 0.238561
N11   N     N_3   0.396312 0.309910 0.645234 -0.624908
H53   H     H_    0.397703 0.342446 0.742897 0.234878
H54   H     H_    0.449620 0.269763 0.641382 0.220398
N12   N     N_3   0.397788 0.314420 0.373279 -0.621767
H55   H     H_    0.400915 0.349442 0.278908 0.235941
H56   H     H_    0.450993 0.274248 0.376670 0.213286
N13   N     N_3   0.259165 0.600152 0.703910 -0.549804
H57   H     H_    0.221576 0.637067 0.771851 0.260537
H58   H     H_    0.230876 0.538248 0.682892 0.215018
N14   N     N_3   0.146495 0.776870 0.291276 -0.535427
H59   H     H_    0.086839 0.752676 0.313921 0.225835
H60   H     H_    0.152131 0.778700 0.182077 0.248848
N15   N     N_3   0.195068 0.288562 0.771240 -0.523753
H61   H     H_    0.185354 0.219643 0.778694 0.273305
H62   H     H_    0.135229 0.312677 0.774946 0.235360
N16   N     N_3   0.197082 0.291967 0.231080 -0.528862
H63   H     H_    0.194819 0.223087 0.212455 0.278023
H64   H     H_    0.134136 0.304385 0.238351 0.218022
N17   N     N_3   0.759164 0.100154 0.703916 -0.549802
H65   H     H_    0.721573 0.137071 0.771854 0.260536
H66   H     H_    0.730875 0.038250 0.682899 0.215019
N18   N     N_3   0.646498 0.276866 0.291269 -0.535419
H67   H     H_    0.586841 0.252675 0.313921 0.225836
H68   H     H_    0.652134 0.278693 0.182067 0.248844
N19   N     N_3   0.695071 0.788565 0.771241 -0.523752
H69   H     H_    0.685357 0.719646 0.778699 0.273307
H70   H     H_    0.635230 0.812678 0.774947 0.235359
N20   N     N_3   0.697078 0.791962 0.231082 -0.528860
H71   H     H_    0.694817 0.723081 0.212460 0.278023
H72   H     H_    0.634131 0.804378 0.238358 0.218022
N21   N     N_3   0.001420 0.662813 0.144306 -0.527994
H73   H     H_    0.964841 0.718449 0.121246 0.243254
H74   H     H_    0.060201 0.673276 0.100301 0.181286
N22   N     N_3   0.991111 0.662926 0.851070 -0.506226
H75   H     H_    0.956541 0.717327 0.887270 0.240223
H76   H     H_    0.053991 0.675857 0.874568 0.186465
N23   N     N_3   0.975574 0.339922 0.145768 -0.519521
H77   H     H_    0.930977 0.292864 0.113341 0.229012
H78   H     H_    0.031792 0.317624 0.104133 0.215689
N24   N     N_3   0.992428 0.336206 0.867321 -0.611134
H79   H     H_    0.997652 0.334162 0.759896 0.282923
H80   H     H_    0.951615 0.283416 0.889310 0.259057
N25   N     N_3   0.501421 0.162813 0.144305 -0.527992
H81   H     H_    0.464842 0.218449 0.121246 0.243256
H82   H     H_    0.560202 0.173276 0.100299 0.181284
N26   N     N_3   0.491111 0.162927 0.851070 -0.506227
H83   H     H_    0.456540 0.217327 0.887270 0.240223
H84   H     H_    0.553990 0.175858 0.874566 0.186465
N27   N     N_3   0.475576 0.839921 0.145767 -0.519524
H85   H     H_    0.430980 0.792863 0.113339 0.229003
H86   H     H_    0.531794 0.817625 0.104130 0.215693
N28   N     N_3   0.492428 0.836206 0.867319 -0.611133
H87   H     H_    0.497652 0.834162 0.759895 0.282924
H88   H     H_    0.451615 0.783416 0.889308 0.259056

loop_
_geom_bond_atom_site_label_1
_geom_bond_atom_site_label_2
_ccdc_geom_bond_type
C16   C28   S    
N28   H88   S    
Cu3   Cu4   S    
C23   N15   S    
N15   H62   S    
C5    H33   S    
C8    H40   S    
C44   H24   S    
C16   N8    S    
N6    H43   S    
C14   C33   S    
N17   H65   S    
C7    C8    S    
C32   H16   S    
N21   H73   S    
C3    O5    A    
C43   H22   S    
C23   H3    S    
C4    O8    A    
C19   F7    S    
C42   H19   S    
C7    N3    S    
Cu3   O5    S    
C37   C41   S    
C32   C36   S    
Cu2   O4    S    
N18   H67   S    
N10   H52   S    
C38   C42   S    
C19   C36   S    
N13   H58   S    
C5    C6    S    
C24   N16   S    
C26   C39   S    
N25   H82   S    
N20   H71   S    
C28   C40   S    
Cu1   O9    S    
N11   H53   S    
C29   C33   S    
C14   N6    S    
Cu2   O10   S    
C21   C37   S    
N26   H84   S    
C11   O14   A    
N24   H79   S    
Cu4   O8    S    
C47   N23   S    
C16   C34   S    
C41   H18   S    
C46   H26   S    
C11   C35   S    
C31   H14   S    
C20   C24   S    
C25   N17   S    
C14   F2    S    
Cu3   N4    S    
C24   C38   S    
Cu2   N1    S    
C10   O12   A    
C21   N13   S    
C12   C36   S    
C18   C35   S    
C15   C34   S    
C30   H11   S    
C12   O15   A    
C13   N5    S    
Cu1   O11   S    
N22   H76   S    
N28   H87   S    
C46   N2    S    
C50   N26   S    
C29   C43   S    
N16   H64   S    
N18   H68   S    
C30   C44   S    
N17   H66   S    
C32   H15   S    
N12   H56   S    
N21   H74   S    
C3    O6    A    
C9    O9    A    
C7    H37   S    
C4    O7    A    
C22   N14   S    
C30   C34   S    
Cu2   O12   S    
N27   H85   S    
C49   H29   S    
C52   H32   S    
C8    H38   S    
N10   H51   S    
N19   H70   S    
Cu1   O1    S    
N19   H69   S    
N8    H48   S    
Cu3   O13   S    
N7    H46   S    
C45   C46   S    
C22   C37   S    
C52   N4    S    
C17   C21   S    
C48   H28   S    
Cu3   O7    S    
N26   H83   S    
C19   C23   S    
N27   H86   S    
C13   C33   S    
C45   N21   S    
C49   N3    S    
C51   N3    S    
N9    H50   S    
C31   H13   S    
C15   C27   S    
C47   C48   S    
C4    C39   S    
C2    O4    A    
C27   C40   S    
C24   H4    S    
C29   H10   S    
Cu4   O16   S    
C49   N25   S    
C10   O11   A    
C10   C34   S    
C25   H5    S    
C14   C26   S    
C18   N10   S    
Cu4   O6    S    
C5    H35   S    
C27   H7    S    
C1    C38   S    
C9    C33   S    
C29   H9    S    
C28   H8    S    
C28   N20   S    
N22   H75   S    
C18   F6    S    
C3    C40   S    
C1    O1    A    
C47   H27   S    
N16   H63   S    
C46   N22   S    
C32   C42   S    
C51   H31   S    
C52   N28   S    
C6    N2    S    
C51   N27   S    
N12   H55   S    
N9    H49   S    
C17   F5    S    
C9    O10   A    
N11   H54   S    
C19   N11   S    
C31   C41   S    
C18   C22   S    
C42   H20   S    
Cu2   O2    S    
C44   H23   S    
C45   H25   S    
N14   H60   S    
C13   C25   S    
N6    H44   S    
C22   H2    S    
C13   F1    S    
Cu1   Cu2   S    
N8    H47   S    
Cu1   N2    S    
C43   H21   S    
C23   C38   S    
C7    H39   S    
C21   H1    S    
C17   N9    S    
C50   N4    S    
C47   N1    S    
C16   F4    S    
C26   H6    S    
C51   C52   S    
C6    H34   S    
N13   H57   S    
C25   C39   S    
C48   N24   S    
Cu3   O15   S    
C2    C37   S    
N25   H81   S    
N5    H41   S    
N20   H72   S    
C2    O3    A    
Cu1   O3    S    
C6    H36   S    
C31   C35   S    
C26   N18   S    
C15   F3    S    
C5    N1    S    
C20   N12   S    
C48   N2    S    
C8    N4    S    
C11   O13   A    
N24   H80   S    
C20   F8    S    
C50   H30   S    
C41   H17   S    
N23   H77   S    
C20   C36   S    
C40   C44   S    
C15   N7    S    
N14   H59   S    
C39   C43   S    
C49   C50   S    
N15   H61   S    
N5    H42   S    
Cu4   O14   S    
C45   N1    S    
C17   C35   S    
Cu4   N3    S    
N23   H78   S    
C1    O2    A    
C30   H12   S    
N7    H45   S    
C27   N19   S    
C12   O16   A    
