data_mof_unit_16617.cif
_audit_creation_date              2012-12-10T20:38:19-0500
_audit_creation_method            fapswitch 2.2
_symmetry_space_group_name_H-M    P1
_symmetry_Int_Tables_number       1
_space_group_crystal_system       triclinic
_cell_length_a                    9.858482
_cell_length_b                    10.724944
_cell_length_c                    16.802152
_cell_angle_alpha                 90.567153
_cell_angle_beta                  85.341132
_cell_angle_gamma                 90.346113
_cell_volume                      1770.53865323

loop_
_atom_site_label
_atom_site_type_symbol
_atom_type_description
_atom_site_fract_x
_atom_site_fract_y
_atom_site_fract_z
_atom_type_partial_charge
C1    C     C_R   0.500238 0.739931 0.499624 0.931319
C2    C     C_R   0.528271 0.547573 0.264602 -0.035059
C3    C     C_R   0.376791 0.935658 0.512955 0.065532
C4    C     C_R   0.481315 0.499184 0.653345 0.877681
C5    C     C_R   0.499857 0.871798 0.505346 -0.112826
C6    C     C_R   0.622943 0.936810 0.507176 -0.215691
C7    C     C_R   0.622580 0.065156 0.510088 -0.218713
C8    C     C_R   0.498926 0.128651 0.508677 -0.090131
C9    C     C_R   0.376063 0.063362 0.515171 0.037312
C10   C     C_3   0.255476 0.073431 0.466774 -0.588801
C11   C     C_3   0.256997 0.930874 0.462964 0.416224
C12   C     C_R   0.342936 0.520569 0.782949 -0.232103
C13   C     C_R   0.924809 0.596776 0.534367 0.086561
C14   C     C_R   0.932985 0.410928 0.459747 -0.120464
C15   C     C_R   0.076989 0.411015 0.459666 -0.140814
C16   C     C_R   0.499639 0.260123 0.501012 0.883187
C17   C     C_R   0.067630 0.596368 0.534344 0.209582
C18   C     C_3   0.065913 0.637049 0.619307 0.244820
C19   C     C_3   0.910208 0.635728 0.620487 -0.362846
C20   C     C_R   0.518537 0.506998 0.347175 0.852295
C21   C     C_R   0.470501 0.509957 0.740132 -0.030495
C22   C     C_R   0.589106 0.519739 0.780310 -0.141568
C23   C     C_R   0.424053 0.653085 0.159147 -0.186882
C24   C     C_R   0.581016 0.549898 0.860718 -0.140464
C25   C     C_R   0.453686 0.570940 0.902091 0.205655
C26   C     C_R   0.334643 0.551736 0.863602 -0.188704
C27   C     C_3   0.374342 0.932734 0.332026 -0.300075
C28   C     C_3   0.152339 0.783486 0.703546 -0.274108
C29   C     C_2   0.839545 0.759440 0.634236 1.019114
C30   C     C_R   0.415265 0.605563 0.235523 -0.201225
C31   C     C_R   0.652270 0.542907 0.217530 -0.202757
C32   C     C_R   0.660279 0.588827 0.140112 -0.168989
C33   C     C_R   0.544664 0.639703 0.109992 0.203094
C34   C     C_2   0.441989 0.600990 0.987191 -0.232104
C35   C     C_2   0.543456 0.654201 0.024043 -0.243508
H1    H     H_    0.688512 0.506372 0.749555 0.152954
H2    H     H_    0.108421 0.564360 0.656908 0.074079
H3    H     H_    0.319975 0.615282 0.271907 0.186291
H4    H     H_    0.863608 0.560675 0.658759 0.114175
H5    H     H_    0.741535 0.501620 0.239887 0.152563
H6    H     H_    0.635593 0.686964 0.990839 0.149284
H7    H     H_    0.235484 0.562650 0.895676 0.124360
H8    H     H_    0.334773 0.694795 0.137039 0.137522
H9    H     H_    0.249852 0.508438 0.753916 0.144845
H10   H     H_    0.351237 0.567211 0.021609 0.151802
H11   H     H_    0.674605 0.555061 0.890024 0.118836
H12   H     H_    0.753888 0.577886 0.102273 0.123711
H13   H     H_    0.461748 0.976265 0.359614 0.166111
H14   H     H_    0.319292 0.003108 0.299113 0.166102
H15   H     H_    0.417292 0.863893 0.287409 0.191641
H16   H     H_    0.244939 0.733483 0.718417 0.173225
H17   H     H_    0.064486 0.760553 0.746972 0.144796
H18   H     H_    0.173118 0.884833 0.709032 0.191160
H19   H     H_    0.681594 0.852585 0.690065 0.334373
H20   H     H_    0.719524 0.889362 0.501171 0.214300
H21   H     H_    0.719423 0.113815 0.507988 0.183083
H22   H     H_    0.165381 0.110469 0.503397 0.192601
H23   H     H_    0.278554 0.124194 0.410080 0.198944
H24   H     H_    0.166117 0.889879 0.496536 0.174276
H25   H     H_    0.882492 0.337670 0.428518 0.144337
H26   H     H_    0.135170 0.337941 0.428286 0.149394
N1    N     N_R   0.857140 0.500860 0.500530 -0.110966
N2    N     N_R   0.142780 0.500820 0.500530 -0.134217
O1    O     O_R   0.385310 0.683210 0.499990 -0.574014
O2    O     O_3   0.125106 0.756955 0.624152 -0.574898
O3    O     O_2   0.884453 0.853454 0.600664 -0.631117
O4    O     O_R   0.721389 0.765596 0.685941 -0.826699
O5    O     O_R   0.614650 0.683240 0.500000 -0.626059
O6    O     O_R   0.371780 0.500000 0.615800 -0.629545
O7    O     O_R   0.601120 0.500040 0.615800 -0.608239
O8    O     O_R   0.385350 0.316760 0.500000 -0.617313
O9    O     O_R   0.614690 0.316790 0.500010 -0.633677
O10   O     O_R   0.398880 0.499960 0.384200 -0.615680
O11   O     O_R   0.628220 0.500000 0.384200 -0.618877
O12   O     O_3   0.282533 0.869941 0.387229 -0.589920
Zn1   Zn    Zn3+2 0.346870 0.499980 0.499990 0.974684
Zn2   Zn    Zn3+2 0.653130 0.500020 0.500010 0.957723

loop_
_geom_bond_atom_site_label_1
_geom_bond_atom_site_label_2
_ccdc_geom_bond_type
C27   H13   S    
N1    Zn2   S    
C16   O9    A    
C6    H20   S    
C4    O7    A    
C7    C8    A    
C18   O2    S    
C1    C5    S    
C32   H12   S    
C10   H23   S    
C18   H2    S    
C18   C19   S    
C5    C6    A    
C28   H16   S    
C27   O12   S    
N2    Zn1   S    
C14   N1    A    
C1    O5    A    
C23   H8    S    
C31   H5    S    
C30   H3    S    
O6    Zn1   S    
C34   C35   D    
C29   O4    S    
C13   N1    A    
C8    C9    A    
C23   C33   A    
O11   Zn2   S    
C9    C10   S    
C27   H15   S    
C25   C34   S    
C8    C16   S    
C21   C22   A    
O7    Zn2   S    
C16   O8    A    
C7    H21   S    
C11   H24   S    
C4    O6    A    
C15   H26   S    
C13   C19   S    
C2    C20   S    
C23   C30   A    
C10   H22   S    
C24   C25   A    
H19   O4    S    
C25   C26   A    
C12   C21   A    
C12   C26   A    
C2    C31   A    
O9    Zn2   S    
C3    C9    A    
C31   C32   A    
C17   C18   S    
O1    Zn1   S    
C20   O11   A    
C34   H10   S    
C19   H4    S    
O10   Zn1   S    
C22   C24   A    
C19   C29   S    
C1    O1    A    
C14   H25   S    
C26   H7    S    
O5    Zn2   S    
C3    C5    A    
C28   H18   S    
C6    C7    A    
C22   H1    S    
C13   C17   A    
C2    C30   A    
C24   H11   S    
C32   C33   A    
C28   O2    S    
C12   H9    S    
C11   O12   S    
C17   N2    A    
C4    C21   S    
C28   H17   S    
O8    Zn1   S    
C33   C35   S    
C20   O10   A    
C35   H6    S    
C3    C11   S    
C10   C11   S    
C29   O3    D    
C15   N2    A    
C14   C15   A    
C27   H14   S    
