data_mof_unit_11061.cif
_audit_creation_date              2012-10-26T19:22:31-0400
_audit_creation_method            fapswitch 2.2
_symmetry_space_group_name_H-M    P1
_symmetry_Int_Tables_number       1
_space_group_crystal_system       triclinic
_cell_length_a                    11.922137
_cell_length_b                    13.029071
_cell_length_c                    13.861648
_cell_angle_alpha                 83.635188
_cell_angle_beta                  91.601369
_cell_angle_gamma                 102.68723
_cell_volume                      2087.65484249

loop_
_atom_site_label
_atom_site_type_symbol
_atom_type_description
_atom_site_fract_x
_atom_site_fract_y
_atom_site_fract_z
_atom_type_partial_charge
C1    C     C_R   0.474553 0.298467 0.497989 0.539559
C2    C     C_R   0.845600 0.456572 0.546081 0.125988
C3    C     C_R   0.032763 0.541899 0.470568 -0.040113
C4    C     C_R   0.967658 0.461969 0.535467 -0.046711
C5    C     C_R   0.518495 0.500593 0.681576 0.536083
C6    C     C_R   0.481495 0.499471 0.318411 0.536592
C7    C     C_1   0.470195 0.499004 0.215831 -0.039695
C8    C     C_1   0.529689 0.501017 0.784149 -0.047154
C9    C     C_2   0.452979 0.498278 0.026044 0.375156
C10   C     C_2   0.546650 0.501598 0.973934 0.378299
C11   C     C_1   0.538330 0.501308 0.870599 0.039383
C12   C     C_R   0.525421 0.701634 0.501209 0.540713
C13   C     C_1   0.461386 0.498640 0.129385 0.046556
C14   C     C_R   0.547459 0.817946 0.506009 -0.057035
C15   C     C_R   0.452538 0.182403 0.491339 -0.057370
C16   C     C_R   0.376378 0.008429 0.573814 0.371383
C17   C     C_R   0.622165 0.991401 0.421544 0.370706
C18   C     C_R   0.361947 0.110235 0.543023 0.015587
C19   C     C_R   0.636706 0.889493 0.451959 0.014639
C20   C     C_R   0.530800 0.141623 0.439850 -0.018000
C21   C     C_R   0.469867 0.859225 0.557785 -0.016849
C22   C     C_3   0.408334 0.790498 0.645893 -0.183604
C23   C     C_R   0.537408 0.033323 0.462673 -0.017134
C24   C     C_3   0.281632 0.739943 0.626525 -0.319814
C25   C     C_3   0.594921 0.211871 0.353707 -0.179797
C26   C     C_3   0.722023 0.258498 0.375408 -0.324545
C27   C     C_3   0.751566 0.865454 0.427292 -0.233281
C28   C     C_3   0.853387 0.939021 0.471510 -0.408938
C29   C     C_3   0.245084 0.132939 0.562710 -0.237229
C30   C     C_3   0.147408 0.060045 0.513131 -0.403931
C31   C     C_3   0.781801 0.383308 0.630182 -0.177089
C32   C     C_3   0.817383 0.424458 0.728478 -0.373844
C33   C     C_3   0.216860 0.619917 0.372870 -0.186190
C34   C     C_R   0.462520 0.967134 0.534065 -0.017782
C35   C     C_3   0.174686 0.582554 0.274643 -0.395402
C36   C     C_3   0.793132 0.636962 0.324485 -0.229880
C37   C     C_3   0.864809 0.722479 0.252593 -0.400990
C38   C     C_3   0.202837 0.345776 0.666598 -0.224337
C39   C     C_3   0.205303 0.393265 0.762990 -0.372831
C40   C     C_R   0.028100 0.392984 0.590407 0.312538
C41   C     C_R   0.973438 0.613549 0.418665 0.328612
C42   C     C_R   0.148540 0.408713 0.586945 0.160626
C43   C     C_R   0.852193 0.591725 0.413505 0.154696
C44   C     C_R   0.154371 0.546483 0.457611 0.128569
Cu1   Cu    Cu3+1 0.615220 0.507680 0.492970 0.882948
Cu2   Cu    Cu3+1 0.384780 0.492320 0.507030 0.881602
F1    F     F_    0.650969 0.505353 0.017534 -0.658600
F2    F     F_    0.348658 0.494552 0.982452 -0.668171
F3    F     F_    0.301005 0.950313 0.640814 -0.683496
F4    F     F_    0.694810 0.048384 0.352034 -0.685289
F5    F     F_    0.973211 0.308084 0.649641 -0.699549
F6    F     F_    0.031905 0.708576 0.378130 -0.704924
H1    H     H_    0.250927 0.773032 0.555859 0.190904
H2    H     H_    0.552319 0.277987 0.328902 0.132999
H3    H     H_    0.863952 0.022202 0.439030 0.213739
H4    H     H_    0.842125 0.935323 0.551211 0.154287
H5    H     H_    0.933731 0.913052 0.457926 0.151211
H6    H     H_    0.762643 0.786854 0.456210 0.176466
H7    H     H_    0.760928 0.873317 0.347217 0.177422
H8    H     H_    0.164002 0.065986 0.434009 0.153418
H9    H     H_    0.136357 0.976321 0.544234 0.219620
H10   H     H_    0.065542 0.084798 0.523448 0.138662
H11   H     H_    0.230023 0.122812 0.642228 0.179993
H12   H     H_    0.269530 0.653090 0.626772 0.156852
H13   H     H_    0.235323 0.212075 0.533950 0.166149
H14   H     H_    0.797866 0.503668 0.730439 0.167176
H15   H     H_    0.768723 0.369398 0.787462 0.153770
H16   H     H_    0.910412 0.431852 0.743314 0.194190
H17   H     H_    0.689382 0.370407 0.626747 0.191747
H18   H     H_    0.790031 0.300771 0.628080 0.193428
H19   H     H_    0.224469 0.636221 0.215384 0.152156
H20   H     H_    0.187620 0.501297 0.270517 0.169034
H21   H     H_    0.082394 0.582119 0.262492 0.177309
H22   H     H_    0.213321 0.703253 0.376988 0.196934
H23   H     H_    0.226628 0.753153 0.685256 0.182586
H24   H     H_    0.308880 0.628336 0.373151 0.195090
H25   H     H_    0.901538 0.795080 0.287595 0.205666
H26   H     H_    0.933880 0.692356 0.220369 0.200951
H27   H     H_    0.808400 0.744554 0.192289 0.140125
H28   H     H_    0.759753 0.570101 0.281046 0.173913
H29   H     H_    0.721025 0.669246 0.346503 0.175342
H30   H     H_    0.246324 0.478891 0.754378 0.179768
H31   H     H_    0.116623 0.383572 0.790558 0.189691
H32   H     H_    0.254621 0.352003 0.817693 0.169879
H33   H     H_    0.152371 0.263080 0.677613 0.169018
H34   H     H_    0.453593 0.726568 0.672026 0.129733
H35   H     H_    0.288852 0.337123 0.649339 0.181311
H36   H     H_    0.416187 0.837611 0.708740 0.197673
H37   H     H_    0.736498 0.345123 0.378175 0.157154
H38   H     H_    0.750654 0.221823 0.445347 0.179308
H39   H     H_    0.777076 0.246192 0.316316 0.182396
H40   H     H_    0.586283 0.167174 0.289227 0.200217
N1    N     N_R   0.788370 0.519230 0.482390 -0.273571
N2    N     N_R   0.211630 0.480770 0.517610 -0.269683
O1    O     O_R   0.581500 0.354430 0.495010 -0.516656
O2    O     O_R   0.418500 0.645570 0.504990 -0.516356
O3    O     O_R   0.386890 0.341450 0.506880 -0.520587
O4    O     O_R   0.613110 0.658550 0.493120 -0.514965
O5    O     O_R   0.611060 0.507430 0.631070 -0.503545
O6    O     O_R   0.388940 0.492570 0.368930 -0.502790
O7    O     O_R   0.416450 0.494450 0.642940 -0.511344
O8    O     O_R   0.583550 0.505550 0.357060 -0.518447

loop_
_geom_bond_atom_site_label_1
_geom_bond_atom_site_label_2
_ccdc_geom_bond_type
C15   C18   A    
C29   H11   S    
C22   H34   S    
Cu1   N1    S    
Cu1   O8    S    
C28   H4    S    
C28   H5    S    
C26   H37   S    
C37   H27   S    
C17   C23   A    
C14   C21   A    
C36   C37   S    
C39   H32   S    
C38   C42   S    
Cu1   O4    S    
C38   C39   S    
C33   C35   S    
C20   C25   S    
C9    C13   S    
C16   C34   A    
C31   H18   S    
C3    C41   A    
C5    O5    A    
C30   H8    S    
C1    C15   S    
C22   H36   S    
C19   C27   S    
C9    C10   D    
C41   F6    S    
C12   O4    A    
C32   H16   S    
C40   C42   A    
C35   H19   S    
C24   H12   S    
C21   C22   S    
C41   C43   A    
C25   C26   S    
C28   H3    S    
C15   C20   A    
Cu2   O7    S    
C5    O7    A    
C3    C44   A    
C38   H33   S    
C4    C40   A    
C16   F3    S    
Cu1   O5    S    
C1    O3    A    
C21   C34   A    
C26   H39   S    
Cu1   Cu2   S    
C37   H25   S    
C2    C31   S    
C6    O6    A    
C2    C4    A    
C29   C30   S    
C33   H24   S    
C31   C32   S    
Cu2   N2    S    
C20   C23   A    
C7    C13   T    
C36   H29   S    
C1    O1    A    
C23   C34   A    
C18   C29   S    
C25   H2    S    
C32   H15   S    
C29   H13   S    
Cu2   O3    S    
C12   C14   S    
C35   H20   S    
C30   H10   S    
C36   H28   S    
C22   C24   S    
C3    C4    A    
Cu1   O1    S    
C10   F1    S    
C32   H14   S    
Cu2   O6    S    
C35   H21   S    
C25   H40   S    
C42   N2    A    
C33   C44   S    
C14   C19   A    
C2    N1    A    
C39   H30   S    
C27   H6    S    
C17   F4    S    
C5    C8    S    
C24   H23   S    
C6    C7    S    
C26   H38   S    
C40   F5    S    
C37   H26   S    
C38   H35   S    
C43   N1    A    
C24   H1    S    
C39   H31   S    
C27   H7    S    
C8    C11   T    
C17   C19   A    
C6    O8    A    
C44   N2    A    
C10   C11   S    
C33   H22   S    
C31   H17   S    
Cu2   O2    S    
C9    F2    S    
C16   C18   A    
C30   H9    S    
C27   C28   S    
C12   O2    A    
C36   C43   S    
