data_mof_unit_12080.cif
_audit_creation_date              2012-12-10T20:51:47-0500
_audit_creation_method            fapswitch 2.2
_symmetry_space_group_name_H-M    P1
_symmetry_Int_Tables_number       1
_space_group_crystal_system       triclinic
_cell_length_a                    8.095834
_cell_length_b                    8.931568
_cell_length_c                    16.800703
_cell_angle_alpha                 89.47316
_cell_angle_beta                  92.901733
_cell_angle_gamma                 90.038635
_cell_volume                      1213.22455199

loop_
_atom_site_label
_atom_site_type_symbol
_atom_type_description
_atom_site_fract_x
_atom_site_fract_y
_atom_site_fract_z
_atom_type_partial_charge
C1    C     C_R   0.499946 0.217951 0.500019 0.941197
C2    C     C_R   0.595645 0.395494 0.141576 -0.126581
C3    C     C_R   0.464115 0.404875 0.897996 0.219688
C4    C     C_R   0.502282 0.501494 0.095915 0.214200
C5    C     C_R   0.594651 0.340500 0.859814 -0.176238
C6    C     C_R   0.399533 0.603203 0.131383 -0.174978
C7    C     C_R   0.627102 0.381579 0.782118 -0.149154
C8    C     C_R   0.385651 0.603659 0.213472 -0.154654
C9    C     C_1   0.499959 0.065183 0.500122 -0.139421
C10   C     C_1   0.500111 0.934814 0.500239 -0.134101
C11   C     C_2   0.705417 0.289081 0.102046 0.926824
C12   C     C_R   0.500107 0.782042 0.500320 0.989624
C13   C     C_2   0.222385 0.579320 0.902016 0.932080
C14   C     C_2   0.773495 0.314742 0.746818 0.964776
C15   C     C_2   0.281889 0.721365 0.248087 0.972745
C16   C     C_R   0.518777 0.498147 0.654041 0.932084
C17   C     C_R   0.481296 0.501633 0.346369 1.011852
C18   C     C_R   0.519497 0.483535 0.740702 -0.161293
C19   C     C_R   0.478038 0.497942 0.260101 -0.175921
C20   C     C_R   0.385231 0.548008 0.778889 0.372889
C21   C     C_R   0.582925 0.393985 0.224864 0.358574
C22   C     C_R   0.357107 0.508623 0.858313 -0.149673
H1    H     H_    0.677730 0.264736 0.892930 0.200620
H2    H     H_    0.331165 0.683935 0.094055 0.205211
H3    H     H_    0.774426 0.265178 0.248709 0.359743
H4    H     H_    0.169533 0.638201 0.754495 0.372764
H5    H     H_    0.881281 0.259266 0.022808 0.368417
H6    H     H_    0.045063 0.553740 0.981181 0.377686
H7    H     H_    0.990455 0.348546 0.695333 0.343111
H8    H     H_    0.251584 0.868927 0.336433 0.350741
N1    N     N_1   0.073640 0.500030 0.499990 -0.013456
N2    N     N_1   0.926360 0.499970 0.500010 -0.006582
N3    N     N_2   0.463001 0.388670 0.980874 -0.110948
N4    N     N_2   0.507047 0.508195 0.012901 -0.126051
O1    O     O_R   0.636850 0.285340 0.500000 -0.605741
O2    O     O_3   0.283601 0.648258 0.736496 -0.704330
O3    O     O_2   0.700313 0.155322 0.118006 -0.574326
O4    O     O_R   0.813141 0.342115 0.045752 -0.780021
O5    O     O_2   0.193631 0.713188 0.894033 -0.570380
O6    O     O_R   0.131370 0.492935 0.954073 -0.765415
O7    O     O_2   0.791738 0.178826 0.747933 -0.597689
O8    O     O_R   0.895084 0.407255 0.716405 -0.772147
O9    O     O_2   0.154470 0.762501 0.212171 -0.585975
O10   O     O_R   0.332177 0.789623 0.319825 -0.810082
O11   O     O_R   0.363150 0.714660 0.500000 -0.597639
O12   O     O_R   0.363100 0.285350 0.500000 -0.629872
O13   O     O_R   0.636900 0.714650 0.500000 -0.618686
O14   O     O_R   0.652140 0.498630 0.616140 -0.597048
O15   O     O_R   0.347860 0.501370 0.383860 -0.619467
O16   O     O_R   0.378390 0.498650 0.616130 -0.585861
O17   O     O_R   0.621610 0.501350 0.383870 -0.580013
O18   O     O_3   0.671746 0.294333 0.274030 -0.728899
Zn1   Zn    Zn3+2 0.682780 0.499990 0.500010 1.062639
Zn2   Zn    Zn3+2 0.317220 0.500010 0.499990 1.045175

loop_
_geom_bond_atom_site_label_1
_geom_bond_atom_site_label_2
_ccdc_geom_bond_type
C13   C22   S    
C11   O4    S    
C2    C4    A    
H7    O8    S    
O1    Zn1   S    
C5    C7    A    
C9    C10   T    
N1    N2    T    
C5    H1    S    
O13   Zn1   S    
C14   O8    S    
C7    C18   A    
C6    H2    S    
C16   O14   A    
C2    C21   A    
N3    N4    D    
H3    O18   S    
C15   O9    D    
C16   C18   S    
H8    O10   S    
O16   Zn2   S    
O14   Zn1   S    
C10   C12   S    
C14   O7    D    
C2    C11   S    
H4    O2    S    
C17   C19   S    
O12   Zn2   S    
C20   C22   A    
O11   Zn2   S    
C8    C15   S    
C18   C20   A    
C12   O13   A    
N1    Zn2   S    
C15   O10   S    
C4    N4    S    
C1    O12   A    
C13   O5    D    
C8    C19   A    
C3    N3    S    
H5    O4    S    
O15   Zn2   S    
C20   O2    S    
C3    C5    A    
N2    Zn1   S    
C1    C9    S    
C1    O1    A    
C17   O17   A    
C4    C6    A    
C17   O15   A    
C11   O3    D    
H6    O6    S    
C3    C22   A    
C6    C8    A    
C19   C21   A    
C21   O18   S    
C7    C14   S    
O17   Zn1   S    
C16   O16   A    
C12   O11   A    
C13   O6    S    
