data_mof_unit_59972.cif
_audit_creation_date              2012-12-10T18:38:34-0500
_audit_creation_method            fapswitch 2.2
_symmetry_space_group_name_H-M    P1
_symmetry_Int_Tables_number       1
_space_group_crystal_system       triclinic
_cell_length_a                    15.876778
_cell_length_b                    15.094014
_cell_length_c                    13.814814
_cell_angle_alpha                 88.971389
_cell_angle_beta                  89.724258
_cell_angle_gamma                 89.349194
_cell_volume                      3309.85936879

loop_
_atom_site_label
_atom_site_type_symbol
_atom_type_description
_atom_site_fract_x
_atom_site_fract_y
_atom_site_fract_z
_atom_type_partial_charge
C1    C     C_R   0.500609 0.329059 0.501054 0.820145
C2    C     C_R   0.495092 0.669748 0.498950 0.908212
C3    C     C_R   0.518311 0.180193 0.588667 -0.003593
C4    C     C_R   0.407613 0.807090 0.463865 0.027117
C5    C     C_R   0.496442 0.231079 0.504096 -0.202996
C6    C     C_R   0.483952 0.765673 0.495992 -0.201903
C7    C     C_R   0.468771 0.187264 0.421471 0.574852
C8    C     C_R   0.551823 0.815834 0.525575 0.579032
C9    C     C_R   0.461814 0.096164 0.422615 -0.267705
C10   C     C_R   0.545518 0.906832 0.525709 -0.260812
C11   C     C_R   0.470026 0.047312 0.508844 0.008398
C12   C     C_R   0.469887 0.950095 0.502064 -0.007556
C13   C     C_R   0.555194 0.557087 0.106010 -0.102888
C14   C     C_R   0.439051 0.550159 0.892733 -0.087717
C15   C     C_R   0.552582 0.555578 0.208628 0.743054
C16   C     C_R   0.441215 0.549237 0.790073 0.763634
C17   C     C_R   0.448903 0.444351 0.209959 -0.007752
C18   C     C_R   0.558330 0.451120 0.791618 -0.057370
C19   C     C_R   0.449424 0.442857 0.108236 -0.296603
C20   C     C_R   0.558968 0.449773 0.893391 -0.327931
C21   C     C_R   0.502591 0.499204 0.054551 0.044424
C22   C     C_R   0.499424 0.499453 0.945620 0.055172
C23   C     C_R   0.339834 0.500387 0.500139 0.804461
C24   C     C_R   0.660405 0.500824 0.499739 0.841565
C25   C     C_3   0.974189 0.440874 0.549935 -0.047092
C26   C     C_3   0.028070 0.581269 0.444893 -0.043225
C27   C     C_3   0.030759 0.436579 0.459216 0.618372
C28   C     C_3   0.970821 0.585633 0.535489 0.627704
C29   C     C_1   0.250587 0.504730 0.500129 -0.147327
C30   C     C_1   0.750123 0.504114 0.498786 -0.128196
C31   C     C_3   0.027453 0.517356 0.589427 -0.057083
C32   C     C_3   0.974319 0.504866 0.405286 -0.054191
C33   C     C_3   0.084017 0.512271 0.498627 -0.100214
C34   C     C_3   0.917445 0.509441 0.496322 -0.101833
C35   C     C_1   0.175366 0.508762 0.499451 0.013456
C36   C     C_1   0.825618 0.507136 0.497500 0.028073
C37   C     C_R   0.492215 0.090216 0.595912 0.075592
C38   C     C_R   0.399026 0.901284 0.470243 0.080921
Cu1   Cu    Cu3+1 0.500000 0.499990 0.596430 1.007345
Cu2   Cu    Cu3+1 0.500000 0.500010 0.403570 1.010910
H1    H     H_    0.407376 0.400646 0.250028 0.204409
H2    H     H_    0.605132 0.413322 0.752715 0.155185
H3    H     H_    0.408096 0.398019 0.071460 0.165263
H4    H     H_    0.606365 0.410632 0.931352 0.167783
H5    H     H_    0.449983 0.063422 0.354983 0.169450
H6    H     H_    0.600344 0.944328 0.545915 0.175233
N1    N     N_R   0.500000 0.500020 0.258690 -0.240828
N2    N     N_R   0.500000 0.499980 0.741310 -0.218868
O1    O     O_R   0.500010 0.371450 0.581430 -0.606921
O2    O     O_R   0.499990 0.628550 0.418570 -0.550235
O3    O     O_R   0.500010 0.371460 0.418560 -0.525463
O4    O     O_R   0.499990 0.628540 0.581440 -0.523038
O5    O     O_R   0.379080 0.499990 0.581420 -0.530965
O6    O     O_R   0.620920 0.500010 0.418580 -0.529950
O7    O     O_R   0.379080 0.500000 0.418550 -0.607956
O8    O     O_R   0.620920 0.500000 0.581450 -0.585986
F1    F     F_    0.063627 0.359856 0.419978 -0.681251
F2    F     F_    0.937939 0.662455 0.574426 -0.663773
C39   C     C_3   0.940559 0.358968 0.603003 -0.370284
C40   C     C_3   0.011178 0.301622 0.647481 -0.313419
C41   C     C_3   0.976111 0.217398 0.694275 -0.859264
H7    H     H_    0.931199 0.234311 0.753208 0.256520
H8    H     H_    0.943423 0.177369 0.639507 0.265120
H9    H     H_    0.028521 0.177042 0.725583 0.246450
H10   H     H_    0.057482 0.282750 0.590736 0.267369
H11   H     H_    0.044433 0.339080 0.703723 0.213079
H12   H     H_    0.896115 0.380578 0.660366 0.186208
H13   H     H_    0.905468 0.319490 0.549714 0.209637
C42   C     C_3   0.066376 0.661806 0.392982 -0.375357
C43   C     C_3   0.999282 0.722364 0.346704 -0.297213
C44   C     C_3   0.039457 0.803820 0.299485 -0.860976
H14   H     H_    0.073364 0.842596 0.354393 0.254213
H15   H     H_    0.084471 0.783585 0.241927 0.247782
H16   H     H_    0.989736 0.846692 0.266345 0.255048
H17   H     H_    0.964675 0.686087 0.290526 0.216042
H18   H     H_    0.953490 0.744402 0.402620 0.273840
H19   H     H_    0.102414 0.699693 0.446902 0.207853
H20   H     H_    0.111530 0.638712 0.336979 0.183921
C45   C     C_3   0.939790 0.492545 0.303243 -0.345958
C46   C     C_3   0.010286 0.487657 0.227261 -0.318502
C47   C     C_3   0.974888 0.469784 0.127157 -0.863096
H21   H     H_    0.940913 0.405850 0.127599 0.264194
H22   H     H_    0.931059 0.524077 0.104448 0.253071
H23   H     H_    0.027365 0.466000 0.073941 0.243876
H24   H     H_    0.044757 0.551117 0.223761 0.213306
H25   H     H_    0.055642 0.433781 0.246864 0.268582
H26   H     H_    0.903334 0.430117 0.303139 0.212455
H27   H     H_    0.895907 0.548162 0.285283 0.197310
C48   C     C_3   0.062919 0.531071 0.690818 -0.347446
C49   C     C_3   0.993255 0.535951 0.767684 -0.311106
C50   C     C_3   0.029829 0.554443 0.867027 -0.872575
H28   H     H_    0.073706 0.500084 0.889404 0.251319
H29   H     H_    0.064052 0.618243 0.865500 0.269105
H30   H     H_    0.978032 0.558798 0.921037 0.248727
H31   H     H_    0.947501 0.589559 0.748438 0.270358
H32   H     H_    0.959112 0.472321 0.772025 0.213218
H33   H     H_    0.107806 0.476409 0.708890 0.188206
H34   H     H_    0.098643 0.593998 0.689649 0.218466
C51   C     C_3   0.493268 0.040154 0.694025 -0.399031
C52   C     C_3   0.411836 0.990641 0.719484 -0.359067
C53   C     C_3   0.416546 0.948328 0.820663 -0.834615
H35   H     H_    0.470118 0.900425 0.825035 0.263208
H36   H     H_    0.424550 0.999896 0.876138 0.251336
H37   H     H_    0.357347 0.912254 0.836547 0.244477
H38   H     H_    0.357681 0.037858 0.717610 0.216171
H39   H     H_    0.400641 0.936602 0.668455 0.237618
H40   H     H_    0.547932 0.993765 0.697128 0.206029
H41   H     H_    0.499670 0.087008 0.754148 0.197294
C54   C     C_3   0.315796 0.949190 0.444825 -0.393681
C55   C     C_3   0.271703 0.989483 0.532959 -0.377652
C56   C     C_3   0.184116 0.025267 0.507208 -0.803552
H42   H     H_    0.188538 0.076685 0.448906 0.268895
H43   H     H_    0.143267 0.970805 0.482785 0.249710
H44   H     H_    0.154733 0.055581 0.571978 0.245479
H45   H     H_    0.265196 0.938206 0.591168 0.222764
H46   H     H_    0.308796 0.045454 0.560017 0.231641
H47   H     H_    0.326397 0.001318 0.388983 0.197781
H48   H     H_    0.269731 0.905260 0.411357 0.200820
C57   C     C_3   0.581021 0.216199 0.661708 -0.379769
C58   C     C_3   0.664418 0.242495 0.612574 -0.336325
C59   C     C_3   0.733970 0.255004 0.686745 -0.877022
H49   H     H_    0.718011 0.310195 0.735740 0.247720
H50   H     H_    0.744486 0.193284 0.730222 0.259386
H51   H     H_    0.793103 0.270472 0.648077 0.247283
H52   H     H_    0.684876 0.189509 0.562395 0.225446
H53   H     H_    0.656764 0.305004 0.569974 0.207217
H54   H     H_    0.553112 0.271850 0.702429 0.212688
H55   H     H_    0.599204 0.165864 0.716807 0.194273
C60   C     C_3   0.335118 0.750705 0.427827 -0.358913
C61   C     C_3   0.321491 0.759509 0.317402 -0.381674
C62   C     C_3   0.385133 0.705685 0.259206 -0.754042
H56   H     H_    0.449991 0.729160 0.272463 0.277536
H57   H     H_    0.380301 0.634325 0.278673 0.265395
H58   H     H_    0.371665 0.713928 0.180738 0.204694
H59   H     H_    0.257359 0.735551 0.300454 0.202283
H60   H     H_    0.325189 0.829458 0.291940 0.217758
H61   H     H_    0.343429 0.679739 0.447015 0.183666
H62   H     H_    0.276390 0.769154 0.466904 0.162901
F3    F     F_    0.451599 0.231735 0.337425 -0.667698
F4    F     F_    0.625494 0.776242 0.552772 -0.646950
C63   C     C_3   0.613557 0.621199 0.054250 -0.362433
C64   C     C_3   0.576457 0.715477 0.053405 -0.339847
C65   C     C_3   0.634728 0.780285 0.000913 -0.813243
H63   H     H_    0.696769 0.782052 0.037617 0.260499
H64   H     H_    0.644036 0.760475 0.924504 0.261562
H65   H     H_    0.606212 0.847797 0.001448 0.240615
H66   H     H_    0.514679 0.716377 0.016064 0.207733
H67   H     H_    0.566480 0.738065 0.128766 0.250761
H68   H     H_    0.675732 0.620252 0.090999 0.225591
H69   H     H_    0.625864 0.600960 0.978630 0.206388
C66   C     C_3   0.372904 0.605913 0.943515 -0.377384
C67   C     C_3   0.288668 0.557462 0.950032 -0.315592
C68   C     C_3   0.224912 0.608941 0.010835 -0.866533
H70   H     H_    0.249515 0.618425 0.085056 0.254441
H71   H     H_    0.211330 0.674654 0.976561 0.259501
H72   H     H_    0.165377 0.571377 0.016701 0.246344
H73   H     H_    0.262730 0.548836 0.876226 0.243703
H74   H     H_    0.298272 0.490799 0.983876 0.213815
H75   H     H_    0.393537 0.622498 0.017577 0.192406
H76   H     H_    0.364367 0.670229 0.904075 0.223521
F5    F     F_    0.603135 0.610271 0.258438 -0.663836
F6    F     F_    0.384687 0.599099 0.739084 -0.680112

loop_
_geom_bond_atom_site_label_1
_geom_bond_atom_site_label_2
_ccdc_geom_bond_type
C25   C31   S    
Cu2   N1    S    
C26   C32   S    
C53   H35   S    
C65   H65   S    
C42   H19   S    
C56   H42   S    
C15   N1    A    
C62   H58   S    
C16   N2    A    
C45   H26   S    
C47   H21   S    
C63   H68   S    
C49   H31   S    
C27   C33   S    
C9    H5    S    
C51   H41   S    
C52   H38   S    
C1    C5    S    
C23   C29   S    
C19   C21   A    
C42   C43   S    
C18   H2    S    
C58   H53   S    
C24   O6    A    
C65   H63   S    
C7    C9    A    
C41   H8    S    
C55   C56   S    
C59   H51   S    
C46   H25   S    
C2    O2    A    
C39   H12   S    
C60   H62   S    
Cu1   O8    S    
C31   C48   S    
C14   C66   S    
C63   H69   S    
C66   C67   S    
C31   C33   S    
C43   C44   S    
C13   C63   S    
C68   H71   S    
C34   C36   S    
C25   C34   S    
C3    C5    A    
C57   H55   S    
Cu1   O4    S    
C40   H11   S    
C39   C40   S    
C53   H36   S    
C21   C22   S    
C42   H20   S    
C2    C6    S    
C10   C12   A    
C45   H27   S    
C20   H4    S    
C19   H3    S    
C54   H48   S    
C23   O5    A    
C17   H1    S    
C67   H74   S    
C54   H47   S    
C64   H67   S    
C3    C57   S    
C4    C6    A    
C27   F1    S    
C50   H28   S    
C5    C7    A    
C58   H52   S    
C17   C19   A    
C6    C8    A    
C16   F6    S    
C48   H33   S    
C40   C41   S    
C38   C54   S    
C66   H75   S    
C41   H9    S    
C10   H6    S    
C46   H24   S    
C39   H13   S    
C50   H29   S    
C9    C11   A    
C26   C33   S    
C51   C52   S    
C57   C58   S    
Cu2   O7    S    
C13   C21   A    
C56   H43   S    
C68   H72   S    
C23   O7    A    
C1    O3    A    
C59   H49   S    
C2    O4    A    
Cu1   O1    S    
C61   H59   S    
C20   C22   A    
C40   H10   S    
C53   H37   S    
Cu2   O6    S    
C13   C15   A    
C43   H18   S    
C14   C16   A    
C24   O8    A    
C62   H56   S    
C55   H46   S    
Cu1   Cu2   S    
C47   H23   S    
C58   C59   S    
C44   H15   S    
C60   C61   S    
C65   H64   S    
C67   H73   S    
C27   C32   S    
C52   H39   S    
C64   H66   S    
C15   F5    S    
C28   C31   S    
C61   H60   S    
C17   N1    A    
C4    C38   A    
C46   C47   S    
C62   H57   S    
C18   N2    A    
C47   H22   S    
C44   H16   S    
C11   C12   S    
C11   C37   A    
C49   H32   S    
C4    C60   S    
C28   F2    S    
C25   C27   S    
Cu2   O3    S    
C51   H40   S    
C29   C35   T    
C26   C28   S    
C30   C36   T    
C48   H34   S    
C8    F4    S    
C66   H76   S    
C14   C22   A    
C61   C62   S    
C48   C49   S    
C44   H14   S    
C63   C64   S    
C32   C45   S    
C7    F3    S    
C37   C51   S    
C49   C50   S    
Cu1   O5    S    
Cu2   O2    S    
C52   C53   S    
C33   C35   S    
C56   H44   S    
C18   C20   A    
C12   C38   A    
C41   H7    S    
C24   C30   S    
C59   H50   S    
C28   C34   S    
C45   C46   S    
C60   H61   S    
C67   C68   S    
C3    C37   A    
C8    C10   A    
C43   H17   S    
C26   C42   S    
C64   C65   S    
C25   C39   S    
C68   H70   S    
C54   C55   S    
C1    O1    A    
C55   H45   S    
C32   C34   S    
Cu1   N2    S    
C50   H30   S    
C57   H54   S    
