data_mof_unit_49674.cif
_audit_creation_date              2013-03-05T15:59:00-0500
_audit_creation_method            fapswitch 2.2
_symmetry_space_group_name_H-M    P1
_symmetry_Int_Tables_number       1
_space_group_crystal_system       triclinic
_cell_length_a                    7.239594
_cell_length_b                    21.387765
_cell_length_c                    23.487634
_cell_angle_alpha                 90.000347
_cell_angle_beta                  90.076898
_cell_angle_gamma                 89.998296
_cell_volume                      3636.79226349

loop_
_atom_site_label
_atom_site_type_symbol
_atom_site_description
_atom_site_fract_x
_atom_site_fract_y
_atom_site_fract_z
_atom_type_partial_charge
O1    O     O_R   0.365470 0.806380 0.442440 -0.578130
O2    O     O_R   0.134530 0.193620 0.942440 -0.578490
O3    O     O_R   0.865470 0.693620 0.557560 -0.577807
O4    O     O_R   0.634530 0.306380 0.057560 -0.577128
O5    O     O_R   0.035730 0.813790 0.557160 -0.577848
O6    O     O_R   0.464270 0.186210 0.057160 -0.577749
O7    O     O_R   0.535730 0.686210 0.442840 -0.575840
O8    O     O_R   0.964270 0.313790 0.942840 -0.578577
C1    C     C_R   0.204407 0.828685 0.575785 0.941762
C2    C     C_R   0.295762 0.171314 0.075796 0.949866
C3    C     C_R   0.704236 0.671323 0.424201 0.942809
C4    C     C_R   0.795591 0.328679 0.924210 0.940928
O9    O     O_R   0.035760 0.813790 0.442850 -0.583658
O10   O     O_R   0.464240 0.186210 0.942850 -0.581797
O11   O     O_R   0.535760 0.686210 0.557150 -0.581735
O12   O     O_R   0.964240 0.313790 0.057150 -0.581077
O13   O     O_R   0.865450 0.693620 0.442430 -0.570882
O14   O     O_R   0.634550 0.306380 0.942430 -0.570845
O15   O     O_R   0.365450 0.806380 0.557570 -0.570455
O16   O     O_R   0.134550 0.193620 0.057570 -0.568947
C5    C     C_R   0.204236 0.828675 0.424190 0.963613
C6    C     C_R   0.295588 0.171321 0.924199 0.964665
C7    C     C_R   0.704415 0.671323 0.575801 0.965969
C8    C     C_R   0.795759 0.328698 0.075794 0.963489
O17   O     O_3   0.198970 0.710570 0.500000 -0.270512
O18   O     O_3   0.301030 0.289430 0.000000 -0.272715
O19   O     O_3   0.698970 0.789430 0.500000 -0.273098
O20   O     O_3   0.801030 0.210570 0.000000 -0.271232
V1    V     V_3+5 0.924120 0.757310 0.500000 1.260957
V2    V     V_3+5 0.575880 0.242690 0.000000 1.267012
V3    V     V_3+5 0.424120 0.742690 0.500000 1.264170
V4    V     V_3+5 0.075880 0.257310 0.000000 1.266372
C9    C     C_3   0.876541 0.563878 0.753467 -0.444526
C10   C     C_3   0.622263 0.436414 0.252844 -0.449158
C11   C     C_3   0.377750 0.936393 0.247127 -0.471361
C12   C     C_3   0.123375 0.063892 0.746531 -0.445900
C13   C     C_3   0.547364 0.534576 0.736823 -0.546071
C14   C     C_3   0.952568 0.464928 0.237601 -0.536789
C15   C     C_3   0.047416 0.964908 0.262399 -0.549814
C16   C     C_3   0.452612 0.034633 0.763132 -0.545732
C17   C     C_3   0.550684 0.479438 0.780941 0.255885
C18   C     C_3   0.948896 0.519836 0.281969 0.233900
C19   C     C_3   0.051001 0.019750 0.217960 0.241887
C20   C     C_3   0.449313 0.979503 0.719003 0.256424
H1    H     H_    0.840931 0.612408 0.766337 0.236289
H2    H     H_    0.657336 0.387915 0.266019 0.244138
H3    H     H_    0.342481 0.887938 0.233864 0.236269
H4    H     H_    0.158900 0.112430 0.733666 0.236018
H5    H     H_    0.437910 0.525472 0.704628 0.217180
H6    H     H_    0.063350 0.473937 0.205887 0.215348
H7    H     H_    0.936780 0.973993 0.294137 0.214881
H8    H     H_    0.562131 0.025541 0.795309 0.217094
H9    H     H_    0.512756 0.580048 0.756996 0.261898
H10   H     H_    0.985604 0.419297 0.257763 0.265748
H11   H     H_    0.014207 0.919255 0.242305 0.259541
H12   H     H_    0.487124 0.080114 0.742960 0.262018
H13   H     H_    0.478687 0.439926 0.760122 0.142510
H14   H     H_    0.023021 0.559216 0.261744 0.145401
H15   H     H_    0.976575 0.059159 0.238039 0.143964
H16   H     H_    0.521402 0.940003 0.739809 0.142575
C21   C     C_1   0.785206 0.374483 0.878773 -0.107157
C22   C     C_1   0.714176 0.625504 0.378767 -0.102091
C23   C     C_1   0.285793 0.125488 0.121232 -0.107711
C24   C     C_1   0.214794 0.874508 0.621206 -0.109187
C25   C     C_3   0.737828 0.541297 0.707124 0.007484
C26   C     C_3   0.762925 0.458749 0.207116 -0.003167
C27   C     C_3   0.237124 0.958682 0.292851 0.035164
C28   C     C_3   0.262177 0.041319 0.792853 0.007617
C29   C     C_3   0.877500 0.518657 0.805919 0.289920
C30   C     C_3   0.619508 0.481731 0.305183 0.341891
C31   C     C_3   0.380716 0.981824 0.194888 0.352534
C32   C     C_3   0.122417 0.018683 0.694066 0.295023
C33   C     C_3   0.756620 0.458983 0.793149 -0.254077
C34   C     C_3   0.743044 0.540976 0.293186 -0.273902
C35   C     C_3   0.256748 0.040993 0.206852 -0.259583
C36   C     C_3   0.243384 0.959021 0.706818 -0.254761
C37   C     C_3   0.838848 0.430711 0.736346 0.159173
C38   C     C_3   0.664187 0.569682 0.236043 0.162653
C39   C     C_3   0.334935 0.069785 0.264076 0.121875
C40   C     C_3   0.161248 0.930726 0.763624 0.157723
C41   C     C_3   0.794428 0.475003 0.684982 0.089144
C42   C     C_3   0.708413 0.525200 0.184836 0.088112
C43   C     C_3   0.291810 0.025059 0.315208 0.076760
C44   C     C_3   0.205696 0.975009 0.814988 0.088751
C45   C     C_1   0.773116 0.412460 0.840417 0.271897
C46   C     C_1   0.726117 0.587506 0.340425 0.280243
C47   C     C_1   0.273746 0.087489 0.159578 0.259127
C48   C     C_1   0.226889 0.912496 0.659551 0.272164
C49   C     C_1   0.724667 0.587610 0.659731 0.142268
C50   C     C_1   0.776301 0.412461 0.159707 0.153658
C51   C     C_1   0.223731 0.912366 0.340232 0.138535
C52   C     C_1   0.275336 0.087620 0.840257 0.142138
C53   C     C_1   0.714391 0.625545 0.621318 -0.209693
C54   C     C_1   0.786275 0.374508 0.121298 -0.202217
C55   C     C_1   0.213728 0.874437 0.378655 -0.212409
C56   C     C_1   0.285615 0.125551 0.878676 -0.208882
H17   H     H_    0.672276 0.455801 0.661889 0.162349
H18   H     H_    0.831484 0.544000 0.162034 0.164456
H19   H     H_    0.169005 0.043618 0.338291 0.139564
H20   H     H_    0.327912 0.955813 0.838057 0.162654
H21   H     H_    0.991451 0.428383 0.741701 0.139930
H22   H     H_    0.511537 0.572799 0.240773 0.137710
H23   H     H_    0.487479 0.073358 0.259317 0.143874
H24   H     H_    0.008639 0.928389 0.758285 0.140392
H25   H     H_    0.017990 0.567100 0.735574 0.201193
H26   H     H_    0.481507 0.433180 0.234325 0.205545
H27   H     H_    0.518464 0.933033 0.265660 0.202327
H28   H     H_    0.981945 0.067087 0.764439 0.201125
H29   H     H_    0.022200 0.502519 0.812037 0.106994
H30   H     H_    0.474931 0.498380 0.310322 0.114597
H31   H     H_    0.525255 0.998571 0.189908 0.113203
H32   H     H_    0.977729 0.002532 0.687955 0.106635
S1    S     S_3+6 0.822930 0.560269 0.871013 0.078645
O21   O     O_2   0.676363 0.608707 0.860748 -0.153790
O22   O     O_2   0.758031 0.516627 0.916992 -0.245015
O23   O     O_3   0.014311 0.597169 0.893787 -0.403566
H33   H     H_    0.082669 0.565585 0.916342 0.394985
S2    S     S_3+6 0.668297 0.439863 0.370551 0.071296
O24   O     O_2   0.820706 0.393155 0.361918 -0.192837
O25   O     O_2   0.720707 0.483881 0.417746 -0.234484
O26   O     O_3   0.476436 0.401001 0.389730 -0.417922
H34   H     H_    0.509939 0.379110 0.425445 0.408817
S3    S     S_3+6 0.332672 0.940009 0.129431 0.068158
O27   O     O_2   0.179884 0.893397 0.137840 -0.196191
O28   O     O_2   0.281197 0.984067 0.082170 -0.231907
O29   O     O_3   0.524560 0.901013 0.110504 -0.423678
H35   H     H_    0.491458 0.879179 0.074724 0.410645
S4    S     S_3+6 0.176897 0.060315 0.628976 0.072936
O30   O     O_2   0.323437 0.108762 0.639239 -0.157347
O31   O     O_2   0.241791 0.016688 0.582984 -0.248234
O32   O     O_3   0.985472 0.097210 0.606222 -0.409607
H36   H     H_    0.917229 0.065649 0.583607 0.393627
S5    S     S_3+6 0.774696 0.350750 0.720286 0.019096
O33   O     O_2   0.569142 0.341464 0.722280 -0.261285
O34   O     O_2   0.842789 0.334667 0.661651 -0.156934
O35   O     O_3   0.876121 0.302322 0.767290 -0.542347
H37   H     H_    0.845382 0.259664 0.753817 0.386728
S6    S     S_3+6 0.732253 0.649330 0.220243 0.018305
O36   O     O_2   0.938217 0.657464 0.222541 -0.264318
O37   O     O_2   0.665410 0.665910 0.161534 -0.155704
O38   O     O_3   0.632806 0.698253 0.267136 -0.543967
H38   H     H_    0.673615 0.740565 0.255492 0.384671
S7    S     S_3+6 0.264472 0.149154 0.280225 0.026909
O39   O     O_2   0.344015 0.193429 0.237065 -0.246410
O40   O     O_2   0.057962 0.156223 0.280635 -0.269133
O41   O     O_3   0.347986 0.169130 0.344582 -0.398053
H39   H     H_    0.254318 0.154543 0.372262 0.384996
S8    S     S_3+6 0.225502 0.850765 0.779644 0.020682
O42   O     O_2   0.431035 0.841490 0.777424 -0.263098
O43   O     O_2   0.158105 0.834651 0.838344 -0.151519
O44   O     O_3   0.123516 0.802350 0.732751 -0.541193
H40   H     H_    0.162420 0.759833 0.744429 0.385661
N1    N     N_R   0.443929 0.492908 0.832895 0.273392
O45   O     O_R   0.403870 0.447368 0.867475 -0.376927
O46   O     O_R   0.356367 0.545582 0.839100 -0.335086
N2    N     N_R   0.052990 0.505719 0.334409 0.278002
O47   O     O_R   0.089765 0.550722 0.369935 -0.359926
O48   O     O_R   0.143249 0.453477 0.340049 -0.283209
N3    N     N_R   0.947328 0.005467 0.165476 0.278061
O49   O     O_R   0.910888 0.050349 0.129792 -0.358381
O50   O     O_R   0.856886 0.953250 0.159956 -0.287892
N4    N     N_R   0.555994 0.992998 0.667039 0.273592
O51   O     O_R   0.596024 0.947475 0.632438 -0.376895
O52   O     O_R   0.643542 0.045675 0.660847 -0.335675
N5    N     N_R   0.948693 0.477392 0.644459 0.266457
O53   O     O_R   0.113302 0.494267 0.660517 -0.417546
O54   O     O_R   0.921960 0.461208 0.591688 -0.263925
N6    N     N_R   0.554749 0.523236 0.143941 0.265547
O55   O     O_R   0.389325 0.507000 0.159641 -0.415523
O56   O     O_R   0.582816 0.539259 0.091219 -0.262979
N7    N     N_R   0.446178 0.022946 0.355853 0.262965
O57   O     O_R   0.611782 0.007469 0.339708 -0.414563
O58   O     O_R   0.418281 0.037640 0.408904 -0.298577
N8    N     N_R   0.051493 0.977366 0.855532 0.266564
O59   O     O_R   0.886844 0.994234 0.839500 -0.417047
O60   O     O_R   0.078323 0.961169 0.908295 -0.262314

loop_
_geom_bond_atom_site_label_1
_geom_bond_atom_site_label_2
_geom_bond_distance
_ccdc_geom_bond_type
O17   V3    1.768864 S    
S7    O41   1.682443 S    
C15   H7    1.112012 S    
N7    O57   1.300754 A    
C32   H32   1.112107 S    
O1    C5    1.331259 A    
N5    O53   1.300577 A    
C31   C35   1.576865 S    
C38   H22   1.112839 S    
C1    C24   1.450543 S    
O13   V1    1.965412 S    
O3    C7    1.331113 A    
C2    C23   1.450837 S    
S8    O44   1.681764 S    
C52   C56   1.215637 T    
C32   C36   1.576120 S    
C3    C22   1.450678 S    
O15   V3    1.966177 S    
S4    O30   1.502196 D    
C18   H14   1.106230 S    
C9    C25   1.556789 S    
S3    O27   1.502346 D    
C26   C50   1.493213 S    
C42   N6    1.469373 S    
O7    C3    1.335154 A    
N7    O58   1.301098 A    
C29   S1    1.813085 S    
O29   H35   0.990573 S    
C30   S2    1.811739 S    
C20   N4    1.473774 S    
C40   H24   1.112877 S    
C31   S3    1.811929 S    
N2    O47   1.301132 A    
S8    O43   1.503172 D    
C14   C18   1.570295 S    
C19   N3    1.474357 S    
O4    C8    1.331317 A    
S3    O28   1.502625 D    
C12   H28   1.109560 S    
S7    O39   1.502516 D    
O1    V3    1.965213 S    
C9    H1    1.111465 S    
O23   H33   0.990531 S    
O2    V4    1.965986 S    
O3    V1    1.966013 S    
N8    O59   1.300601 A    
C30   H30   1.112302 S    
C28   C52   1.493020 S    
S2    O24   1.502368 D    
C29   H29   1.112096 S    
N2    O48   1.301033 A    
C1    O15   1.330865 A    
C39   S7    1.812765 S    
C14   C26   1.553214 S    
C2    O16   1.331029 A    
C16   H12   1.110609 S    
C43   N7    1.469516 S    
C30   C34   1.576594 S    
S5    O35   1.681856 S    
O44   H40   0.990579 S    
N3    O50   1.300993 A    
C29   C33   1.576101 S    
C10   H2    1.111743 S    
C37   C41   1.566915 S    
N1    O46   1.300955 A    
C10   C30   1.565592 S    
C17   N1    1.473743 S    
C9    C29   1.566285 S    
S1    O23   1.681280 S    
C13   H9    1.110589 S    
N6    O56   1.301099 A    
C11   C31   1.565296 S    
O12   C8    1.335136 A    
C43   H19   1.114979 S    
C49   C53   1.215596 T    
C42   H18   1.115185 S    
C39   H23   1.112776 S    
C37   S5    1.811716 S    
O10   V2    1.977725 S    
C44   N8    1.469192 S    
C38   S6    1.811895 S    
C10   C26   1.556197 S    
C50   C54   1.215780 T    
O5    V1    1.977794 S    
C19   C35   1.579317 S    
C15   H11   1.110701 S    
C18   C34   1.579819 S    
O7    V3    1.979238 S    
C40   C44   1.566837 S    
C28   C44   1.565070 S    
C9    H25   1.109576 S    
S8    O42   1.502112 D    
S1    O21   1.502185 D    
O18   V4    1.768864 S    
S3    O29   1.680678 S    
C15   C19   1.570366 S    
C5    C55   1.451458 S    
C16   H8    1.111767 S    
C17   C33   1.579612 S    
C7    C53   1.451391 S    
C13   C25   1.552791 S    
S2    O26   1.680715 S    
C10   H26   1.109592 S    
C40   S8    1.811681 S    
C18   N2    1.474341 S    
O5    C1    1.335163 A    
C8    C54   1.451590 S    
C26   C42   1.564915 S    
C13   H5    1.111764 S    
C38   C42   1.566903 S    
C25   C41   1.565019 S    
N3    O49   1.301137 A    
C14   H10   1.110692 S    
C11   C27   1.555617 S    
O8    C4    1.335165 A    
C27   C51   1.493148 S    
O9    C5    1.335131 A    
C27   C43   1.564431 S    
C34   C46   1.495602 S    
C33   C45   1.495502 S    
O26   H34   0.990554 S    
S6    O37   1.503197 D    
O14   V2    1.966208 S    
C35   C47   1.495787 S    
N6    O55   1.300777 A    
O6    V2    1.979276 S    
C32   S4    1.813105 S    
C34   C38   1.581810 S    
S5    O33   1.502121 D    
O12   V4    1.979166 S    
O32   H36   0.990546 S    
S4    O32   1.681297 S    
C22   C46   1.216200 T    
O41   H39   0.990481 S    
O16   V4    1.965404 S    
O9    V1    1.979207 S    
S7    O40   1.502712 D    
C36   C48   1.495518 S    
C3    O13   1.331015 A    
C41   N5    1.469241 S    
C23   C47   1.216339 T    
C6    C56   1.451381 S    
C36   C40   1.581815 S    
O35   H37   0.990884 S    
S6    O38   1.681781 S    
S4    O31   1.503210 D    
O6    C2    1.335213 A    
C44   H20   1.115215 S    
C12   C28   1.556809 S    
O11   V3    1.977704 S    
C14   H6    1.112121 S    
C19   H15   1.106260 S    
N4    O51   1.301179 A    
C15   C27   1.553351 S    
C25   C49   1.492998 S    
C31   H31   1.112334 S    
O10   C6    1.335167 A    
O20   V2    1.768827 S    
C21   C45   1.216061 T    
N1    O45   1.301185 A    
C17   H13   1.106470 S    
N4    O52   1.300956 A    
O2    C6    1.331117 A    
C39   C43   1.567128 S    
C4    C21   1.450551 S    
O8    V4    1.977776 S    
O19   V1    1.768827 S    
C20   H16   1.106430 S    
O11   C7    1.335161 A    
C41   H17   1.115190 S    
N8    O60   1.301099 A    
C37   H21   1.112862 S    
C12   H4    1.111474 S    
C13   C17   1.570028 S    
S2    O25   1.502633 D    
C11   H27   1.109605 S    
S6    O36   1.502111 D    
C51   C55   1.215701 T    
C16   C20   1.570044 S    
N5    O54   1.301111 A    
C16   C28   1.552768 S    
C4    O14   1.330879 A    
S5    O34   1.503270 D    
C33   C37   1.581821 S    
C20   C36   1.579659 S    
C11   H3    1.111783 S    
O38   H38   0.990594 S    
C35   C39   1.582433 S    
C24   C48   1.216021 T    
O4    V2    1.965218 S    
C12   C32   1.566338 S    
S1    O22   1.503211 D    
