data_mof_unit_65576.cif
_audit_creation_date              2012-12-10T19:04:24-0500
_audit_creation_method            fapswitch 2.2
_symmetry_space_group_name_H-M    P1
_symmetry_Int_Tables_number       1
_space_group_crystal_system       triclinic
_cell_length_a                    24.516848
_cell_length_b                    24.517166
_cell_length_c                    27.631624
_cell_angle_alpha                 90.000039
_cell_angle_beta                  90.000998
_cell_angle_gamma                 89.999918
_cell_volume                      16608.9169153

loop_
_atom_site_label
_atom_site_type_symbol
_atom_type_description
_atom_site_fract_x
_atom_site_fract_y
_atom_site_fract_z
_atom_type_partial_charge
C1    C     C_R   0.770884 0.729067 0.749956 -0.180956
C2    C     C_R   0.228432 0.271571 0.249995 -0.182215
C3    C     C_R   0.729032 0.229154 0.749913 -0.180862
C4    C     C_R   0.271525 0.771602 0.249917 -0.182044
C5    C     C_R   0.229124 0.270921 0.750009 -0.181424
C6    C     C_R   0.771626 0.728458 0.249968 -0.182990
C7    C     C_R   0.270854 0.770977 0.750088 -0.180574
C8    C     C_R   0.728415 0.228467 0.250066 -0.182031
C9    C     C_R   0.229038 0.729134 0.249926 -0.180621
C10   C     C_R   0.771523 0.271620 0.749907 -0.182206
C11   C     C_R   0.270912 0.229094 0.249998 -0.181021
C12   C     C_R   0.728409 0.771549 0.749950 -0.182185
C13   C     C_R   0.770886 0.270951 0.250056 -0.180479
C14   C     C_R   0.228388 0.728488 0.750097 -0.182042
C15   C     C_R   0.729162 0.770949 0.249962 -0.182019
C16   C     C_R   0.271595 0.228435 0.750017 -0.182499
C17   C     C_1   1.000000 0.500000 0.569054 -0.134656
C18   C     C_1   1.000000 0.500000 0.430946 -0.134747
C19   C     C_1   0.499999 0.000000 0.569054 -0.134687
C20   C     C_1   0.500001 0.000000 0.430946 -0.134603
C21   C     C_1   0.500000 1.000000 0.069054 -0.134611
C22   C     C_1   0.500000 0.000000 0.930946 -0.134701
C23   C     C_1   0.999999 0.500000 0.069054 -0.134730
C24   C     C_1   0.000001 0.500000 0.930946 -0.134652
C25   C     C_1   1.000000 0.500000 0.525493 -0.002154
C26   C     C_1   1.000000 0.500000 0.474507 -0.002174
C27   C     C_1   0.499999 0.000000 0.525493 -0.002136
C28   C     C_1   0.500000 0.000000 0.474507 -0.002105
C29   C     C_1   0.500000 1.000000 0.025493 -0.002116
C30   C     C_1   0.500000 0.000000 0.974507 -0.002144
C31   C     C_1   0.999999 0.500000 0.025493 -0.002168
C32   C     C_1   0.000000 0.500000 0.974507 -0.002143
C33   C     C_R   0.000000 0.500000 0.879130 0.806235
C34   C     C_R   1.000000 0.500000 0.120870 0.806413
C35   C     C_R   0.500000 0.000000 0.879130 0.806338
C36   C     C_R   0.500000 1.000000 0.120870 0.806226
C37   C     C_R   0.500000 0.000000 0.379130 0.806250
C38   C     C_R   0.499999 0.000000 0.620870 0.806327
C39   C     C_R   1.000000 0.500000 0.379130 0.806432
C40   C     C_R   1.000000 0.500000 0.620870 0.806207
C41   C     C_R   0.105151 0.605146 0.749996 0.907346
C42   C     C_R   0.894653 0.394646 0.249996 0.922388
C43   C     C_R   0.605150 0.894856 0.750005 0.908471
C44   C     C_R   0.394648 0.105353 0.250001 0.921804
C45   C     C_R   0.894857 0.394850 0.750005 0.907964
C46   C     C_R   0.105353 0.605351 0.250000 0.922101
C47   C     C_R   0.394859 0.105150 0.749993 0.909547
C48   C     C_R   0.605356 0.894645 0.250000 0.921014
C49   C     C_R   0.894857 0.605148 0.249996 0.910806
C50   C     C_R   0.105354 0.394644 0.750003 0.921176
C51   C     C_R   0.394857 0.894847 0.250008 0.907496
C52   C     C_R   0.605351 0.105355 0.749997 0.921697
C53   C     C_R   0.105148 0.394853 0.250001 0.908569
C54   C     C_R   0.894645 0.605351 0.749997 0.921804
C55   C     C_R   0.605154 0.105144 0.249993 0.907027
C56   C     C_R   0.394648 0.894649 0.750001 0.922288
C57   C     C_R   0.777500 0.695300 0.790658 0.348605
C58   C     C_R   0.243183 0.327010 0.244440 0.399846
C59   C     C_R   0.695263 0.222549 0.790615 0.348435
C60   C     C_R   0.326947 0.756845 0.244283 0.399624
C61   C     C_R   0.222676 0.304880 0.790607 0.348459
C62   C     C_R   0.756822 0.672987 0.244706 0.399642
C63   C     C_R   0.304489 0.777757 0.790854 0.348631
C64   C     C_R   0.672998 0.243176 0.244294 0.399849
C65   C     C_R   0.222291 0.695469 0.209176 0.348623
C66   C     C_R   0.756796 0.327065 0.755445 0.399951
C67   C     C_R   0.304679 0.222463 0.209298 0.348571
C68   C     C_R   0.672965 0.756810 0.755499 0.399894
C69   C     C_R   0.777713 0.304496 0.209236 0.348387
C70   C     C_R   0.243145 0.673072 0.755769 0.399603
C71   C     C_R   0.695125 0.777317 0.209404 0.349227
C72   C     C_R   0.327060 0.243205 0.755354 0.399907
C73   C     C_R   0.277544 0.195333 0.290702 0.348641
C74   C     C_R   0.743173 0.826988 0.744426 0.399799
C75   C     C_R   0.195406 0.722395 0.290700 0.348410
C76   C     C_R   0.826960 0.256844 0.744413 0.399714
C77   C     C_R   0.722788 0.804977 0.290525 0.348694
C78   C     C_R   0.256817 0.172972 0.744668 0.399834
C79   C     C_R   0.804468 0.277780 0.290850 0.348623
C80   C     C_R   0.172962 0.743195 0.744384 0.399859
C81   C     C_R   0.722414 0.195356 0.709233 0.348661
C82   C     C_R   0.256810 0.827030 0.255595 0.399887
C83   C     C_R   0.804665 0.722442 0.709265 0.348546
C84   C     C_R   0.172992 0.256820 0.255551 0.399852
C85   C     C_R   0.277624 0.804575 0.709295 0.348380
C86   C     C_R   0.743156 0.173057 0.255801 0.399569
C87   C     C_R   0.195171 0.277359 0.709406 0.348928
C88   C     C_R   0.827102 0.743227 0.255238 0.399804
C89   C     C_R   0.815347 0.652369 0.789323 0.293430
C90   C     C_R   0.202757 0.367312 0.244548 0.364759
C91   C     C_R   0.652340 0.184692 0.789291 0.293489
C92   C     C_R   0.367282 0.797238 0.244515 0.365064
C93   C     C_R   0.184818 0.347793 0.789243 0.293906
C94   C     C_R   0.797259 0.632691 0.244725 0.364792
C95   C     C_R   0.347464 0.815559 0.789483 0.293100
C96   C     C_R   0.632699 0.202746 0.244443 0.364997
C97   C     C_R   0.184487 0.652497 0.210548 0.293093
C98   C     C_R   0.797243 0.367348 0.755357 0.364865
C99   C     C_R   0.347615 0.184623 0.210647 0.293494
C100  C     C_R   0.632676 0.797251 0.755421 0.364772
C101  C     C_R   0.815569 0.347427 0.210537 0.293393
C102  C     C_R   0.202755 0.632734 0.755534 0.365063
C103  C     C_R   0.652196 0.815159 0.210779 0.294009
C104  C     C_R   0.367359 0.202777 0.755246 0.364763
C105  C     C_R   0.315383 0.152394 0.289357 0.293460
C106  C     C_R   0.702761 0.867304 0.744578 0.364838
C107  C     C_R   0.152478 0.684537 0.289391 0.293407
C108  C     C_R   0.867292 0.297240 0.744614 0.364945
C109  C     C_R   0.684896 0.847856 0.289183 0.294443
C110  C     C_R   0.297258 0.132680 0.744708 0.364753
C111  C     C_R   0.847440 0.315585 0.289489 0.293018
C112  C     C_R   0.132673 0.702755 0.744512 0.364987
C113  C     C_R   0.684610 0.152387 0.710619 0.293230
C114  C     C_R   0.297250 0.867321 0.255473 0.364942
C115  C     C_R   0.847610 0.684611 0.710628 0.293442
C116  C     C_R   0.132691 0.297250 0.255455 0.364756
C117  C     C_R   0.315485 0.847499 0.710597 0.293396
C118  C     C_R   0.702761 0.132724 0.255559 0.365163
C119  C     C_R   0.152228 0.315188 0.710773 0.293542
C120  C     C_R   0.867380 0.702778 0.255205 0.364741
C121  C     C_R   0.852010 0.647969 0.749983 -0.369233
C122  C     C_R   0.147447 0.352559 0.250004 -0.402124
C123  C     C_R   0.647961 0.148001 0.749971 -0.369187
C124  C     C_R   0.352559 0.852555 0.250011 -0.401746
C125  C     C_R   0.147988 0.352017 0.750006 -0.369542
C126  C     C_R   0.852580 0.647464 0.249970 -0.402547
C127  C     C_R   0.352007 0.852041 0.750025 -0.369047
C128  C     C_R   0.647449 0.147440 0.249988 -0.401682
C129  C     C_R   0.147967 0.647987 0.249981 -0.369047
C130  C     C_R   0.852558 0.352564 0.750005 -0.401782
C131  C     C_R   0.352023 0.147982 0.250002 -0.369253
C132  C     C_R   0.647446 0.852561 0.750010 -0.402042
C133  C     C_R   0.852027 0.352025 0.250006 -0.368992
C134  C     C_R   0.147439 0.647448 0.750002 -0.401737
C135  C     C_R   0.648003 0.852028 0.249989 -0.370016
C136  C     C_R   0.352580 0.147458 0.749971 -0.402195
O1    O     O_3   0.000000 0.500000 0.750000 -0.516587
O2    O     O_3   0.000000 0.500000 0.250000 -0.516604
O3    O     O_3   0.500000 0.000000 0.750000 -0.516610
O4    O     O_3   0.500000 0.000000 0.250000 -0.516571
O5    O     O_R   0.954530 0.500000 0.856260 -0.629947
O6    O     O_R   0.045470 0.500000 0.143740 -0.629866
O7    O     O_R   0.500000 0.045470 0.856260 -0.629957
O8    O     O_R   0.500000 0.954530 0.143740 -0.629811
O9    O     O_R   0.045470 0.500000 0.856260 -0.629791
O10   O     O_R   0.954530 0.500000 0.143740 -0.630080
O11   O     O_R   0.500000 0.954530 0.856260 -0.629909
O12   O     O_R   0.500000 0.045470 0.143740 -0.629852
O13   O     O_R   0.454530 0.000000 0.356260 -0.629903
O14   O     O_R   0.545470 0.000000 0.643740 -0.629844
O15   O     O_R   0.000000 0.545470 0.356260 -0.630030
O16   O     O_R   0.000000 0.454530 0.643740 -0.629857
O17   O     O_R   0.545470 0.000000 0.356260 -0.629781
O18   O     O_R   0.454530 0.000000 0.643740 -0.630039
O19   O     O_R   0.000000 0.454530 0.356260 -0.629897
O20   O     O_R   0.000000 0.545470 0.643740 -0.629872
O21   O     O_R   0.109480 0.563990 0.777850 -0.611926
O22   O     O_R   0.890520 0.436010 0.222150 -0.608208
O23   O     O_R   0.563990 0.890520 0.777850 -0.611399
O24   O     O_R   0.436010 0.109480 0.222150 -0.607987
O25   O     O_R   0.890520 0.436010 0.777850 -0.611503
O26   O     O_R   0.109480 0.563990 0.222150 -0.608007
O27   O     O_R   0.436010 0.109480 0.777850 -0.611810
O28   O     O_R   0.563990 0.890520 0.222150 -0.607763
O29   O     O_R   0.890520 0.563990 0.222150 -0.611299
O30   O     O_R   0.109480 0.436010 0.777850 -0.607915
O31   O     O_R   0.436010 0.890520 0.222150 -0.611950
O32   O     O_R   0.563990 0.109480 0.777850 -0.607965
O33   O     O_R   0.109480 0.436010 0.222150 -0.611590
O34   O     O_R   0.890520 0.563990 0.777850 -0.607909
O35   O     O_R   0.563990 0.109480 0.222150 -0.611511
O36   O     O_R   0.436010 0.890520 0.777850 -0.607990
O37   O     O_R   0.609480 0.063990 0.277850 -0.611979
O38   O     O_R   0.390520 0.936010 0.722150 -0.608112
O39   O     O_R   0.063990 0.390520 0.277850 -0.611481
O40   O     O_R   0.936010 0.609480 0.722150 -0.607933
O41   O     O_R   0.390520 0.936010 0.277850 -0.611447
O42   O     O_R   0.609480 0.063990 0.722150 -0.607882
O43   O     O_R   0.936010 0.609480 0.277850 -0.611577
O44   O     O_R   0.063990 0.390520 0.722150 -0.607738
O45   O     O_R   0.390520 0.063990 0.722150 -0.611339
O46   O     O_R   0.609480 0.936010 0.277850 -0.607969
O47   O     O_R   0.936010 0.390520 0.722150 -0.611923
O48   O     O_R   0.063990 0.609480 0.277850 -0.608112
O49   O     O_R   0.609480 0.936010 0.722150 -0.611743
O50   O     O_R   0.390520 0.063990 0.277850 -0.607934
O51   O     O_R   0.063990 0.609480 0.722150 -0.611498
O52   O     O_R   0.936010 0.390520 0.277850 -0.608071
Zn1   Zn    Zn3+2 0.000000 0.564980 0.710170 0.984685
Zn2   Zn    Zn3+2 0.000000 0.435020 0.289830 0.985030
Zn3   Zn    Zn3+2 0.564980 0.000000 0.710170 0.984873
Zn4   Zn    Zn3+2 0.435020 0.000000 0.289830 0.984685
Zn5   Zn    Zn3+2 0.000000 0.435020 0.710170 0.984621
Zn6   Zn    Zn3+2 0.000000 0.564980 0.289830 0.985101
Zn7   Zn    Zn3+2 0.435020 0.000000 0.710170 0.984993
Zn8   Zn    Zn3+2 0.564980 0.000000 0.289830 0.984399
Zn9   Zn    Zn3+2 0.500000 0.064980 0.210170 0.984607
Zn10  Zn    Zn3+2 0.500000 0.935020 0.789830 0.985002
Zn11  Zn    Zn3+2 0.064980 0.500000 0.210170 0.984979
Zn12  Zn    Zn3+2 0.935020 0.500000 0.789830 0.984725
Zn13  Zn    Zn3+2 0.500000 0.935020 0.210170 0.984544
Zn14  Zn    Zn3+2 0.500000 0.064980 0.789830 0.984881
Zn15  Zn    Zn3+2 0.935020 0.500000 0.210170 0.985133
Zn16  Zn    Zn3+2 0.064980 0.500000 0.789830 0.984513
O53   O     O_3   0.743737 0.701448 0.830432 -0.543553
C137  C     C_3   0.771728 0.731005 0.866498 0.126273
H1    H     H_    0.782011 0.772599 0.853450 0.090626
H2    H     H_    0.809759 0.709710 0.877854 0.164410
C138  C     C_3   0.735058 0.736724 0.910578 -0.791625
H3    H     H_    0.697053 0.758667 0.900570 0.261612
H4    H     H_    0.756512 0.760115 0.939253 0.190140
H5    H     H_    0.724362 0.695764 0.924894 0.263575
O54   O     O_3   0.296474 0.342594 0.234788 -0.517591
C139  C     C_3   0.328261 0.340532 0.277445 0.129893
H6    H     H_    0.344833 0.298833 0.282773 0.116967
H7    H     H_    0.305065 0.352600 0.310397 0.086889
C140  C     C_3   0.376284 0.379300 0.272149 -0.816028
H8    H     H_    0.361311 0.421679 0.267085 0.260122
H9    H     H_    0.402044 0.377673 0.305176 0.189742
H10   H     H_    0.401417 0.367424 0.240399 0.259271
O55   O     O_3   0.701403 0.256322 0.830383 -0.543568
C141  C     C_3   0.731020 0.228365 0.866430 0.126271
H11   H     H_    0.772634 0.218181 0.853371 0.090615
H12   H     H_    0.709806 0.190281 0.877766 0.164261
C142  C     C_3   0.736669 0.265012 0.910532 -0.791379
H13   H     H_    0.758535 0.303068 0.900547 0.261560
H14   H     H_    0.760105 0.243583 0.939193 0.190278
H15   H     H_    0.695688 0.275614 0.924857 0.263591
O56   O     O_3   0.342487 0.703588 0.234426 -0.517558
C143  C     C_3   0.340579 0.671630 0.276984 0.130988
H16   H     H_    0.298907 0.654996 0.282344 0.116468
H17   H     H_    0.352715 0.694690 0.309985 0.087110
C144  C     C_3   0.379394 0.623680 0.271453 -0.814600
H18   H     H_    0.421744 0.638736 0.266385 0.260427
H19   H     H_    0.377862 0.597764 0.304386 0.189518
H20   H     H_    0.367490 0.598681 0.239628 0.259067
O57   O     O_3   0.256599 0.298949 0.830299 -0.543264
C145  C     C_3   0.228863 0.269307 0.866463 0.126452
H21   H     H_    0.219113 0.227517 0.853588 0.091054
H22   H     H_    0.190553 0.290222 0.877652 0.163371
C146  C     C_3   0.265493 0.264290 0.910638 -0.790566
H23   H     H_    0.303779 0.242736 0.900809 0.261686
H24   H     H_    0.244246 0.240823 0.939385 0.190135
H25   H     H_    0.275668 0.305461 0.924776 0.263500
O58   O     O_3   0.703462 0.657368 0.235405 -0.517541
C147  C     C_3   0.671993 0.659662 0.278237 0.128252
H26   H     H_    0.655899 0.701512 0.283774 0.117009
H27   H     H_    0.695323 0.647234 0.311015 0.086817
C148  C     C_3   0.623500 0.621449 0.273113 -0.817012
H28   H     H_    0.637949 0.578925 0.267821 0.259831
H29   H     H_    0.598017 0.623229 0.306302 0.189944
H30   H     H_    0.598253 0.633736 0.241557 0.259160
O59   O     O_3   0.298177 0.744170 0.830727 -0.543740
C149  C     C_3   0.268722 0.772416 0.866702 0.126143
H31   H     H_    0.227231 0.782975 0.853567 0.090498
H32   H     H_    0.290253 0.810312 0.878056 0.165007
C150  C     C_3   0.262643 0.735851 0.910813 -0.792063
H33   H     H_    0.303494 0.724899 0.925223 0.263648
H34   H     H_    0.239326 0.757506 0.939416 0.190276
H35   H     H_    0.240467 0.697983 0.900804 0.261464
O60   O     O_3   0.657438 0.296418 0.234404 -0.517744
C151  C     C_3   0.659331 0.328410 0.276944 0.130502
H36   H     H_    0.700963 0.345177 0.282223 0.117010
H37   H     H_    0.647339 0.305332 0.309982 0.086992
C152  C     C_3   0.620356 0.376237 0.271450 -0.814892
H38   H     H_    0.578043 0.361051 0.266442 0.260112
H39   H     H_    0.621866 0.402171 0.304372 0.189670
H40   H     H_    0.632126 0.401259 0.239600 0.259498
O61   O     O_3   0.255912 0.701748 0.169322 -0.543675
C153  C     C_3   0.227696 0.731178 0.133311 0.126186
H41   H     H_    0.217099 0.772668 0.146422 0.090456
H42   H     H_    0.189825 0.709624 0.121927 0.165036
C154  C     C_3   0.264313 0.737261 0.089234 -0.791996
H43   H     H_    0.275307 0.696411 0.074848 0.263677
H44   H     H_    0.242679 0.760553 0.060602 0.190291
H45   H     H_    0.302156 0.759463 0.099273 0.261440
O62   O     O_3   0.703503 0.342682 0.765047 -0.517679
C155  C     C_3   0.671749 0.340583 0.722373 0.130014
H46   H     H_    0.655076 0.298909 0.717132 0.117102
H47   H     H_    0.694999 0.352498 0.689406 0.086973
C156  C     C_3   0.623821 0.379489 0.727551 -0.815821
H48   H     H_    0.638900 0.421845 0.732526 0.260066
H49   H     H_    0.598082 0.377831 0.694513 0.189771
H50   H     H_    0.598634 0.367772 0.759313 0.259431
O63   O     O_3   0.298535 0.256209 0.169512 -0.543477
C157  C     C_3   0.268945 0.228218 0.133468 0.126332
H51   H     H_    0.227322 0.218048 0.146511 0.090735
H52   H     H_    0.290165 0.190123 0.122171 0.164216
C158  C     C_3   0.263328 0.264825 0.089336 -0.791453
H53   H     H_    0.241461 0.302893 0.099283 0.261630
H54   H     H_    0.239906 0.243372 0.060680 0.190126
H55   H     H_    0.304319 0.275407 0.075023 0.263565
O64   O     O_3   0.657365 0.703515 0.765112 -0.517639
C159  C     C_3   0.659458 0.671760 0.722438 0.129521
H56   H     H_    0.701166 0.655205 0.717116 0.117124
H57   H     H_    0.647396 0.694980 0.689495 0.086898
C160  C     C_3   0.620708 0.623717 0.727693 -0.816094
H58   H     H_    0.578321 0.638666 0.732762 0.260013
H59   H     H_    0.622352 0.597989 0.694648 0.189818
H60   H     H_    0.632589 0.598559 0.759426 0.259391
O65   O     O_3   0.744155 0.298119 0.169352 -0.543948
C161  C     C_3   0.772332 0.268366 0.133529 0.126096
H61   H     H_    0.782520 0.226835 0.146791 0.090644
H62   H     H_    0.810436 0.289583 0.122252 0.164433
C162  C     C_3   0.735900 0.262437 0.089313 -0.792054
H63   H     H_    0.697831 0.240562 0.099243 0.261598
H64   H     H_    0.757503 0.238891 0.060828 0.190207
H65   H     H_    0.725303 0.303329 0.074786 0.263504
O66   O     O_3   0.296396 0.657544 0.765666 -0.517568
C163  C     C_3   0.328386 0.659424 0.723127 0.130970
H66   H     H_    0.345016 0.701094 0.717750 0.116479
H67   H     H_    0.305353 0.647257 0.690120 0.087087
C164  C     C_3   0.376340 0.620623 0.728713 -0.814495
H68   H     H_    0.361289 0.578275 0.733800 0.260395
H69   H     H_    0.402281 0.622134 0.695795 0.189523
H70   H     H_    0.401312 0.632558 0.760546 0.259099
O67   O     O_3   0.701001 0.743337 0.169745 -0.543155
C165  C     C_3   0.730592 0.771022 0.133518 0.126315
H71   H     H_    0.772394 0.780809 0.146342 0.091065
H72   H     H_    0.709650 0.809305 0.122299 0.163337
C166  C     C_3   0.735571 0.734322 0.089387 -0.790469
H73   H     H_    0.757151 0.696062 0.099247 0.261695
H74   H     H_    0.758997 0.755530 0.060591 0.190138
H75   H     H_    0.694387 0.724109 0.075300 0.263504
O68   O     O_3   0.342688 0.296532 0.764782 -0.517586
C167  C     C_3   0.340459 0.328140 0.722028 0.130020
H76   H     H_    0.298742 0.344704 0.716784 0.116976
H77   H     H_    0.352380 0.304802 0.689112 0.086904
C168  C     C_3   0.379264 0.376172 0.727041 -0.816354
H78   H     H_    0.421660 0.361206 0.732012 0.260115
H79   H     H_    0.377504 0.401797 0.693938 0.189757
H80   H     H_    0.367532 0.401439 0.758749 0.259238
O69   O     O_3   0.243801 0.201490 0.330489 -0.543543
C169  C     C_3   0.271811 0.231053 0.366540 0.126279
H81   H     H_    0.282047 0.272658 0.353493 0.090694
H82   H     H_    0.309871 0.209783 0.377858 0.164337
C170  C     C_3   0.235186 0.236731 0.410654 -0.791571
H83   H     H_    0.197154 0.258648 0.400686 0.261612
H84   H     H_    0.256656 0.260129 0.439315 0.190143
H85   H     H_    0.224539 0.195758 0.424970 0.263563
O70   O     O_3   0.796464 0.842563 0.734760 -0.517576
C171  C     C_3   0.828269 0.840495 0.777406 0.130254
H86   H     H_    0.844865 0.798800 0.782707 0.116837
H87   H     H_    0.805086 0.852531 0.810372 0.086923
C172  C     C_3   0.876266 0.879295 0.772111 -0.815656
H88   H     H_    0.861262 0.921669 0.767082 0.260209
H89   H     H_    0.902048 0.877656 0.805123 0.189678
H90   H     H_    0.901386 0.867461 0.740341 0.259217
O71   O     O_3   0.201691 0.756036 0.330539 -0.543792
C173  C     C_3   0.231396 0.727944 0.366447 0.126157
H91   H     H_    0.272954 0.717747 0.353259 0.090615
H92   H     H_    0.210174 0.689855 0.377756 0.164387
C174  C     C_3   0.237235 0.764464 0.410614 -0.791773
H93   H     H_    0.259111 0.802522 0.400653 0.261576
H94   H     H_    0.260745 0.742929 0.439165 0.190263
H95   H     H_    0.196315 0.775072 0.425071 0.263546
O72   O     O_3   0.842526 0.203556 0.734728 -0.517540
C175  C     C_3   0.840480 0.171737 0.777364 0.130702
H96   H     H_    0.798787 0.155137 0.782673 0.116582
H97   H     H_    0.852528 0.194903 0.810334 0.087012
C176  C     C_3   0.879289 0.123752 0.772043 -0.815063
H98   H     H_    0.921661 0.138770 0.767027 0.260346
H99   H     H_    0.877655 0.097947 0.805041 0.189579
H100  H     H_    0.867462 0.098653 0.740258 0.259088
O73   O     O_3   0.756784 0.799146 0.330178 -0.543083
C177  C     C_3   0.729263 0.769227 0.366289 0.126571
H101  H     H_    0.720179 0.727276 0.353442 0.091502
H102  H     H_    0.690601 0.789628 0.377286 0.162128
C178  C     C_3   0.765728 0.764823 0.410625 -0.789782
H103  H     H_    0.804363 0.743785 0.400996 0.261852
H104  H     H_    0.744657 0.741128 0.439327 0.190015
H105  H     H_    0.775250 0.806167 0.424727 0.263358
O74   O     O_3   0.203478 0.157350 0.735276 -0.517573
C179  C     C_3   0.171912 0.159611 0.778054 0.128823
H106  H     H_    0.155568 0.201391 0.783432 0.117120
H107  H     H_    0.195231 0.147445 0.810914 0.086840
C180  C     C_3   0.123660 0.121091 0.772965 -0.816706
H108  H     H_    0.138379 0.078633 0.767838 0.259922
H109  H     H_    0.098089 0.122855 0.806101 0.189905
H110  H     H_    0.098416 0.133097 0.741323 0.259278
O75   O     O_3   0.798104 0.244240 0.330748 -0.543730
C181  C     C_3   0.768617 0.272532 0.366673 0.126217
H111  H     H_    0.727154 0.283121 0.353483 0.090424
H112  H     H_    0.790163 0.310416 0.378035 0.165053
C182  C     C_3   0.762435 0.235996 0.410792 -0.792217
H113  H     H_    0.803254 0.225013 0.425257 0.263660
H114  H     H_    0.739096 0.257691 0.439357 0.190223
H115  H     H_    0.740237 0.198143 0.400775 0.261452
O76   O     O_3   0.157380 0.796449 0.734568 -0.517732
C183  C     C_3   0.159329 0.828381 0.777142 0.130352
H116  H     H_    0.200974 0.845119 0.782412 0.117036
H117  H     H_    0.147351 0.805263 0.810161 0.086988
C184  C     C_3   0.120381 0.876241 0.771723 -0.815204
H118  H     H_    0.078054 0.861091 0.766728 0.260097
H119  H     H_    0.121936 0.902131 0.804672 0.189704
H120  H     H_    0.132140 0.901297 0.739892 0.259482
O77   O     O_3   0.756155 0.201506 0.669443 -0.543552
C185  C     C_3   0.728067 0.230874 0.633314 0.126235
H121  H     H_    0.717506 0.272418 0.646313 0.090487
H122  H     H_    0.690188 0.209346 0.621912 0.164879
C186  C     C_3   0.764793 0.236775 0.589290 -0.791671
H123  H     H_    0.775758 0.195868 0.575015 0.263688
H124  H     H_    0.743259 0.260017 0.560566 0.190314
H125  H     H_    0.802647 0.258949 0.599345 0.261444
O78   O     O_3   0.203547 0.842615 0.265367 -0.517736
C187  C     C_3   0.171651 0.840632 0.222773 0.130193
H126  H     H_    0.154927 0.798981 0.217511 0.117086
H127  H     H_    0.194796 0.852595 0.189763 0.086980
C188  C     C_3   0.123775 0.879569 0.228140 -0.815321
H128  H     H_    0.138909 0.921901 0.233138 0.260077
H129  H     H_    0.097921 0.877998 0.195169 0.189732
H130  H     H_    0.098687 0.867813 0.259952 0.259500
O79   O     O_3   0.798527 0.756192 0.669480 -0.543521
C189  C     C_3   0.769000 0.728183 0.633406 0.126293
H131  H     H_    0.727388 0.717927 0.646427 0.090722
H132  H     H_    0.790292 0.690135 0.622090 0.164354
C190  C     C_3   0.763339 0.764820 0.589299 -0.791573
H133  H     H_    0.741401 0.802840 0.599265 0.261612
H134  H     H_    0.739968 0.743352 0.560619 0.190144
H135  H     H_    0.804319 0.775487 0.575009 0.263568
O80   O     O_3   0.157407 0.203527 0.265192 -0.517618
C191  C     C_3   0.159482 0.171752 0.222529 0.129597
H136  H     H_    0.201193 0.155215 0.217186 0.117047
H137  H     H_    0.147380 0.194948 0.189586 0.086875
C192  C     C_3   0.120760 0.123691 0.227828 -0.816082
H138  H     H_    0.078369 0.138622 0.232914 0.260052
H139  H     H_    0.122393 0.097945 0.194793 0.189788
H140  H     H_    0.132676 0.098558 0.259565 0.259328
O81   O     O_3   0.244009 0.798259 0.669442 -0.543824
C193  C     C_3   0.272124 0.768529 0.633566 0.126164
H141  H     H_    0.282305 0.726978 0.646782 0.090627
H142  H     H_    0.310226 0.789737 0.622270 0.164385
C194  C     C_3   0.235636 0.762669 0.589380 -0.791830
H143  H     H_    0.197567 0.740804 0.599328 0.261576
H144  H     H_    0.257190 0.739140 0.560854 0.190248
H145  H     H_    0.225044 0.803581 0.574897 0.263539
O82   O     O_3   0.796391 0.157532 0.265766 -0.517563
C195  C     C_3   0.828435 0.159345 0.223256 0.131189
H146  H     H_    0.845090 0.201002 0.217858 0.116395
H147  H     H_    0.805440 0.147148 0.190238 0.087162
C196  C     C_3   0.876363 0.120527 0.228926 -0.814286
H148  H     H_    0.861283 0.078191 0.234032 0.260451
H149  H     H_    0.902349 0.121990 0.196034 0.189480
H150  H     H_    0.901298 0.132482 0.260776 0.259063
O83   O     O_3   0.201147 0.243438 0.669717 -0.543326
C197  C     C_3   0.230551 0.271288 0.633468 0.126296
H151  H     H_    0.272193 0.281645 0.646352 0.090592
H152  H     H_    0.209192 0.309261 0.622053 0.164389
C198  C     C_3   0.236114 0.234434 0.589492 -0.791160
H153  H     H_    0.258114 0.196482 0.599557 0.261546
H154  H     H_    0.259382 0.255779 0.560675 0.190235
H155  H     H_    0.195102 0.223660 0.575337 0.263640
O84   O     O_3   0.842754 0.796576 0.264543 -0.517595
C199  C     C_3   0.840466 0.828063 0.221721 0.129099
H156  H     H_    0.798686 0.844412 0.216349 0.117098
H157  H     H_    0.852591 0.804678 0.188885 0.086834
C200  C     C_3   0.879010 0.876309 0.226710 -0.816999
H158  H     H_    0.921467 0.861583 0.231829 0.259923
H159  H     H_    0.877225 0.901818 0.193538 0.189881
H160  H     H_    0.867043 0.901616 0.258323 0.259269
O85   O     O_3   0.819453 0.617582 0.828608 -0.582771
C201  C     C_3   0.777486 0.578323 0.825549 -0.125544
H161  H     H_    0.783645 0.547786 0.854657 0.184486
H162  H     H_    0.778549 0.556156 0.790422 0.143541
H163  H     H_    0.736667 0.597038 0.831089 0.182626
O86   O     O_3   0.217765 0.421045 0.236563 -0.536150
C202  C     C_3   0.221954 0.448141 0.281496 -0.265172
H164  H     H_    0.182251 0.449428 0.300879 0.127198
H165  H     H_    0.234623 0.490881 0.274828 0.165224
H166  H     H_    0.253449 0.429357 0.304991 0.140173
O87   O     O_3   0.617552 0.180599 0.828576 -0.582669
C203  C     C_3   0.578283 0.222554 0.825499 -0.125427
H167  H     H_    0.547750 0.216407 0.854611 0.184446
H168  H     H_    0.556111 0.221465 0.790373 0.143596
H169  H     H_    0.596989 0.263380 0.831020 0.182632
O88   O     O_3   0.421015 0.782127 0.236679 -0.536424
C204  C     C_3   0.448044 0.778196 0.281669 -0.265216
H170  H     H_    0.451450 0.818545 0.299725 0.129735
H171  H     H_    0.490038 0.763063 0.275300 0.165106
H172  H     H_    0.427813 0.748710 0.306271 0.136654
O89   O     O_3   0.180888 0.382744 0.828426 -0.582088
C205  C     C_3   0.222761 0.422065 0.825019 -0.125011
H173  H     H_    0.216782 0.452676 0.854096 0.184819
H174  H     H_    0.221372 0.444129 0.789848 0.143399
H175  H     H_    0.263658 0.403438 0.830342 0.182241
O90   O     O_3   0.782331 0.578922 0.236828 -0.536178
C206  C     C_3   0.778018 0.551953 0.281812 -0.267298
H176  H     H_    0.816602 0.553819 0.302920 0.124040
H177  H     H_    0.769027 0.508303 0.275067 0.165591
H178  H     H_    0.743909 0.568532 0.303650 0.145435
O91   O     O_3   0.382161 0.819806 0.828820 -0.583107
C207  C     C_3   0.421340 0.777742 0.826026 -0.125926
H179  H     H_    0.451854 0.784039 0.855130 0.184374
H180  H     H_    0.443556 0.778513 0.790916 0.143411
H181  H     H_    0.402535 0.737002 0.831771 0.182845
O92   O     O_3   0.578975 0.217780 0.236443 -0.536153
C208  C     C_3   0.551855 0.221940 0.281369 -0.265021
H182  H     H_    0.549367 0.181896 0.300085 0.128694
H183  H     H_    0.509522 0.235971 0.274783 0.165118
H184  H     H_    0.571428 0.252389 0.305449 0.138194
O93   O     O_3   0.180286 0.617763 0.171234 -0.583026
C209  C     C_3   0.222326 0.578566 0.174120 -0.125928
H185  H     H_    0.216094 0.548052 0.145005 0.184458
H186  H     H_    0.221446 0.556355 0.209230 0.143476
H187  H     H_    0.263092 0.597351 0.168462 0.182717
O94   O     O_3   0.782236 0.421099 0.763245 -0.536263
C210  C     C_3   0.778130 0.448108 0.718264 -0.265529
H188  H     H_    0.817939 0.449589 0.699066 0.127585
H189  H     H_    0.765181 0.490784 0.724830 0.165171
H190  H     H_    0.746879 0.429118 0.694640 0.139933
O95   O     O_3   0.382399 0.180506 0.171361 -0.582650
C211  C     C_3   0.421675 0.222455 0.174424 -0.125545
H191  H     H_    0.452194 0.216304 0.145299 0.184587
H192  H     H_    0.443862 0.221357 0.209541 0.143515
H193  H     H_    0.402974 0.263285 0.168913 0.182509
O96   O     O_3   0.578934 0.782272 0.763402 -0.536116
C212  C     C_3   0.551862 0.778038 0.718461 -0.265446
H194  H     H_    0.551180 0.817544 0.698730 0.126617
H195  H     H_    0.508927 0.766064 0.725160 0.165289
H196  H     H_    0.570245 0.746019 0.695285 0.141161
O97   O     O_3   0.819955 0.381967 0.171102 -0.583211
C213  C     C_3   0.777873 0.421151 0.173631 -0.125761
H197  H     H_    0.784361 0.451615 0.144519 0.183998
H198  H     H_    0.778408 0.443429 0.208712 0.143255
H199  H     H_    0.737174 0.402338 0.167696 0.183258
O98   O     O_3   0.217866 0.579008 0.763410 -0.536352
C214  C     C_3   0.221835 0.551949 0.718438 -0.265143
H200  H     H_    0.181507 0.548555 0.700341 0.129674
H201  H     H_    0.236936 0.509951 0.724841 0.165071
H202  H     H_    0.251363 0.572147 0.693855 0.136639
O99   O     O_3   0.617178 0.819010 0.171637 -0.582051
C215  C     C_3   0.577873 0.777133 0.175156 -0.124861
H203  H     H_    0.547208 0.783055 0.146114 0.184870
H204  H     H_    0.555873 0.778576 0.210356 0.143329
H205  H     H_    0.596502 0.736233 0.169862 0.182205
O100  O     O_3   0.421124 0.217797 0.763040 -0.536404
C216  C     C_3   0.448060 0.221816 0.718019 -0.265913
H206  H     H_    0.449198 0.182062 0.698709 0.127146
H207  H     H_    0.490851 0.234418 0.724537 0.165229
H208  H     H_    0.429244 0.253290 0.694522 0.140571
O101  O     O_3   0.319506 0.117614 0.328646 -0.582745
C217  C     C_3   0.277531 0.078362 0.325613 -0.125548
H209  H     H_    0.283705 0.047826 0.354719 0.184524
H210  H     H_    0.278567 0.056191 0.290486 0.143461
H211  H     H_    0.236719 0.097083 0.331174 0.182617
O102  O     O_3   0.717809 0.921043 0.736681 -0.536263
C218  C     C_3   0.721891 0.948078 0.781653 -0.265275
H212  H     H_    0.681964 0.949986 0.800618 0.127925
H213  H     H_    0.735317 0.990610 0.775103 0.165171
H214  H     H_    0.752775 0.928822 0.805491 0.139163
O103  O     O_3   0.117841 0.680267 0.328768 -0.582998
C219  C     C_3   0.078619 0.722294 0.326019 -0.125628
H215  H     H_    0.048138 0.715950 0.355141 0.184151
H216  H     H_    0.056371 0.721523 0.290925 0.143466
H217  H     H_    0.097387 0.763049 0.331771 0.182996
O104  O     O_3   0.921038 0.282137 0.736832 -0.536427
C220  C     C_3   0.948010 0.278226 0.781848 -0.265377
H218  H     H_    0.950858 0.318463 0.800181 0.129068
H219  H     H_    0.990212 0.263689 0.775472 0.165135
H220  H     H_    0.928090 0.248275 0.806199 0.137623
O105  O     O_3   0.680989 0.882807 0.328368 -0.581659
C221  C     C_3   0.722792 0.922195 0.324888 -0.124491
H221  H     H_    0.716822 0.952802 0.353969 0.184817
H222  H     H_    0.721298 0.944248 0.289716 0.143334
H223  H     H_    0.763730 0.903635 0.330149 0.182128
O106  O     O_3   0.282299 0.078917 0.736819 -0.536187
C222  C     C_3   0.278060 0.051944 0.781804 -0.266503
H224  H     H_    0.317145 0.052574 0.802211 0.125307
H225  H     H_    0.267576 0.008620 0.775110 0.165431
H226  H     H_    0.244986 0.069462 0.804319 0.143413
O107  O     O_3   0.882091 0.319877 0.328854 -0.583158
C223  C     C_3   0.921286 0.277822 0.326123 -0.126076
H227  H     H_    0.951750 0.284137 0.355265 0.184325
H228  H     H_    0.943559 0.278588 0.291041 0.143558
H229  H     H_    0.902483 0.237078 0.331855 0.182806
O108  O     O_3   0.078939 0.717773 0.736545 -0.536187
C224  C     C_3   0.051857 0.721920 0.781490 -0.265161
H230  H     H_    0.049734 0.681964 0.800389 0.128280
H231  H     H_    0.009398 0.735560 0.774908 0.165124
H232  H     H_    0.071220 0.752665 0.805404 0.138774
O109  O     O_3   0.680555 0.117523 0.671385 -0.582780
C225  C     C_3   0.722559 0.078312 0.674520 -0.125674
H233  H     H_    0.716457 0.047724 0.645445 0.184649
H234  H     H_    0.721486 0.056198 0.709674 0.143424
H235  H     H_    0.763364 0.097061 0.668986 0.182550
O110  O     O_3   0.282236 0.921057 0.263431 -0.536180
C226  C     C_3   0.278076 0.948125 0.218481 -0.265264
H236  H     H_    0.317958 0.949977 0.199431 0.127992
H237  H     H_    0.264740 0.990678 0.225076 0.165152
H238  H     H_    0.247093 0.928932 0.194704 0.139245
O111  O     O_3   0.882416 0.680506 0.671356 -0.582709
C227  C     C_3   0.921667 0.722478 0.674427 -0.125610
H239  H     H_    0.952211 0.716329 0.645324 0.184571
H240  H     H_    0.943828 0.721410 0.709558 0.143491
H241  H     H_    0.902948 0.763294 0.668889 0.182562
O112  O     O_3   0.078957 0.282261 0.263459 -0.536104
C228  C     C_3   0.051857 0.278020 0.218532 -0.265292
H242  H     H_    0.051033 0.317562 0.198864 0.126716
H243  H     H_    0.008968 0.265896 0.225245 0.165304
H244  H     H_    0.070319 0.246107 0.195288 0.140906
O113  O     O_3   0.319792 0.882101 0.671199 -0.583032
C229  C     C_3   0.277757 0.921322 0.673885 -0.125677
H245  H     H_    0.284135 0.951784 0.644753 0.184150
H246  H     H_    0.278481 0.943593 0.708968 0.143418
H247  H     H_    0.237011 0.902547 0.668101 0.183027
O114  O     O_3   0.717877 0.079002 0.263444 -0.536399
C230  C     C_3   0.721824 0.051922 0.218478 -0.265156
H248  H     H_    0.681400 0.048124 0.200616 0.130194
H249  H     H_    0.737367 0.010079 0.224849 0.165049
H250  H     H_    0.750984 0.072356 0.193699 0.135995
O115  O     O_3   0.117237 0.319068 0.671613 -0.582432
C231  C     C_3   0.077966 0.277152 0.675057 -0.125289
H251  H     H_    0.047325 0.283086 0.645998 0.184827
H252  H     H_    0.055930 0.278527 0.710242 0.143504
H253  H     H_    0.096637 0.236275 0.669733 0.182299
O116  O     O_3   0.921155 0.717721 0.263057 -0.536327
C232  C     C_3   0.948106 0.721890 0.218056 -0.266641
H254  H     H_    0.947419 0.682792 0.197673 0.125221
H255  H     H_    0.991447 0.732329 0.224721 0.165398
H256  H     H_    0.930612 0.754968 0.195529 0.143552

loop_
_geom_bond_atom_site_label_1
_geom_bond_atom_site_label_2
_ccdc_geom_bond_type
C222  H224  S    
C13   C79   A    
C75   C107  A    
O72   C175  S    
C47   C136  S    
C160  H59   S    
C200  H158  S    
C48   C135  S    
O99   C215  S    
C107  C129  A    
C46   C129  S    
C170  H83   S    
C105  C131  A    
C220  H218  S    
C156  H50   S    
C106  C132  A    
C86   O82   S    
C181  H111  S    
O81   C193  S    
C217  H209  S    
C201  H162  S    
C210  H189  S    
C142  H15   S    
C41   O51   A    
C175  C176  S    
C223  H228  S    
C192  H138  S    
C54   O40   A    
C226  H236  S    
C45   O25   A    
C55   O37   A    
C180  H110  S    
C149  H32   S    
C102  O98   S    
C197  C198  S    
C209  H185  S    
C175  H96   S    
C36   O12   A    
C219  H217  S    
C198  H154  S    
C18   C26   T    
C225  H233  S    
C165  C166  S    
C178  H105  S    
C60   C92   A    
C45   C130  S    
O58   C147  S    
C189  H132  S    
O39   Zn2   S    
O116  C232  S    
C232  H256  S    
O3    Zn7   S    
C147  H27   S    
C74   O70   S    
C176  H100  S    
C209  H186  S    
C82   O78   S    
C60   O56   S    
O112  C228  S    
C212  H195  S    
C137  H1    S    
C196  H150  S    
C183  H117  S    
C20   C28   T    
C72   O68   S    
O69   C169  S    
C21   C29   T    
C231  H253  S    
C56   O38   A    
C216  H208  S    
C23   C31   T    
O83   C197  S    
C100  O96   S    
O56   C143  S    
O9    Zn16  S    
C229  H246  S    
C224  H232  S    
C211  H191  S    
C80   C112  A    
C225  H235  S    
C230  H249  S    
C221  H221  S    
C206  H177  S    
O21   Zn16  S    
C59   C91   A    
C172  H90   S    
C143  H17   S    
C57   C89   A    
C202  H165  S    
C205  H174  S    
C106  O102  S    
O76   C183  S    
C200  H160  S    
C187  H127  S    
O101  C217  S    
C170  H85   S    
C110  O106  S    
C229  H247  S    
C184  H118  S    
C220  H220  S    
C92   O88   S    
C197  H152  S    
C157  C158  S    
C112  C134  A    
O96   C212  S    
C171  C172  S    
C85   O81   S    
C100  C132  A    
O24   Zn9   S    
C48   O28   A    
O1    Zn16  S    
C101  C133  A    
C118  O114  S    
C205  H175  S    
C232  H254  S    
C141  C142  S    
C17   C25   T    
O108  C224  S    
C25   C26   S    
C204  H171  S    
O78   C187  S    
C157  H52   S    
C34   O10   A    
C169  C170  S    
C6    C62   A    
O40   Zn1   S    
C159  H56   S    
O17   Zn8   S    
C95   O91   S    
O57   C145  S    
C192  H140  S    
C64   O60   S    
O32   Zn14  S    
C8    C86   A    
C36   O8    A    
O90   C206  S    
C193  H142  S    
C78   O74   S    
C215  H203  S    
C166  H73   S    
C222  H226  S    
O68   C167  S    
C98   O94   S    
O11   Zn10  S    
C150  H34   S    
C188  H128  S    
O73   C177  S    
C141  H11   S    
C49   O43   A    
C214  H202  S    
O71   C173  S    
C115  C121  A    
C109  C135  A    
C96   O92   S    
O6    Zn11  S    
C51   O31   A    
C230  H248  S    
C47   O45   A    
C154  H45   S    
C186  H123  S    
C229  H245  S    
C230  H250  S    
C50   O44   A    
C116  O112  S    
O85   C201  S    
C207  H179  S    
C49   C126  S    
C12   C68   A    
C96   C128  A    
C148  H28   S    
O55   C141  S    
C69   O65   S    
O15   Zn6   S    
C43   O23   A    
C53   C122  S    
O60   C151  S    
C139  H7    S    
C164  H69   S    
O16   Zn5   S    
C43   O49   A    
C211  H193  S    
C39   O15   A    
C6    C88   A    
C40   O16   A    
O52   Zn2   S    
C150  H33   S    
C46   O48   A    
C76   O72   S    
C179  H106  S    
C165  H72   S    
C177  H101  S    
O23   Zn10  S    
O115  C231  S    
C162  H64   S    
C3    C81   A    
O36   Zn10  S    
C199  H156  S    
C144  H18   S    
C70   O66   S    
C108  C130  A    
C189  C190  S    
O20   Zn1   S    
C23   C34   S    
C219  H216  S    
C103  O99   S    
C84   C116  A    
C91   C123  A    
O62   C155  S    
O22   Zn15  S    
C168  H79   S    
O109  C225  S    
C1    C12   S    
C199  C200  S    
O45   Zn7   S    
C2    C11   S    
C190  H134  S    
O89   C205  S    
C9    C65   A    
C10   C66   A    
C184  H120  S    
C161  H62   S    
C83   C115  A    
C218  H214  S    
C203  H167  S    
C64   C96   A    
C169  H81   S    
C35   O11   A    
C149  C150  S    
C33   O5    A    
C140  H8    S    
C39   O19   A    
C208  H183  S    
C179  C180  S    
C77   C109  A    
C68   C100  A    
C87   C119  A    
O64   C159  S    
C1    C57   A    
C226  H237  S    
C73   C105  A    
C31   C32   S    
C215  H205  S    
C166  H75   S    
C68   O64   S    
C4    C60   A    
O37   Zn8   S    
C231  H252  S    
C138  H3    S    
C5    C61   A    
C50   C125  S    
C188  H130  S    
C175  H97   S    
C152  H39   S    
C177  C178  S    
C7    C63   A    
C167  H76   S    
C213  H198  S    
C8    C64   A    
O18   Zn7   S    
C54   C121  S    
O86   C202  S    
C191  H136  S    
C185  H122  S    
C172  H89   S    
O95   C211  S    
C186  H125  S    
C53   O39   A    
C228  H244  S    
C71   C103  A    
O106  C222  S    
C141  H12   S    
C148  H30   S    
C99   O95   S    
C22   C30   T    
O25   Zn12  S    
C187  H126  S    
C227  H239  S    
O3    Zn14  S    
C194  H143  S    
C151  H36   S    
C53   O33   A    
C216  H207  S    
C87   O83   S    
C146  H25   S    
C66   C98   A    
C81   O77   S    
O113  C229  S    
O77   C185  S    
C71   O67   S    
C217  H210  S    
C20   C37   S    
C201  H163  S    
C15   C77   A    
C13   C69   A    
O48   Zn6   S    
C145  H21   S    
C154  H44   S    
C108  O104  S    
C226  H238  S    
C180  H109  S    
O28   Zn13  S    
O8    Zn13  S    
C5    C87   A    
C8    C13   S    
O107  C223  S    
C191  C192  S    
C198  H153  S    
C44   O50   A    
C206  H176  S    
C90   O86   S    
C155  H46   S    
C167  H77   S    
C182  H114  S    
C4    C9    S    
C51   O41   A    
C163  C164  S    
C105  O101  S    
O44   Zn5   S    
C178  H104  S    
C147  C148  S    
C114  O110  S    
C117  O113  S    
O79   C189  S    
C12   C74   A    
C192  H139  S    
C54   O34   A    
C2    C84   A    
C218  H212  S    
C16   C72   A    
C203  H169  S    
C151  C152  S    
C174  H93   S    
O3    Zn10  S    
C165  H71   S    
O54   C139  S    
C140  H10   S    
C176  H99   S    
C145  C146  S    
O80   C191  S    
C116  C122  A    
O3    Zn3   S    
C92   C124  A    
C212  H194  S    
C137  H2    S    
O12   Zn9   S    
C196  H149  S    
C94   C126  A    
C63   C95   A    
C138  H5    S    
C69   C101  A    
C75   O71   S    
C66   O62   S    
O102  C218  S    
C160  H58   S    
C101  O97   S    
C195  H146  S    
C113  O109  S    
C174  H94   S    
O14   Zn3   S    
C147  H26   S    
C110  C136  A    
C158  H55   S    
C224  H231  S    
C155  C156  S    
C211  H192  S    
C50   O30   A    
C221  H222  S    
C88   C120  A    
C29   C30   S    
C104  C136  A    
C217  H211  S    
C67   C99   A    
O33   Zn11  S    
C47   O27   A    
C220  H219  S    
C89   O85   S    
O38   Zn7   S    
C76   C108  A    
O41   Zn4   S    
O61   C153  S    
C56   O36   A    
C51   C124  S    
C200  H159  S    
C153  C154  S    
C42   O22   A    
C227  H241  S    
C55   O35   A    
O88   C204  S    
C170  H84   S    
O49   Zn3   S    
C145  H22   S    
C173  H91   S    
O2    Zn6   S    
C221  H223  S    
C93   O89   S    
C159  C160  S    
C11   C73   A    
C201  H161  S    
C210  H190  S    
C72   C104  A    
C181  C182  S    
O53   C137  S    
O26   Zn11  S    
C213  H199  S    
C223  H227  S    
C52   O42   A    
O87   C203  S    
C49   O29   A    
C204  H170  S    
O19   Zn2   S    
C37   O17   A    
C232  H255  S    
O2    Zn15  S    
C113  C123  A    
C198  H155  S    
C104  O100  S    
C86   C118  A    
O4    Zn9   S    
C173  H92   S    
C117  C127  A    
C193  C194  S    
C41   O21   A    
C119  C125  A    
C215  H204  S    
C222  H225  S    
C97   O93   S    
C189  H131  S    
C44   O24   A    
C107  O103  S    
C156  H49   S    
C109  O105  S    
C174  H95   S    
O104  C220  S    
C45   O47   A    
C182  H113  S    
C42   O52   A    
C214  H201  S    
C163  H66   S    
C34   O6    A    
C91   O87   S    
C218  H213  S    
C171  H86   S    
O65   C161  S    
C37   O13   A    
C62   O58   S    
C212  H196  S    
C2    C58   A    
C183  H116  S    
C99   C131  A    
C1    C83   A    
C15   C71   A    
C24   C33   S    
C173  C174  S    
C207  H181  S    
C150  H35   S    
O94   C210  S    
O4    Zn13  S    
C164  H68   S    
C7    C85   A    
C89   C121  A    
O47   Zn5   S    
C206  H178  S    
C169  H82   S    
O31   Zn13  S    
C143  H16   S    
C14   C70   A    
C93   C125  A    
C65   C97   A    
C58   O54   S    
C95   C127  A    
C202  H166  S    
C67   O63   S    
C162  H63   S    
C81   C113  A    
C153  H41   S    
C158  H54   S    
C199  H157  S    
C112  O108  S    
C61   C93   A    
C17   C40   S    
C52   O32   A    
C80   O76   S    
C35   O7    A    
C209  H187  S    
C88   O84   S    
C159  H57   S    
O27   Zn14  S    
C197  H151  S    
O82   C195  S    
C168  H78   S    
C83   O79   S    
C18   C39   S    
C183  C184  S    
C24   C32   T    
C190  H133  S    
C210  H188  S    
C21   C36   S    
C63   O59   S    
O66   C163  S    
C44   C131  S    
C77   O73   S    
C22   C35   S    
C184  H119  S    
C161  C162  S    
C149  H31   S    
O67   C165  S    
C223  H229  S    
C43   C132  S    
C19   C38   S    
C203  H168  S    
C146  H23   S    
C204  H172  S    
C157  H51   S    
C52   C123  S    
C42   C133  S    
C111  O107  S    
C214  H200  S    
C57   O53   S    
C94   O90   S    
C143  C144  S    
C208  H182  S    
C56   C127  S    
C103  C135  A    
C193  H141  S    
C231  H251  S    
C5    C16   S    
C59   O55   S    
C142  H14   S    
C6    C15   S    
C171  H87   S    
C10   C76   A    
C7    C14   S    
C166  H74   S    
C187  C188  S    
O91   C207  S    
C70   C102  A    
O5    Zn12  S    
C115  O111  S    
C188  H129  S    
C65   O61   S    
C152  H38   S    
O29   Zn15  S    
C16   C78   A    
C182  H115  S    
C114  C124  A    
C194  H145  S    
C119  O115  S    
C191  H137  S    
C90   C122  A    
C185  C186  S    
C98   C130  A    
O2    Zn2   S    
C118  C128  A    
C167  C168  S    
C41   C134  S    
C186  H124  S    
C11   C67   A    
C195  H147  S    
C228  H243  S    
O1    Zn5   S    
C148  H29   S    
O110  C226  S    
O100  C216  S    
C82   C114  A    
C227  H240  S    
C213  H197  S    
O103  C219  S    
C73   O69   S    
C139  H6    S    
C111  C133  A    
C164  H70   S    
C151  H37   S    
C160  H60   S    
C156  H48   S    
C205  H173  S    
C146  H24   S    
C85   C117  A    
C102  C134  A    
C228  H242  S    
O10   Zn15  S    
O59   C149  S    
C74   C106  A    
C58   C90   A    
C144  H20   S    
C202  H164  S    
O1    Zn12  S    
C162  H65   S    
C216  H206  S    
C142  H13   S    
C78   C110  A    
O30   Zn16  S    
O114  C230  S    
C144  H19   S    
C180  H108  S    
C195  C196  S    
C120  C126  A    
C33   O9    A    
O1    Zn1   S    
O43   Zn6   S    
C219  H215  S    
O105  C221  S    
C14   C80   A    
O4    Zn4   S    
C168  H80   S    
C155  H47   S    
O46   Zn8   S    
C38   O18   A    
O4    Zn8   S    
C163  H67   S    
C190  H135  S    
C19   C27   T    
C158  H53   S    
C178  H103  S    
O97   C213  S    
C161  H61   S    
O13   Zn4   S    
C181  H112  S    
C84   O80   S    
C185  H121  S    
C139  C140  S    
O63   C157  S    
C225  H234  S    
C140  H9    S    
C194  H144  S    
C176  H98   S    
C79   C111  A    
C208  H184  S    
C61   O57   S    
C62   C94   A    
C79   O75   S    
C97   C129  A    
O35   Zn9   S    
C3    C10   S    
O74   C179  S    
O2    Zn11  S    
C48   O46   A    
O42   Zn3   S    
C137  C138  S    
C120  O116  S    
C196  H148  S    
O75   C181  S    
O92   C208  S    
C138  H4    S    
C179  H107  S    
C207  H180  S    
C153  H42   S    
O50   Zn4   S    
O84   C199  S    
C152  H40   S    
C177  H102  S    
O51   Zn1   S    
O111  C227  S    
O34   Zn12  S    
O7    Zn14  S    
C4    C82   A    
C55   C128  S    
C224  H230  S    
C46   O26   A    
C27   C28   S    
O70   C171  S    
O98   C214  S    
C40   O20   A    
C9    C75   A    
C172  H88   S    
O93   C209  S    
C38   O14   A    
C3    C59   A    
C154  H43   S    
