data_mof_unit_31586.cif
_audit_creation_date              2012-10-26T18:28:24-0400
_audit_creation_method            fapswitch 2.2
_symmetry_space_group_name_H-M    P1
_symmetry_Int_Tables_number       1
_space_group_crystal_system       triclinic
_cell_length_a                    27.717948
_cell_length_b                    11.004928
_cell_length_c                    9.920108
_cell_angle_alpha                 111.887194
_cell_angle_beta                  96.419296
_cell_angle_gamma                 92.09476
_cell_volume                      2780.19305661

loop_
_atom_site_label
_atom_site_type_symbol
_atom_type_description
_atom_site_fract_x
_atom_site_fract_y
_atom_site_fract_z
_atom_type_partial_charge
C1    C     C_R   0.496842 0.253672 0.439538 0.573304
C2    C     C_R   0.868409 0.390951 0.406777 0.035653
C3    C     C_R   0.355197 0.489986 0.505461 -0.013816
C4    C     C_R   0.644595 0.502005 0.492541 -0.009962
C5    C     C_R   0.970617 0.381539 0.437125 0.011283
C6    C     C_R   0.031132 0.610218 0.614601 0.030933
C7    C     C_R   0.980100 0.606929 0.625313 0.038891
C8    C     C_R   0.021581 0.373703 0.458882 0.016403
C9    C     C_R   0.949924 0.494292 0.527181 0.003492
C10   C     C_R   0.051667 0.491828 0.535951 0.003866
C11   C     C_R   0.939941 0.283436 0.321927 -0.149342
C12   C     C_R   0.504168 0.746446 0.560308 0.570076
C13   C     C_R   0.062385 0.727420 0.674141 -0.117288
C14   C     C_R   0.889671 0.288049 0.306911 -0.109122
C15   C     C_R   0.112449 0.726138 0.672723 -0.113379
C16   C     C_R   0.407825 0.496264 0.501585 0.570387
C17   C     C_R   0.592129 0.502264 0.497936 0.558206
C18   C     C_R   0.043833 0.252982 0.405077 0.127482
C19   C     C_R   0.957483 0.709333 0.728696 0.121207
C20   C     C_2   0.495367 0.112292 0.403752 0.082410
C21   C     C_2   0.508284 0.888007 0.595496 0.085316
C22   C     C_2   0.511377 0.069576 0.509456 -0.113406
C23   C     C_R   0.102668 0.491743 0.532810 -0.037152
C24   C     C_2   0.508898 0.930649 0.485447 -0.106987
C25   C     C_2   0.507428 0.498757 0.074250 0.244064
C26   C     C_2   0.492821 0.498160 0.922736 0.257297
C27   C     C_R   0.173413 0.378596 0.447709 0.426387
C28   C     C_R   0.826218 0.591965 0.610990 0.426504
C29   C     C_R   0.183700 0.605516 0.603687 0.410758
C30   C     C_R   0.817595 0.394695 0.397135 0.412672
C31   C     C_R   0.277877 0.575154 0.467726 -0.072699
C32   C     C_R   0.718622 0.397234 0.513861 -0.074814
C33   C     C_R   0.327851 0.577331 0.463425 -0.157375
C34   C     C_R   0.898519 0.494069 0.517515 -0.036221
C35   C     C_R   0.668515 0.399399 0.513297 -0.158385
C36   C     C_R   0.331875 0.396851 0.548280 0.060441
C37   C     C_R   0.671224 0.604179 0.472267 0.056414
C38   C     C_R   0.282407 0.404303 0.568027 0.165590
C39   C     C_R   0.721514 0.597396 0.463458 0.172432
C40   C     C_R   0.254817 0.490907 0.522171 0.210912
C41   C     C_R   0.745415 0.495505 0.489280 0.213952
C42   C     C_3   0.405644 0.515094 0.907231 -0.253703
C43   C     C_3   0.596576 0.498284 0.099926 -0.266549
C44   C     C_3   0.021147 0.018983 0.252397 -0.309764
C45   C     C_R   0.123237 0.375054 0.456520 -0.003822
C46   C     C_3   0.975880 0.945098 0.844308 -0.327894
C47   C     C_R   0.877151 0.596274 0.618853 -0.000483
C48   C     C_R   0.093980 0.256353 0.397282 -0.064042
C49   C     C_R   0.906834 0.700033 0.726317 -0.091321
C50   C     C_R   0.133131 0.608609 0.604494 0.032872
Cu1   Cu    Cu3+1 0.508480 0.521810 0.644910 1.031374
Cu2   Cu    Cu3+1 0.491520 0.478190 0.355090 1.003875
H1    H     H_    0.553979 0.602205 0.921038 0.225639
H2    H     H_    0.134782 0.818646 0.722247 0.176413
H3    H     H_    0.954573 0.204166 0.239337 0.135544
H4    H     H_    0.049174 0.823038 0.715506 0.168411
H5    H     H_    0.507046 0.860521 0.373540 0.171358
H6    H     H_    0.526257 0.139666 0.617596 0.168353
H7    H     H_    0.440957 0.342513 0.828264 0.257317
H8    H     H_    0.384790 0.542942 0.822920 0.192030
H9    H     H_    0.418178 0.607046 0.003782 0.156306
H10   H     H_    0.380412 0.454117 0.940818 0.141483
H11   H     H_    0.555715 0.629926 0.254823 0.309510
H12   H     H_    0.446159 0.396784 0.079143 0.210817
H13   H     H_    0.613428 0.458488 0.179613 0.187556
H14   H     H_    0.623573 0.570556 0.090222 0.166780
H15   H     H_    0.587857 0.415832 0.991483 0.151088
H16   H     H_    0.986555 0.134248 0.430914 0.264297
H17   H     H_    0.995101 0.936848 0.244851 0.145628
H18   H     H_    0.058149 0.983910 0.251134 0.168609
H19   H     H_    0.011585 0.045550 0.156130 0.141110
H20   H     H_    0.984296 0.811162 0.946031 0.255094
H21   H     H_    0.006980 0.016688 0.909852 0.146946
H22   H     H_    0.942145 0.978267 0.892860 0.145399
H23   H     H_    0.110888 0.165138 0.353923 0.174221
H24   H     H_    0.972407 0.943726 0.730950 0.169527
H25   H     H_    0.890666 0.776779 0.808386 0.171856
H26   H     H_    0.648362 0.321831 0.531392 0.138715
H27   H     H_    0.345221 0.646671 0.426133 0.147263
H28   H     H_    0.736861 0.319224 0.534355 0.160743
H29   H     H_    0.257023 0.640843 0.430697 0.164565
H30   H     H_    0.867557 0.209833 0.217548 0.172925
I1    I     I_    0.368545 0.231618 0.555526 -0.262046
I2    I     I_    0.637266 0.776324 0.476319 -0.316422
I3    I     I_    0.511780 0.017076 0.819744 -0.281731
I4    I     I_    0.464597 0.984071 0.187621 -0.268410
I5    I     I_    0.250786 0.294984 0.679630 -0.222907
I6    I     I_    0.761571 0.735752 0.404858 -0.224422
N1    N     N_R   0.202984 0.491380 0.525829 -0.386258
N2    N     N_R   0.797516 0.494526 0.498411 -0.387384
N3    N     N_2   0.478780 0.445430 0.137360 -0.326666
N4    N     N_2   0.521220 0.554570 0.862640 -0.310506
N5    N     N_2   0.445986 0.441124 0.847441 -0.451875
N6    N     N_2   0.553515 0.563161 0.149284 -0.506896
N7    N     N_2   0.018574 0.130866 0.386358 -0.524067
N8    N     N_2   0.985066 0.816259 0.844594 -0.540972
O1    O     O_R   0.504520 0.332330 0.577400 -0.502942
O2    O     O_2   0.805457 0.684822 0.714499 -0.462159
O3    O     O_2   0.788505 0.299580 0.287577 -0.475781
O4    O     O_2   0.213331 0.715575 0.680524 -0.474605
O5    O     O_R   0.495480 0.667670 0.422600 -0.531091
O6    O     O_R   0.490210 0.295500 0.332650 -0.450100
O7    O     O_R   0.509790 0.704500 0.667350 -0.449763
O8    O     O_R   0.437420 0.518430 0.622370 -0.455077
O9    O     O_R   0.562580 0.481570 0.377630 -0.495659
O10   O     O_R   0.423110 0.481600 0.377610 -0.491737
O11   O     O_R   0.576890 0.518400 0.622390 -0.493538
O12   O     O_2   0.192483 0.270138 0.361410 -0.459412

loop_
_geom_bond_atom_site_label_1
_geom_bond_atom_site_label_2
_ccdc_geom_bond_type
Cu1   O1    S    
C28   C47   A    
C23   C45   A    
C42   N5    S    
C30   N2    A    
C46   H24   S    
C47   C49   A    
H11   N6    S    
Cu2   O6    S    
C27   O12   S    
C5    C11   A    
C17   O11   A    
C11   C14   A    
C3    C33   A    
C36   I1    S    
Cu1   O7    S    
C43   N6    S    
C31   C40   A    
C44   H19   S    
C15   C50   A    
C16   O8    A    
C24   H5    S    
C20   I4    S    
C32   C41   A    
C31   C33   A    
C37   I2    S    
C44   H18   S    
C40   N1    S    
C42   H10   S    
C16   O10   A    
C13   H4    S    
C2    C34   A    
C26   N5    S    
C41   N2    S    
C4    C35   A    
Cu2   O10   S    
C25   N6    S    
C18   N7    S    
C48   H23   S    
C39   I6    S    
C29   N1    A    
C29   C50   A    
C21   I3    S    
Cu2   O5    S    
C25   N3    D    
H16   N7    S    
Cu1   Cu2   S    
C32   C35   A    
C12   O7    A    
C39   C41   A    
C42   H8    S    
C33   H27   S    
C23   C50   A    
C25   C26   S    
C30   O3    S    
C8    C18   A    
C15   H2    S    
C43   H15   S    
C5    C9    A    
C17   O9    A    
Cu1   N4    S    
C32   H28   S    
C19   C49   A    
C43   H13   S    
H1    N4    S    
C44   H17   S    
C42   H9    S    
C4    C17   S    
C8    C10   A    
C20   C22   D    
Cu2   O9    S    
C7    C19   A    
C13   C15   A    
C9    C34   A    
C22   C24   S    
C14   H30   S    
C1    O1    A    
C46   H22   S    
C11   H3    S    
C45   C48   A    
C28   O2    S    
C7    C9    A    
C1    C20   S    
C29   O4    S    
C18   C48   A    
C22   H6    S    
C5    C8    A    
C6    C7    A    
C10   C23   A    
C35   H26   S    
C31   H29   S    
C38   I5    S    
C2    C30   A    
C36   C38   A    
Cu1   O8    S    
C12   O5    A    
C37   C39   A    
C44   N7    S    
C6    C13   A    
C38   C40   A    
C27   C45   A    
C3    C36   A    
C43   H14   S    
C12   C21   S    
C49   H25   S    
C27   N1    A    
C2    C14   A    
C6    C10   A    
C19   N8    S    
H20   N8    S    
C46   N8    S    
C4    C37   A    
Cu1   O11   S    
C21   C24   D    
Cu2   N3    S    
C28   N2    A    
C34   C47   A    
H7    N5    S    
H12   N3    S    
C26   N4    D    
C1    O6    A    
C46   H21   S    
C3    C16   S    
