data_mof_unit_15241.cif
_audit_creation_date              2012-12-10T20:39:54-0500
_audit_creation_method            fapswitch 2.2
_symmetry_space_group_name_H-M    P1
_symmetry_Int_Tables_number       1
_space_group_crystal_system       triclinic
_cell_length_a                    23.420579
_cell_length_b                    10.600071
_cell_length_c                    9.90165
_cell_angle_alpha                 89.153397
_cell_angle_beta                  89.606565
_cell_angle_gamma                 90.515144
_cell_volume                      2457.7537362

loop_
_atom_site_label
_atom_site_type_symbol
_atom_type_description
_atom_site_fract_x
_atom_site_fract_y
_atom_site_fract_z
_atom_type_partial_charge
C1    C     C_R   0.500466 0.260541 0.500510 0.885455
C2    C     C_R   0.119546 0.600896 0.467539 0.509244
C3    C     C_R   0.238493 0.502969 0.376757 -0.096632
C4    C     C_R   0.389366 0.499728 0.500358 0.856459
C5    C     C_R   0.297682 0.505535 0.377432 -0.216561
C6    C     C_R   0.327090 0.498326 0.500397 -0.033530
C7    C     C_R   0.296492 0.488895 0.622623 -0.196857
C8    C     C_R   0.237186 0.486220 0.621546 -0.092807
C9    C     C_R   0.208335 0.493275 0.498628 0.309069
C10   C     C_R   0.760593 0.444062 0.387040 -0.092051
C11   C     C_R   0.701592 0.449225 0.387977 -0.277643
C12   C     C_R   0.970041 0.261369 0.543389 0.680333
C13   C     C_R   0.672818 0.498861 0.499172 -0.193324
C14   C     C_R   0.703664 0.543979 0.610209 0.570774
C15   C     C_R   0.763403 0.538149 0.610901 -0.125617
C16   C     C_R   0.500288 0.739445 0.498964 0.892564
C17   C     C_R   0.791511 0.487868 0.497162 0.148351
C18   C     C_R   0.549894 0.064681 0.536133 -0.020450
C19   C     C_R   0.500911 0.128691 0.498270 -0.024425
C20   C     C_R   0.456020 0.065575 0.434661 -0.165054
C21   C     C_R   0.456233 0.935105 0.432428 -0.180670
C22   C     C_R   0.501188 0.871281 0.494479 -0.016997
C23   C     C_R   0.029478 0.263601 0.545790 -0.232054
C24   C     C_R   0.549634 0.935933 0.536053 -0.001116
C25   C     C_3   0.584177 0.927151 0.662045 0.503732
C26   C     C_3   0.585181 0.070650 0.660940 -0.499960
C27   C     C_R   0.451856 0.467560 0.072980 0.198672
C28   C     C_R   0.610593 0.500666 0.499681 0.931567
C29   C     C_R   0.544870 0.549712 0.068376 -0.028942
C30   C     C_R   0.544865 0.547206 0.925060 -0.034459
C31   C     C_R   0.452187 0.465171 0.931153 0.129152
C32   C     C_3   0.419706 0.342086 0.932889 -0.286826
C33   C     C_3   0.418239 0.348395 0.086879 -0.537082
C34   C     C_R   0.059712 0.376248 0.519864 -0.111197
C35   C     C_R   0.880773 0.595719 0.458554 0.553074
C36   C     C_R   0.879873 0.375380 0.515096 0.626239
C37   C     C_R   0.939675 0.372746 0.514895 -0.172255
C38   C     C_R   0.969900 0.486191 0.487158 -0.087217
C39   C     C_R   0.940301 0.598410 0.457654 0.013585
C40   C     C_2   0.795511 0.584200 0.730228 1.014707
C41   C     C_2   0.593954 0.612348 0.131659 0.977934
C42   C     C_2   0.452634 0.230544 0.882841 1.027162
C43   C     C_R   0.029900 0.487839 0.489760 -0.017597
C44   C     C_R   0.059989 0.601340 0.462957 0.001769
C45   C     C_R   0.030045 0.712126 0.432688 -0.140457
C46   C     C_R   0.970688 0.710644 0.429927 -0.119822
C47   C     C_R   0.119327 0.380478 0.523000 0.549771
F1    F     F_    0.942772 0.150052 0.569816 -0.598653
F2    F     F_    0.675532 0.592964 0.717573 -0.623713
F3    F     F_    0.553195 0.877323 0.770234 -0.619716
H1    H     H_    0.678430 0.412969 0.302347 0.216101
H2    H     H_    0.374739 0.365286 0.127851 0.190925
H3    H     H_    0.442025 0.272909 0.141076 0.236705
H4    H     H_    0.052318 0.800295 0.411544 0.201608
H5    H     H_    0.948735 0.797802 0.406996 0.212672
H6    H     H_    0.215930 0.508467 0.281771 0.143278
H7    H     H_    0.320267 0.513437 0.281867 0.160364
H8    H     H_    0.318242 0.483371 0.718634 0.157322
H9    H     H_    0.213583 0.479105 0.715821 0.144139
H10   H     H_    0.782615 0.406369 0.300178 0.176529
H11   H     H_    0.797659 0.699525 0.890648 0.355517
H12   H     H_    0.420110 0.116564 0.393071 0.150246
H13   H     H_    0.679614 0.631760 0.139940 0.359507
H14   H     H_    0.452095 0.074262 0.769216 0.360802
H15   H     H_    0.420406 0.884433 0.389706 0.153090
H16   H     H_    0.626613 0.883318 0.646617 0.123925
H17   H     H_    0.562269 0.112644 0.747215 0.276032
H18   H     H_    0.628316 0.111339 0.640176 0.186200
H19   H     H_    0.051692 0.176725 0.568547 0.219770
H20   H     H_    0.580797 0.585298 0.868112 0.234399
H21   H     H_    0.376706 0.351057 0.887044 0.154144
N1    N     N_R   0.852213 0.486025 0.489281 -0.345278
N2    N     N_R   0.147635 0.491612 0.497189 -0.361151
N3    N     N_R   0.499610 0.499140 0.142800 -0.137894
N4    N     N_R   0.499610 0.499180 0.857150 -0.125265
O1    O     O_R   0.500010 0.316790 0.614690 -0.608795
O2    O     O_R   0.583850 0.500060 0.614640 -0.571202
O3    O     O_R   0.583840 0.500020 0.385300 -0.622489
O4    O     O_2   0.851404 0.701800 0.430360 -0.530112
O5    O     O_2   0.842372 0.541150 0.757529 -0.627213
O6    O     O_R   0.771908 0.676467 0.812732 -0.697985
O7    O     O_2   0.586408 0.697711 0.211061 -0.582546
O8    O     O_R   0.649335 0.580328 0.092284 -0.778631
O9    O     O_2   0.500989 0.210600 0.923399 -0.618561
O10   O     O_R   0.426750 0.147898 0.792731 -0.797402
O11   O     O_2   0.849324 0.269482 0.542746 -0.447870
O12   O     O_2   0.148923 0.274615 0.550652 -0.537873
O13   O     O_2   0.149314 0.708602 0.443274 -0.540205
O14   O     O_R   0.500000 0.316760 0.385350 -0.622470
O15   O     O_R   0.416160 0.499980 0.614700 -0.627818
O16   O     O_R   0.416150 0.499940 0.385360 -0.630122
O17   O     O_R   0.500000 0.683240 0.614650 -0.571747
O18   O     O_R   0.499990 0.683210 0.385310 -0.583300
Zn1   Zn    Zn3+2 0.500000 0.500020 0.653130 1.023834
Zn2   Zn    Zn3+2 0.500000 0.499980 0.346870 0.992896

loop_
_geom_bond_atom_site_label_1
_geom_bond_atom_site_label_2
_ccdc_geom_bond_type
C23   H19   S    
C10   H10   S    
C19   C20   A    
C18   C26   S    
C12   F1    S    
C7    C8    A    
C45   C46   A    
C27   C33   S    
C33   H2    S    
C12   C23   A    
C16   O18   A    
C29   C30   A    
C18   C24   A    
C26   H17   S    
C36   C37   A    
C8    H9    S    
C38   C39   A    
C14   F2    S    
C10   C17   A    
C41   O8    S    
O2    Zn1   S    
C18   C19   A    
C12   C37   A    
C25   F3    S    
O1    Zn1   S    
C2    C44   A    
C8    C9    A    
C46   H5    S    
C16   C22   S    
C40   O5    D    
C13   C28   S    
C2    O13   S    
C27   N3    A    
C28   O3    A    
C7    H8    S    
C4    O16   A    
C29   C41   S    
O18   Zn2   S    
C21   C22   A    
C9    N2    S    
N3    Zn2   S    
C30   H20   S    
O15   Zn1   S    
C32   H21   S    
C4    O15   A    
C33   H3    S    
C1    C19   S    
C25   H16   S    
C27   C31   A    
C42   O9    D    
C24   C25   S    
C47   N2    A    
C4    C6    S    
C29   N3    A    
C36   O11   S    
C25   C26   S    
H13   O8    S    
C47   O12   S    
O14   Zn2   S    
C35   C39   A    
C43   C44   A    
C37   C38   A    
C3    C9    A    
C3    H6    S    
C31   N4    A    
C31   C32   S    
O3    Zn2   S    
C23   C34   A    
O17   Zn1   S    
C42   O10   S    
C28   O2    A    
C2    N2    A    
C39   C46   A    
C35   N1    A    
C16   O17   A    
C22   C24   A    
H14   O10   S    
C44   C45   A    
C15   C17   A    
C1    O14   A    
C21   H15   S    
C1    O1    A    
C40   O6    S    
C34   C43   A    
C3    C5    A    
C45   H4    S    
C6    C7    A    
C5    H7    S    
C26   H18   S    
C32   C33   S    
C38   C43   A    
H11   O6    S    
C30   N4    A    
C11   C13   A    
C5    C6    A    
C41   O7    D    
C35   O4    S    
C20   H12   S    
C15   C40   S    
C11   H1    S    
C10   C11   A    
O16   Zn2   S    
C20   C21   A    
C17   N1    S    
C32   C42   S    
C14   C15   A    
C34   C47   A    
C13   C14   A    
C36   N1    A    
N4    Zn1   S    
