data_mof_unit_35930.cif
_audit_creation_date              2012-12-10T18:15:20-0500
_audit_creation_method            fapswitch 2.2
_symmetry_space_group_name_H-M    P1
_symmetry_Int_Tables_number       1
_space_group_crystal_system       triclinic
_cell_length_a                    12.616203
_cell_length_b                    13.098007
_cell_length_c                    23.214553
_cell_angle_alpha                 91.017182
_cell_angle_beta                  102.774659
_cell_angle_gamma                 82.287535
_cell_volume                      3707.05818803

loop_
_atom_site_label
_atom_site_type_symbol
_atom_type_description
_atom_site_fract_x
_atom_site_fract_y
_atom_site_fract_z
_atom_type_partial_charge
C1    C     C_R   0.438692 0.691072 0.490663 0.865883
C2    C     C_R   0.633846 0.660497 0.048448 -0.164306
C3    C     C_R   0.636628 0.658130 0.988774 -0.161166
C4    C     C_R   0.555980 0.614961 0.947665 -0.022211
C5    C     C_R   0.469953 0.576920 0.966610 -0.024902
C6    C     C_R   0.387645 0.534982 0.925612 -0.035815
C7    C     C_R   0.302293 0.497134 0.944897 -0.154925
C8    C     C_R   0.301012 0.497184 0.004699 -0.160322
C9    C     C_R   0.560995 0.605385 0.888215 0.480308
C10   C     C_R   0.394838 0.529151 0.866452 0.568644
C11   C     C_R   0.511221 0.441652 0.769058 0.445443
C12   C     C_R   0.501240 0.500593 0.610357 0.941245
C13   C     C_R   0.513951 0.426473 0.709526 0.324344
C14   C     C_R   0.501840 0.512560 0.672283 -0.213555
C15   C     C_R   0.490496 0.612464 0.694181 -0.269121
C16   C     C_R   0.486042 0.627763 0.752823 -0.166801
C17   C     C_R   0.494525 0.543190 0.790211 0.113869
C18   C     C_R   0.395641 0.603685 0.234298 0.416751
C19   C     C_R   0.397655 0.580766 0.293302 0.311627
C20   C     C_R   0.489004 0.517562 0.326750 -0.185705
C21   C     C_R   0.574088 0.473670 0.300827 -0.305370
C22   C     C_R   0.567818 0.490660 0.241282 -0.171482
C23   C     C_R   0.560975 0.308638 0.505719 0.856056
C24   C     C_R   0.478753 0.555086 0.207865 0.151954
C25   C     C_R   0.699640 0.063338 0.456024 -0.198925
C26   C     C_R   0.595967 0.199701 0.499797 -0.048108
C27   C     C_R   0.299275 0.838315 0.498204 -0.194930
C28   C     C_R   0.270137 0.943570 0.502805 -0.130522
C29   C     C_R   0.343067 0.010938 0.496241 -0.174542
C30   C     C_R   0.444788 0.973554 0.481870 0.076950
C31   C     C_R   0.465153 0.869032 0.467610 0.086786
C32   C     C_R   0.527412 0.036137 0.481637 0.082090
C33   C     C_R   0.619317 0.999501 0.457561 0.170472
C34   C     C_R   0.497936 0.502056 0.389425 0.921195
C35   C     C_R   0.628673 0.900383 0.434804 -0.282586
C36   C     C_R   0.552737 0.835466 0.440000 -0.195799
C37   C     C_R   0.522158 0.133601 0.506193 -0.272442
C38   C     C_R   0.686978 0.164221 0.476208 -0.205833
C39   C     C_R   0.398498 0.800471 0.482699 -0.111352
C40   C     C_R   0.088681 0.345275 0.417115 0.405800
C41   C     C_R   0.802014 0.625532 0.572914 0.552285
C42   C     C_R   0.912004 0.635191 0.596773 -0.467584
C43   C     C_R   0.994387 0.578798 0.573672 0.422271
C44   C     C_R   0.966057 0.519020 0.522357 -0.081543
C45   C     C_R   0.388813 0.530823 0.106646 0.576389
C46   C     C_R   0.855116 0.501663 0.504349 0.086636
C47   C     C_R   0.043555 0.470497 0.490834 -0.027287
C48   C     C_R   0.012101 0.395539 0.447590 0.048202
C49   C     C_R   0.904591 0.372824 0.434983 -0.262189
C50   C     C_R   0.827303 0.426246 0.462257 -0.163146
C51   C     C_R   0.150204 0.496656 0.498584 -0.060573
C52   C     C_R   0.195250 0.369558 0.430621 -0.104783
C53   C     C_R   0.550303 0.614274 0.128118 0.490082
C54   C     C_R   0.550898 0.618938 0.068069 -0.016823
C55   C     C_R   0.467840 0.578240 0.026919 -0.020228
C56   C     C_R   0.384447 0.536058 0.046117 -0.040099
H1    H     H_    0.696335 0.872011 0.414533 0.157676
H2    H     H_    0.769641 0.036561 0.437258 0.142659
H3    H     H_    0.316699 0.091816 0.501206 0.144785
H4    H     H_    0.193002 0.972779 0.514130 0.149617
N1    N     N_R   0.471479 0.568691 0.146140 -0.330737
N2    N     N_R   0.482484 0.560813 0.849453 -0.338180
N3    N     N_R   0.222200 0.444670 0.469780 -0.149397
N4    N     N_R   0.776960 0.554790 0.529910 -0.160808
O1    O     O_R   0.366740 0.627150 0.485570 -0.614617
O2    O     O_2   0.628288 0.653878 0.168317 -0.576640
O3    O     O_2   0.645129 0.637494 0.869528 -0.567321
O4    O     O_2   0.315866 0.490887 0.826261 -0.566035
O5    O     O_R   0.544830 0.662520 0.504870 -0.583028
O6    O     O_R   0.410930 0.482340 0.574190 -0.601990
O7    O     O_R   0.589010 0.517710 0.593490 -0.569989
O8    O     O_R   0.455170 0.337480 0.495130 -0.607192
O9    O     O_R   0.633260 0.372850 0.514430 -0.645759
O10   O     O_R   0.410990 0.482290 0.406510 -0.597641
O11   O     O_R   0.589070 0.517660 0.425810 -0.647473
O12   O     O_2   0.312726 0.485971 0.126088 -0.554596
Zn1   Zn    Zn3+2 0.381090 0.476380 0.487110 0.952285
Zn2   Zn    Zn3+2 0.618910 0.523620 0.512890 0.964638
H5    H     H_    0.698197 0.692739 0.079242 0.190471
O13   O     O_3   0.317559 0.629792 0.320271 -0.607571
C57   C     C_3   0.223151 0.579452 0.304713 0.175916
H6    H     H_    0.243224 0.495086 0.314135 0.130136
H7    H     H_    0.183606 0.591898 0.257111 0.186299
C58   C     C_3   0.141200 0.623458 0.340886 -0.808585
H8    H     H_    0.115729 0.706820 0.330631 0.257416
H9    H     H_    0.067654 0.582754 0.330294 0.192917
H10   H     H_    0.178874 0.613597 0.388744 0.271529
H11   H     H_    0.644362 0.425092 0.326513 0.168911
H12   H     H_    0.632165 0.453724 0.220916 0.171555
H13   H     H_    0.744686 0.215406 0.470673 0.149889
H14   H     H_    0.458330 0.161838 0.528922 0.157723
H15   H     H_    0.245931 0.786451 0.508648 0.161279
H16   H     H_    0.703074 0.688573 0.975152 0.191136
H17   H     H_    0.563015 0.758902 0.422018 0.177371
H18   H     H_    0.256794 0.329663 0.409407 0.160640
H19   H     H_    0.878840 0.314948 0.402903 0.174624
O14   O     O_3   0.061392 0.269542 0.376322 -0.619986
C59   C     C_3   0.026802 0.313869 0.318885 0.085095
H20   H     H_    0.005639 0.399584 0.317783 0.119808
H21   H     H_    0.950971 0.282428 0.296486 0.167258
C60   C     C_3   0.113996 0.283433 0.283364 -0.833503
H22   H     H_    0.132773 0.198202 0.282351 0.269776
H23   H     H_    0.083724 0.313345 0.237387 0.221685
H24   H     H_    0.190148 0.316283 0.303323 0.232418
H25   H     H_    0.177598 0.559591 0.525759 0.205564
O15   O     O_3   0.720278 0.672852 0.599373 -0.561059
C61   C     C_3   0.716998 0.781143 0.597560 0.106293
H26   H     H_    0.707292 0.809074 0.551471 0.152764
H27   H     H_    0.792169 0.806292 0.625593 0.128712
C62   C     C_3   0.620004 0.831828 0.621469 -0.793027
H28   H     H_    0.631187 0.810214 0.668685 0.252841
H29   H     H_    0.613705 0.916946 0.617584 0.209964
H30   H     H_    0.542736 0.806699 0.596243 0.250672
O16   O     O_3   0.100826 0.572392 0.606311 -0.622262
C63   C     C_3   0.116546 0.493678 0.649467 0.071690
H31   H     H_    0.089335 0.420602 0.629772 0.140860
H32   H     H_    0.071095 0.518841 0.684383 0.166756
C64   C     C_3   0.237538 0.470876 0.678151 -0.694458
H33   H     H_    0.268476 0.542056 0.697734 0.265817
H34   H     H_    0.250389 0.411470 0.713428 0.247862
H35   H     H_    0.283636 0.441108 0.644520 0.263877
H36   H     H_    0.934683 0.679870 0.636176 0.184644
H37   H     H_    0.746639 0.405125 0.450363 0.201228
H38   H     H_    0.237812 0.465063 0.914099 0.188807
H39   H     H_    0.235519 0.465229 0.018416 0.189208
O17   O     O_3   0.516458 0.356457 0.804544 -0.563230
C65   C     C_3   0.617501 0.342928 0.846468 0.106889
H40   H     H_    0.609441 0.386990 0.886918 0.151807
H41   H     H_    0.686557 0.367381 0.829530 0.114854
C66   C     C_3   0.647178 0.229487 0.863589 -0.786136
H42   H     H_    0.656922 0.183049 0.824146 0.253609
H43   H     H_    0.725516 0.217880 0.897261 0.205024
H44   H     H_    0.581659 0.202888 0.882266 0.264824
O18   O     O_3   0.519281 0.327697 0.687257 -0.583979
C67   C     C_3   0.629576 0.290489 0.687066 0.113457
H45   H     H_    0.685434 0.300978 0.730561 0.132499
H46   H     H_    0.657070 0.330257 0.652143 0.138998
C68   C     C_3   0.639054 0.175830 0.674058 -0.803431
H47   H     H_    0.724729 0.146184 0.671835 0.203693
H48   H     H_    0.615980 0.133492 0.709468 0.261133
H49   H     H_    0.583761 0.162043 0.631206 0.251849
H50   H     H_    0.481921 0.678601 0.665333 0.176954
H51   H     H_    0.473504 0.705483 0.769052 0.183377
O19   O     O_3   0.310100 0.670301 0.201665 -0.592648
C69   C     C_3   0.338890 0.771005 0.207547 0.106948
H52   H     H_    0.414427 0.776077 0.190923 0.154681
H53   H     H_    0.352135 0.795641 0.254516 0.167788
C70   C     C_3   0.246046 0.845091 0.171261 -0.787642
H54   H     H_    0.267632 0.924744 0.175541 0.206793
H55   H     H_    0.231806 0.823274 0.123983 0.259384
H56   H     H_    0.169642 0.842821 0.187238 0.260983

loop_
_geom_bond_atom_site_label_1
_geom_bond_atom_site_label_2
_ccdc_geom_bond_type
C67   C68   S    
C55   C56   A    
C24   N1    S    
C41   C42   A    
C35   C36   A    
C58   H10   S    
C7    H38   S    
C8    C56   A    
C65   H41   S    
O16   C63   S    
C7    C8    A    
C53   C54   A    
C60   H22   S    
C45   O12   S    
C18   C24   A    
C28   C29   A    
C57   H6    S    
C70   H55   S    
C43   O16   S    
C69   H52   S    
C5    C6    A    
C25   C38   A    
O15   C61   S    
C15   C16   A    
C52   H18   S    
C40   C48   A    
C18   C19   A    
C13   O18   S    
C23   C26   S    
C64   H33   S    
C2    H5    S    
O8    Zn1   S    
C57   H7    S    
C62   H28   S    
C53   N1    A    
C29   H3    S    
C45   C56   A    
C27   C39   A    
C16   C17   A    
C63   H32   S    
O10   Zn1   S    
C1    O1    A    
C61   H26   S    
C70   H56   S    
C44   C47   A    
C34   O11   A    
C20   C34   S    
C21   H11   S    
C60   H23   S    
C21   C22   A    
O6    Zn1   S    
C61   H27   S    
O5    Zn2   S    
C10   N2    A    
C23   O9    A    
C69   H53   S    
C44   C46   A    
C46   C50   A    
O14   C59   S    
C64   H34   S    
C28   H4    S    
O1    Zn1   S    
C41   O15   S    
C37   H14   S    
C9    N2    A    
C67   H45   S    
C16   H51   S    
C51   N3    A    
C70   H54   S    
C2    C54   A    
C40   O14   S    
C26   C38   A    
C47   C51   A    
C40   C52   A    
O9    Zn2   S    
C52   N3    A    
C1    O5    A    
C3    C4    A    
C46   N4    A    
C64   H35   S    
C66   H43   S    
C43   C44   A    
C9    O3    S    
C29   C30   A    
C17   N2    S    
C15   H50   S    
C47   C48   A    
C51   H25   S    
C63   C64   S    
C11   O17   S    
C27   H15   S    
C3    H16   S    
C32   C37   A    
C58   H8    S    
C53   O2    S    
C62   H30   S    
C6    C7    A    
C68   H48   S    
C34   O10   A    
C48   C49   A    
C12   O7    A    
C12   C14   S    
C49   C50   A    
C60   H24   S    
C59   H21   S    
C61   C62   S    
C22   C24   A    
C66   H44   S    
C25   H2    S    
C65   H40   S    
C57   C58   S    
C69   C70   S    
C42   H36   S    
N3    Zn1   S    
C67   H46   S    
C12   O6    A    
C54   C55   A    
C11   C17   A    
C31   C36   A    
N4    Zn2   S    
C23   O8    A    
C5    C55   A    
C50   H37   S    
C58   H9    S    
O13   C57   S    
C68   H49   S    
C6    C10   A    
C26   C37   A    
O18   C67   S    
C10   O4    S    
C59   C60   S    
C38   H13   S    
C35   H1    S    
O19   C69   S    
C32   C33   A    
C19   C20   A    
C18   O19   S    
C66   H42   S    
C65   C66   S    
C30   C32   A    
C11   C13   A    
C30   C31   A    
O17   C65   S    
C45   N1    A    
C33   C35   A    
C22   H12   S    
C31   C39   A    
C2    C3    A    
C49   H19   S    
C19   O13   S    
O11   Zn2   S    
C62   H29   S    
C68   H47   S    
C1    C39   S    
C36   H17   S    
C8    H39   S    
C4    C5    A    
C20   C21   A    
C59   H20   S    
C42   C43   A    
C27   C28   A    
C14   C15   A    
C41   N4    A    
C4    C9    A    
C13   C14   A    
O7    Zn2   S    
C63   H31   S    
C25   C33   A    
