data_mof_unit_5812.cif
_audit_creation_date              2012-12-11T14:29:29-0500
_audit_creation_method            fapswitch 2.2
_symmetry_space_group_name_H-M    P1
_symmetry_Int_Tables_number       1
_space_group_crystal_system       triclinic
_cell_length_a                    6.937757
_cell_length_b                    14.738404
_cell_length_c                    16.27278
_cell_angle_alpha                 90.493475
_cell_angle_beta                  90.001912
_cell_angle_gamma                 89.900792
_cell_volume                      1663.85139459

loop_
_atom_site_label
_atom_site_type_symbol
_atom_type_description
_atom_site_fract_x
_atom_site_fract_y
_atom_site_fract_z
_atom_type_partial_charge
O1    O     O_R   0.494400 0.416610 0.413880 -0.537941
O2    O     O_R   0.823920 0.406790 0.585520 -0.540348
O3    O     O_R   0.994250 0.583390 0.586120 -0.544240
C1    C     C_R   0.654995 0.386204 0.614276 0.725321
O4    O     O_R   0.824110 0.405730 0.414490 -0.498195
O5    O     O_R   0.994440 0.582310 0.413870 -0.555183
C2    C     C_R   0.655302 0.384819 0.385551 0.798456
O6    O     O_R   0.494210 0.417690 0.586130 -0.542481
O7    O     O_3   0.660810 0.557940 0.500000 -0.384759
V1    V     V_3+5 0.935650 0.489250 0.500000 1.514337
O8    O     O_R   0.324160 0.593210 0.414480 -0.543093
C3    C     C_R   0.155927 0.611775 0.384021 0.590019
O9    O     O_R   0.323970 0.594270 0.585510 -0.541818
C4    C     C_R   0.154823 0.616683 0.613497 0.674129
V2    V     V_3+5 0.435660 0.510750 0.500000 1.473839
O10   O     O_3   0.160630 0.442060 0.500000 -0.348160
H1    H     H_    0.850070 0.893388 0.516013 0.150632
C5    C     C_R   0.287707 0.573808 0.776187 -0.158781
C6    C     C_R   0.347753 0.548596 0.854151 -0.230068
C7    C     C_R   0.329907 0.608818 0.919548 -0.147117
C8    C     C_R   0.253943 0.695332 0.907737 0.584076
C9    C     C_R   0.196120 0.724580 0.828069 -0.045866
C10   C     C_R   0.211124 0.661330 0.761379 0.014211
C11   C     C_R   0.122542 0.813689 0.813833 -0.170630
C12   C     C_R   0.062140 0.838675 0.732958 -0.108264
C13   C     C_R   0.064244 0.771957 0.668662 0.045583
C14   C     C_R   0.144162 0.684620 0.682058 -0.109709
C15   C     C_R   0.997442 0.928547 0.713323 0.315109
C16   C     C_R   0.914285 0.946952 0.636853 0.437934
C17   C     C_R   0.909842 0.879456 0.576096 -0.283617
C18   C     C_R   0.988525 0.794540 0.590835 -0.190823
H2    H     H_    0.300527 0.523169 0.728019 0.124125
H3    H     H_    0.405909 0.481356 0.864093 0.147763
H4    H     H_    0.373816 0.587990 0.980401 0.155367
H5    H     H_    0.987662 0.746700 0.540099 0.138402
C19   C     C_2   0.996115 0.719531 0.290040 -0.101368
C20   C     C_2   0.151546 0.667930 0.308261 0.286239
H6    H     H_    0.870328 0.717406 0.329726 0.098758
C21   C     C_2   0.980090 0.776255 0.214796 -0.195736
C22   C     C_2   0.126231 0.826997 0.185795 0.543085
H7    H     H_    0.839891 0.779624 0.185280 0.120283
C23   C     C_2   0.775075 0.210790 0.783335 -0.167147
C24   C     C_2   0.611024 0.172615 0.811404 0.467041
H8    H     H_    0.910935 0.193857 0.812665 0.138046
C25   C     C_2   0.787494 0.272921 0.711658 -0.056177
C26   C     C_2   0.639690 0.323719 0.684316 -0.272420
H9    H     H_    0.927716 0.279281 0.682615 0.161521
H10   H     H_    0.501428 0.322535 0.715050 0.198756
C27   C     C_2   0.779302 0.217559 0.207890 0.139582
C28   C     C_2   0.615931 0.174125 0.183554 0.359387
C29   C     C_2   0.789052 0.272150 0.285907 0.589045
C30   C     C_2   0.641955 0.324111 0.313118 -0.375488
H11   H     H_    0.507825 0.326460 0.278973 0.164591
O11   O     O_R   0.770210 0.079270 0.910680 -0.551664
O12   O     O_R   0.440150 0.091160 0.082270 -0.523484
O13   O     O_R   0.269970 0.914530 0.082860 -0.492444
C31   C     C_R   0.609050 0.112710 0.110975 0.711338
O14   O     O_R   0.440480 0.090100 0.911240 -0.532373
O15   O     O_R   0.270310 0.913460 0.910610 -0.533427
C32   C     C_R   0.608695 0.110498 0.882226 0.624741
O16   O     O_R   0.769870 0.080340 0.082930 -0.532788
O17   O     O_3   0.603660 0.938980 0.996790 -0.367631
V3    V     V_3+5 0.328750 0.007610 0.996740 1.621034
O18   O     O_R   0.940600 0.902510 0.911180 -0.531384
C33   C     C_R   0.109894 0.880178 0.883166 0.848452
O19   O     O_R   0.940270 0.903570 0.082200 -0.569760
C34   C     C_R   0.109313 0.884658 0.112249 0.716130
V4    V     V_3+5 0.828770 0.986010 0.996670 1.555481
O20   O     O_3   0.103730 0.054750 0.996710 -0.369258
O21   O     O_3   0.301943 0.662412 0.252478 -0.590467
H12   H     H_    0.396143 0.616469 0.271287 0.288209
F1    F     F_    0.295331 0.832050 0.228037 -0.634476
F2    F     F_    0.440218 0.185676 0.772228 -0.688971
O22   O     O_3   0.944337 0.208254 0.160716 -0.634112
H13   H     H_    0.047101 0.247011 0.184529 0.355820
F3    F     F_    0.452780 0.179448 0.229769 -0.678871
F4    F     F_    0.959208 0.272111 0.327627 -0.645068
F5    F     F_    0.234636 0.748061 0.975867 -0.719490
O23   O     O_3   0.021075 0.001518 0.765519 -0.622755
H14   H     H_    0.160827 0.004631 0.777973 0.291460
O24   O     O_3   0.845300 0.033303 0.622283 -0.604485
H15   H     H_    0.792155 0.035655 0.565756 0.304038

loop_
_geom_bond_atom_site_label_1
_geom_bond_atom_site_label_2
_ccdc_geom_bond_type
C24   F2    S    
O19   V4    S    
C6    C7    A    
C1    O6    A    
O24   H15   S    
C21   H7    S    
O11   C32   A    
C25   C26   D    
C12   C15   A    
C13   C14   A    
O17   V3    S    
O18   V4    S    
C8    C9    A    
C15   C16   A    
C2    C30   S    
O5    C3    A    
C17   C18   A    
O11   V4    S    
O14   C32   A    
V2    O10   S    
C5    C6    A    
C3    C20   S    
C15   O23   S    
O8    V2    S    
V3    O20   S    
V4    O20   S    
C27   C29   S    
C22   C34   S    
O12   V3    S    
C8    F5    S    
O21   H12   S    
O1    V2    S    
C10   C14   A    
C4    C14   S    
O7    V1    S    
C7    H4    S    
O19   C34   A    
C13   C18   A    
C27   O22   S    
O9    C4    A    
H1    C17   S    
C23   H8    S    
C25   H9    S    
C26   H10   S    
O22   H13   S    
C5    C10   A    
C11   C12   A    
C6    H3    S    
C21   C22   D    
O4    C2    A    
C1    C26   S    
C12   C13   A    
C29   C30   D    
C23   C25   S    
O2    C1    A    
C29   F4    S    
C16   O24   S    
C16   C17   A    
C28   F3    S    
O13   V3    S    
O3    C4    A    
C24   C32   S    
C11   C33   S    
O6    V2    S    
O9    V2    S    
C18   H5    S    
C5    H2    S    
C23   C24   D    
O2    V1    S    
C30   H11   S    
O14   V3    S    
C19   C20   D    
C22   F1    S    
O1    C2    A    
C28   C31   S    
C19   C21   S    
O5    V1    S    
O8    C3    A    
C31   O16   A    
O13   C34   A    
O15   V3    S    
O17   V4    S    
O18   C33   A    
O12   C31   A    
O7    V2    S    
O4    V1    S    
O3    V1    S    
V1    O10   S    
O15   C33   A    
O16   V4    S    
C19   H6    S    
C9    C11   A    
O23   H14   S    
C7    C8    A    
C27   C28   D    
C9    C10   A    
C20   O21   S    
