data_mof_unit_60344.cif
_audit_creation_date              2012-10-26T17:53:49-0400
_audit_creation_method            fapswitch 2.2
_symmetry_space_group_name_H-M    P1
_symmetry_Int_Tables_number       1
_space_group_crystal_system       orthorhombic
_cell_length_a                    23.682229
_cell_length_b                    23.682226
_cell_length_c                    47.051184
_cell_angle_alpha                 90.0
_cell_angle_beta                  90.0
_cell_angle_gamma                 90.0
_cell_volume                      26388.5577089

loop_
_atom_site_label
_atom_site_type_symbol
_atom_type_description
_atom_site_fract_x
_atom_site_fract_y
_atom_site_fract_z
_atom_type_partial_charge
C1    C     C_R   0.000000 0.391527 0.500000 0.557053
C2    C     C_R   0.500000 1.000000 0.354456 0.157650
C3    C     C_R   0.500000 0.000000 0.764995 -0.029918
C4    C     C_R   0.500000 1.000000 0.735005 -0.029918
C5    C     C_R   0.000000 0.500000 0.735005 -0.029918
C6    C     C_R   0.500000 1.000000 0.264995 -0.029918
C7    C     C_R   0.999999 0.500000 0.264995 -0.029918
C8    C     C_R   0.927112 0.572313 0.235175 -0.126332
C9    C     C_R   0.427684 0.927115 0.235174 -0.126332
C10   C     C_R   0.072885 0.427686 0.235174 -0.126332
C11   C     C_R   0.572316 0.072884 0.235174 -0.126332
C12   C     C_R   0.927114 0.427686 0.764825 -0.126332
C13   C     C_R   0.000000 0.499999 0.645544 0.157649
C14   C     C_R   0.427683 0.072883 0.764825 -0.126332
C15   C     C_R   0.072886 0.572314 0.764825 -0.126332
C16   C     C_R   0.572317 0.927117 0.764825 -0.126332
C17   C     C_R   0.427115 0.072316 0.735174 -0.126332
C18   C     C_R   0.927681 0.427118 0.735174 -0.126332
C19   C     C_R   0.572885 0.927684 0.735174 -0.126332
C20   C     C_R   0.072319 0.572881 0.735174 -0.126332
C21   C     C_R   0.427117 0.927683 0.264825 -0.126332
C22   C     C_R   0.927679 0.572881 0.264826 -0.126332
C23   C     C_R   0.572883 0.072317 0.264825 -0.126332
C24   C     C_R   0.500000 0.000000 0.645544 0.157650
C25   C     C_R   0.072318 0.427119 0.264825 -0.126332
C26   C     C_R   0.039843 0.533138 0.369419 0.046426
C27   C     C_R   0.466864 0.039844 0.369419 0.046426
C28   C     C_R   0.960156 0.466862 0.369419 0.046426
C29   C     C_R   0.533136 0.960155 0.369419 0.046426
C30   C     C_R   0.039844 0.466862 0.630581 0.046426
C31   C     C_R   0.466864 0.960155 0.630581 0.046426
C32   C     C_R   0.960156 0.533137 0.630581 0.046426
C33   C     C_R   0.533136 0.039845 0.630581 0.046426
C34   C     C_R   0.539844 0.033136 0.869419 0.046426
C35   C     C_R   0.500000 1.000000 0.854456 0.157650
C36   C     C_R   0.966865 0.539846 0.869419 0.046426
C37   C     C_R   0.460155 0.966863 0.869419 0.046426
C38   C     C_R   0.033135 0.460154 0.869419 0.046426
C39   C     C_R   0.539845 0.966864 0.130581 0.046426
C40   C     C_R   0.966864 0.460154 0.130581 0.046426
C41   C     C_R   0.460155 0.033135 0.130581 0.046426
C42   C     C_R   0.033133 0.539846 0.130581 0.046426
C43   C     C_R   0.039592 0.532555 0.399236 0.299080
C44   C     C_R   0.467446 0.039593 0.399236 0.299080
C45   C     C_R   0.960408 0.467444 0.399236 0.299080
C46   C     C_R   0.000000 0.500000 0.854456 0.157650
C47   C     C_R   0.532554 0.960407 0.399236 0.299080
C48   C     C_R   0.039592 0.467445 0.600764 0.299079
C49   C     C_R   0.467447 0.960406 0.600764 0.299080
C50   C     C_R   0.960408 0.532555 0.600764 0.299079
C51   C     C_R   0.532553 0.039593 0.600764 0.299080
C52   C     C_R   0.539593 0.032554 0.899236 0.299081
C53   C     C_R   0.967448 0.539594 0.899236 0.299081
C54   C     C_R   0.460407 0.967446 0.899236 0.299080
C55   C     C_R   0.032553 0.460406 0.899236 0.299080
C56   C     C_R   0.539594 0.967447 0.100764 0.299080
C57   C     C_R   0.500000 1.000000 0.145544 0.157650
C58   C     C_R   0.967447 0.460406 0.100764 0.299079
C59   C     C_R   0.460406 0.032553 0.100764 0.299081
C60   C     C_R   0.032551 0.539594 0.100764 0.299080
C61   C     C_R   1.000000 0.500000 0.414140 0.013545
C62   C     C_R   0.500000 0.000000 0.414140 0.013544
C63   C     C_R   0.000000 0.500000 0.585860 0.013545
C64   C     C_R   0.500000 1.000000 0.585860 0.013544
C65   C     C_R   0.500000 0.000000 0.914140 0.013544
C66   C     C_R   0.000000 0.500000 0.914140 0.013543
C67   C     C_R   0.500000 1.000000 0.085860 0.013544
C68   C     C_R   0.999998 0.500000 0.145544 0.157650
C69   C     C_R   1.000000 0.500000 0.085860 0.013544
C70   C     C_3   0.082067 0.570307 0.354033 -0.211073
C71   C     C_3   0.141425 0.545260 0.355196 -0.393212
C72   C     C_3   0.429696 0.082070 0.354033 -0.211073
C73   C     C_3   0.454745 0.141427 0.355196 -0.393212
C74   C     C_3   0.917932 0.429693 0.354033 -0.211073
C75   C     C_3   0.858574 0.454740 0.355196 -0.393211
C76   C     C_3   0.570304 0.917930 0.354033 -0.211073
C77   C     C_3   0.545255 0.858573 0.355196 -0.393212
C78   C     C_3   0.082068 0.429694 0.645967 -0.211073
C79   C     C_1   0.000000 0.330415 0.500000 0.020487
C80   C     C_3   0.141426 0.454741 0.644804 -0.393211
C81   C     C_3   0.429698 0.917929 0.645967 -0.211073
C82   C     C_3   0.454747 0.858572 0.644804 -0.393213
C83   C     C_3   0.917931 0.570305 0.645967 -0.211073
C84   C     C_3   0.858574 0.545258 0.644804 -0.393212
C85   C     C_3   0.570302 0.082071 0.645967 -0.211073
C86   C     C_3   0.545252 0.141428 0.644804 -0.393213
C87   C     C_3   0.582070 0.070304 0.854033 -0.211072
C88   C     C_3   0.641427 0.045255 0.855196 -0.393212
C89   C     C_3   0.929700 0.582073 0.854033 -0.211073
C90   C     C_1   0.669584 1.000000 0.500000 0.020486
C91   C     C_3   0.954751 0.641428 0.855196 -0.393212
C92   C     C_3   0.417930 0.929696 0.854033 -0.211072
C93   C     C_3   0.358573 0.954744 0.855196 -0.393211
C94   C     C_3   0.070301 0.417927 0.854033 -0.211073
C95   C     C_3   0.045250 0.358571 0.855196 -0.393212
C96   C     C_3   0.582071 0.929698 0.145967 -0.211073
C97   C     C_3   0.641428 0.954748 0.144804 -0.393211
C98   C     C_3   0.929697 0.417928 0.145967 -0.211074
C99   C     C_3   0.954749 0.358572 0.144805 -0.393213
C100  C     C_3   0.417928 0.070302 0.145967 -0.211074
C101  C     C_1   1.000000 0.669584 0.500000 0.020487
C102  C     C_3   0.358572 0.045252 0.144804 -0.393212
C103  C     C_3   0.070298 0.582073 0.145967 -0.211073
C104  C     C_3   0.045247 0.641429 0.144804 -0.393213
C105  C     C_R   0.608472 1.000000 0.500000 0.557051
C106  C     C_1   0.330416 0.000000 0.500000 0.020486
C107  C     C_1   0.500000 0.830415 0.000000 0.020486
C108  C     C_1   0.169584 0.500000 0.000000 0.020484
C109  C     C_1   0.500000 0.169584 0.000000 0.020486
C110  C     C_1   0.830415 0.500000 0.000000 0.020485
C111  C     C_1   0.000000 0.279201 0.500000 -0.008943
C112  C     C_1   0.720799 1.000000 0.500000 -0.008943
C113  C     C_1   1.000000 0.720799 0.500000 -0.008943
C114  C     C_1   0.279201 0.000000 0.500000 -0.008943
C115  C     C_1   0.500000 0.779201 0.000000 -0.008943
C116  C     C_R   1.000000 0.608472 0.500000 0.557053
C117  C     C_1   0.220799 0.500000 0.000000 -0.008944
C118  C     C_1   0.500000 0.220799 0.000000 -0.008943
C119  C     C_1   0.779201 0.500000 0.000000 -0.008944
C120  C     C_1   0.000000 0.219082 0.500000 -0.015403
C121  C     C_1   0.780918 1.000000 0.500000 -0.015403
C122  C     C_1   1.000000 0.780918 0.500000 -0.015403
C123  C     C_1   0.219082 0.000000 0.500000 -0.015403
C124  C     C_1   0.500000 0.719082 0.000000 -0.015403
C125  C     C_1   0.280918 0.500000 0.000000 -0.015403
C126  C     C_1   0.500000 0.280918 0.000000 -0.015403
C127  C     C_R   0.391527 0.000000 0.500000 0.557051
C128  C     C_1   0.719082 0.500000 0.000000 -0.015403
C129  C     C_1   0.000000 0.167867 0.500000 -0.002772
C130  C     C_1   0.832133 1.000000 0.500000 -0.002771
C131  C     C_1   1.000000 0.832133 0.500000 -0.002771
C132  C     C_1   0.167867 0.000000 0.500000 -0.002772
C133  C     C_1   0.500000 0.667867 0.000000 -0.002772
C134  C     C_1   0.332133 0.500000 0.000000 -0.002771
C135  C     C_1   0.500000 0.332133 0.000000 -0.002771
C136  C     C_1   0.667867 0.500000 0.000000 -0.002772
C137  C     C_R   0.106751 1.000000 0.500000 0.541882
C138  C     C_R   0.500000 0.891527 0.000000 0.557051
C139  C     C_R   1.000000 0.106751 0.500000 0.541882
C140  C     C_R   0.893249 0.000000 0.500000 0.541882
C141  C     C_R   0.000000 0.893249 0.500000 0.541882
C142  C     C_R   0.606751 0.500000 0.000000 0.541882
C143  C     C_R   0.500000 0.606751 0.000000 0.541882
C144  C     C_R   0.393249 0.500000 0.000000 0.541882
C145  C     C_R   0.500000 0.393249 0.000000 0.541882
C146  C     C_R   0.000000 0.500000 0.445352 0.619295
C147  C     C_R   0.500000 0.000000 0.445352 0.619293
C148  C     C_R   0.000000 0.500000 0.554648 0.619294
C149  C     C_R   0.108472 0.500000 0.000000 0.557049
C150  C     C_R   0.500000 1.000000 0.554648 0.619291
C151  C     C_R   0.500000 0.000000 0.945352 0.619293
C152  C     C_R   0.000000 0.500000 0.945352 0.619290
C153  C     C_R   0.500000 0.000000 0.054648 0.619291
C154  C     C_R   1.000000 0.500000 0.054648 0.619290
C155  C     C_R   0.036545 0.465186 0.190249 0.387580
C156  C     C_R   0.534815 0.036545 0.190249 0.387580
C157  C     C_R   0.963452 0.534814 0.190249 0.387580
C158  C     C_R   0.465185 0.963454 0.190249 0.387581
C159  C     C_R   0.036546 0.534814 0.809750 0.387580
C160  C     C_R   0.500000 0.108472 0.000000 0.557051
C161  C     C_R   0.534816 0.963455 0.809751 0.387580
C162  C     C_R   0.963454 0.465185 0.809751 0.387580
C163  C     C_R   0.465184 0.036545 0.809751 0.387580
C164  C     C_R   0.536545 0.965185 0.690249 0.387580
C165  C     C_R   0.034817 0.536543 0.690249 0.387580
C166  C     C_R   0.463455 0.034815 0.690249 0.387580
C167  C     C_R   0.965183 0.463456 0.690249 0.387580
C168  C     C_R   0.536545 0.034816 0.309751 0.387580
C169  C     C_R   0.034816 0.463456 0.309751 0.387580
C170  C     C_R   0.463455 0.965184 0.309751 0.387580
C171  C     C_R   0.891527 0.500000 0.000000 0.557049
C172  C     C_R   0.965182 0.536543 0.309751 0.387580
C173  C     C_R   0.963192 0.536074 0.220047 0.025042
C174  C     C_R   0.463925 0.963195 0.220047 0.025042
C175  C     C_R   0.036804 0.463926 0.220047 0.025042
C176  C     C_R   0.536075 0.036805 0.220047 0.025042
C177  C     C_R   0.963194 0.463925 0.779953 0.025042
C178  C     C_R   0.463924 0.036804 0.779953 0.025042
C179  C     C_R   0.036806 0.536074 0.779953 0.025042
C180  C     C_R   0.536076 0.963196 0.779953 0.025042
C181  C     C_R   0.463195 0.036075 0.720047 0.025042
C182  C     C_R   0.999999 0.500000 0.354456 0.157650
C183  C     C_R   0.963923 0.463196 0.720047 0.025042
C184  C     C_R   0.536805 0.963925 0.720047 0.025042
C185  C     C_R   0.036077 0.536803 0.720047 0.025042
C186  C     C_R   0.463195 0.963924 0.279953 0.025042
C187  C     C_R   0.963922 0.536803 0.279953 0.025042
C188  C     C_R   0.536804 0.036076 0.279953 0.025042
C189  C     C_R   0.036076 0.463197 0.279953 0.025042
C190  C     C_R   0.999998 0.500000 0.235005 -0.029918
C191  C     C_R   0.500000 1.000000 0.235005 -0.029918
C192  C     C_R   0.000000 0.500000 0.764995 -0.029918
Cu1   Cu    Cu3+1 0.944110 0.500000 0.500000 1.087596
Cu2   Cu    Cu3+1 0.000000 0.000000 0.528040 0.996075
Cu3   Cu    Cu3+1 0.500000 0.500000 0.971960 0.996075
Cu4   Cu    Cu3+1 0.500000 0.500000 0.028040 0.996075
Cu5   Cu    Cu3+1 0.500000 0.944110 0.500000 1.087597
Cu6   Cu    Cu3+1 0.055890 0.500000 0.500000 1.087595
Cu7   Cu    Cu3+1 0.500000 0.055890 0.500000 1.087597
Cu8   Cu    Cu3+1 0.444110 0.000000 0.000000 1.087597
Cu9   Cu    Cu3+1 0.000000 0.444110 0.000000 1.087599
Cu10  Cu    Cu3+1 0.555890 0.000000 0.000000 1.087597
Cu11  Cu    Cu3+1 0.000000 0.555890 0.000000 1.087598
Cu12  Cu    Cu3+1 0.000000 0.000000 0.471960 0.996075
F1    F     F_    0.076763 0.565419 0.413781 -0.629213
F2    F     F_    0.934586 0.576768 0.913781 -0.629211
F3    F     F_    0.423235 0.934583 0.913781 -0.629212
F4    F     F_    0.065414 0.423232 0.913781 -0.629211
F5    F     F_    0.576766 0.934585 0.086219 -0.629212
F6    F     F_    0.934586 0.423232 0.086219 -0.629211
F7    F     F_    0.423233 0.065415 0.086219 -0.629212
F8    F     F_    0.065413 0.576768 0.086219 -0.629211
F9    F     F_    0.434584 0.076765 0.413781 -0.629212
F10   F     F_    0.923237 0.434581 0.413781 -0.629213
F11   F     F_    0.565416 0.923235 0.413781 -0.629212
F12   F     F_    0.076764 0.434582 0.586219 -0.629213
F13   F     F_    0.434585 0.923234 0.586219 -0.629212
F14   F     F_    0.923236 0.565418 0.586219 -0.629213
F15   F     F_    0.565415 0.076766 0.586219 -0.629212
F16   F     F_    0.576765 0.065417 0.913781 -0.629212
H1    H     H_    0.898507 0.600507 0.224165 0.167876
H2    H     H_    0.899485 0.398516 0.724165 0.167876
H3    H     H_    0.601488 0.899489 0.724165 0.167876
H4    H     H_    0.100515 0.601483 0.724164 0.167876
H5    H     H_    0.398514 0.899487 0.275835 0.167876
H6    H     H_    0.899483 0.601482 0.275836 0.167876
H7    H     H_    0.601486 0.100512 0.275835 0.167876
H8    H     H_    0.100515 0.398517 0.275835 0.167876
H9    H     H_    0.156135 0.541295 0.377507 0.213495
H10   H     H_    0.142093 0.503003 0.345009 0.192658
H11   H     H_    0.171129 0.573279 0.343601 0.135093
H12   H     H_    0.399489 0.898512 0.224165 0.167876
H13   H     H_    0.070465 0.576580 0.331410 0.150829
H14   H     H_    0.082367 0.612995 0.363848 0.191522
H15   H     H_    0.458710 0.156137 0.377507 0.213495
H16   H     H_    0.497002 0.142093 0.345010 0.192658
H17   H     H_    0.426727 0.171132 0.343601 0.135093
H18   H     H_    0.423423 0.070468 0.331410 0.150828
H19   H     H_    0.387007 0.082372 0.363848 0.191522
H20   H     H_    0.843864 0.458704 0.377508 0.213495
H21   H     H_    0.857906 0.496997 0.345010 0.192657
H22   H     H_    0.828869 0.426720 0.343601 0.135093
H23   H     H_    0.101489 0.399492 0.224164 0.167876
H24   H     H_    0.929534 0.423420 0.331410 0.150828
H25   H     H_    0.917632 0.387004 0.363848 0.191522
H26   H     H_    0.541290 0.843863 0.377507 0.213495
H27   H     H_    0.502998 0.857906 0.345010 0.192658
H28   H     H_    0.573273 0.828867 0.343601 0.135093
H29   H     H_    0.576577 0.929531 0.331410 0.150828
H30   H     H_    0.612993 0.917628 0.363848 0.191522
H31   H     H_    0.156136 0.458705 0.622493 0.213495
H32   H     H_    0.142094 0.496998 0.654990 0.192658
H33   H     H_    0.171131 0.426722 0.656399 0.135093
H34   H     H_    0.600511 0.101488 0.224165 0.167876
H35   H     H_    0.070466 0.423420 0.668590 0.150828
H36   H     H_    0.082369 0.387005 0.636152 0.191522
H37   H     H_    0.458712 0.843862 0.622493 0.213495
H38   H     H_    0.497005 0.857907 0.654990 0.192658
H39   H     H_    0.426730 0.828866 0.656399 0.135093
H40   H     H_    0.423424 0.929530 0.668590 0.150829
H41   H     H_    0.387009 0.917626 0.636152 0.191522
H42   H     H_    0.843863 0.541296 0.622492 0.213495
H43   H     H_    0.857906 0.503000 0.654989 0.192659
H44   H     H_    0.828869 0.573276 0.656399 0.135093
H45   H     H_    0.898510 0.399491 0.775835 0.167876
H46   H     H_    0.929533 0.576578 0.668590 0.150829
H47   H     H_    0.917631 0.612994 0.636152 0.191521
H48   H     H_    0.541288 0.156138 0.622493 0.213494
H49   H     H_    0.502995 0.142093 0.654990 0.192658
H50   H     H_    0.573270 0.171134 0.656399 0.135093
H51   H     H_    0.576576 0.070470 0.668590 0.150828
H52   H     H_    0.612991 0.082374 0.636152 0.191522
H53   H     H_    0.656137 0.041291 0.877507 0.213495
H54   H     H_    0.642094 0.002998 0.845010 0.192658
H55   H     H_    0.671132 0.073274 0.843601 0.135093
H56   H     H_    0.399487 0.101486 0.775835 0.167876
H57   H     H_    0.570468 0.076578 0.831410 0.150828
H58   H     H_    0.582371 0.112993 0.863848 0.191521
H59   H     H_    0.958716 0.656138 0.877507 0.213495
H60   H     H_    0.997008 0.642093 0.845009 0.192657
H61   H     H_    0.926733 0.671135 0.843601 0.135093
H62   H     H_    0.923425 0.570471 0.831410 0.150828
H63   H     H_    0.887011 0.582376 0.863848 0.191522
H64   H     H_    0.343863 0.958709 0.877507 0.213495
H65   H     H_    0.357906 0.997002 0.845010 0.192657
H66   H     H_    0.328868 0.926726 0.843601 0.135092
H67   H     H_    0.101490 0.600508 0.775835 0.167876
H68   H     H_    0.429532 0.923422 0.831410 0.150828
H69   H     H_    0.417629 0.887007 0.863848 0.191522
H70   H     H_    0.041283 0.343861 0.877507 0.213494
H71   H     H_    0.002993 0.357906 0.845009 0.192657
H72   H     H_    0.073267 0.328865 0.843601 0.135093
H73   H     H_    0.076575 0.429529 0.831410 0.150828
H74   H     H_    0.112990 0.417624 0.863848 0.191523
H75   H     H_    0.656138 0.958712 0.122493 0.213495
H76   H     H_    0.642094 0.997005 0.154990 0.192658
H77   H     H_    0.671134 0.926730 0.156399 0.135093
H78   H     H_    0.600513 0.898514 0.775835 0.167876
H79   H     H_    0.570470 0.923424 0.168590 0.150829
H80   H     H_    0.582374 0.887009 0.136152 0.191522
H81   H     H_    0.958720 0.343863 0.122494 0.213494
H82   H     H_    0.997004 0.357907 0.154994 0.192656
H83   H     H_    0.926729 0.328865 0.156398 0.135094
H84   H     H_    0.923421 0.429530 0.168589 0.150829
H85   H     H_    0.887009 0.417623 0.136151 0.191524
H86   H     H_    0.343862 0.041287 0.122493 0.213495
H87   H     H_    0.357907 0.002995 0.154990 0.192658
H88   H     H_    0.328866 0.073269 0.156399 0.135093
H89   H     H_    0.398512 0.100511 0.724165 0.167876
H90   H     H_    0.429530 0.076576 0.168590 0.150829
H91   H     H_    0.417626 0.112991 0.136152 0.191522
H92   H     H_    0.041282 0.656139 0.122493 0.213494
H93   H     H_    0.002989 0.642093 0.154990 0.192658
H94   H     H_    0.073263 0.671136 0.156399 0.135093
H95   H     H_    0.076572 0.570472 0.168590 0.150828
H96   H     H_    0.112987 0.582377 0.136153 0.191522
N1    N     N_R   0.999998 0.500000 0.176062 -0.399487
N2    N     N_R   0.500000 1.000000 0.176062 -0.399488
N3    N     N_R   0.000000 0.500000 0.823937 -0.399487
N4    N     N_R   0.500000 1.000000 0.823937 -0.399487
N5    N     N_R   0.500000 0.000000 0.676062 -0.399488
N6    N     N_R   0.000000 0.499999 0.676062 -0.399488
N7    N     N_R   0.500000 1.000000 0.323937 -0.399487
N8    N     N_R   0.999999 0.500000 0.323937 -0.399487
O1    O     O_R   0.952780 0.418580 0.499940 -0.499149
O2    O     O_R   0.081420 0.452780 0.999940 -0.499150
O3    O     O_R   0.547220 0.081420 0.999940 -0.499150
O4    O     O_R   0.918580 0.547220 0.999940 -0.499150
O5    O     O_R   0.452780 0.081420 0.000060 -0.499150
O6    O     O_R   0.081420 0.547220 0.000060 -0.499150
O7    O     O_R   0.547220 0.918580 0.000060 -0.499150
O8    O     O_R   0.918580 0.452780 0.000060 -0.499149
O9    O     O_R   0.952780 0.500010 0.458880 -0.467332
O10   O     O_R   0.499990 0.952780 0.458880 -0.467331
O11   O     O_R   0.047220 0.499990 0.458880 -0.467333
O12   O     O_R   0.581420 0.952780 0.499940 -0.499150
O13   O     O_R   0.500010 0.047220 0.458880 -0.467331
O14   O     O_R   0.952780 0.499990 0.541120 -0.467332
O15   O     O_R   0.499990 0.047220 0.541120 -0.467331
O16   O     O_R   0.047220 0.500010 0.541120 -0.467332
O17   O     O_R   0.500010 0.952780 0.541120 -0.467331
O18   O     O_R   0.452780 0.000010 0.958880 -0.467331
O19   O     O_R   0.999990 0.452780 0.958880 -0.467329
O20   O     O_R   0.547220 0.999990 0.958880 -0.467331
O21   O     O_R   0.000010 0.547220 0.958880 -0.467330
O22   O     O_R   0.452780 0.999990 0.041120 -0.467330
O23   O     O_R   0.047220 0.581420 0.499940 -0.499150
O24   O     O_R   0.999990 0.547220 0.041120 -0.467330
O25   O     O_R   0.547220 0.000010 0.041120 -0.467331
O26   O     O_R   0.000010 0.452780 0.041120 -0.467329
O27   O     O_2   0.072595 0.432165 0.175527 -0.507325
O28   O     O_2   0.567837 0.072595 0.175527 -0.507326
O29   O     O_2   0.927401 0.567835 0.175527 -0.507327
O30   O     O_2   0.432163 0.927405 0.175527 -0.507326
O31   O     O_2   0.072597 0.567836 0.824473 -0.507326
O32   O     O_2   0.567839 0.927407 0.824473 -0.507326
O33   O     O_2   0.927404 0.432164 0.824473 -0.507326
O34   O     O_R   0.418580 0.047220 0.499940 -0.499150
O35   O     O_2   0.432161 0.072593 0.824473 -0.507326
O36   O     O_2   0.572595 0.932163 0.675527 -0.507326
O37   O     O_2   0.067841 0.572591 0.675527 -0.507326
O38   O     O_2   0.427405 0.067837 0.675527 -0.507326
O39   O     O_2   0.932159 0.427408 0.675527 -0.507326
O40   O     O_2   0.572594 0.067839 0.324473 -0.507326
O41   O     O_2   0.067840 0.427408 0.324473 -0.507326
O42   O     O_2   0.427406 0.932161 0.324473 -0.507326
O43   O     O_2   0.932158 0.572591 0.324473 -0.507326
O44   O     O_R   0.080090 0.000000 0.475550 -0.495472
O45   O     O_R   0.952780 0.581420 0.500060 -0.499149
O46   O     O_R   0.000000 0.080090 0.475550 -0.495472
O47   O     O_R   0.919910 0.000000 0.475550 -0.495472
O48   O     O_R   0.000000 0.919910 0.475550 -0.495472
O49   O     O_R   0.080090 0.000000 0.524450 -0.495473
O50   O     O_R   0.000000 0.919910 0.524450 -0.495473
O51   O     O_R   0.919910 0.000000 0.524450 -0.495473
O52   O     O_R   0.000000 0.080090 0.524450 -0.495473
O53   O     O_R   0.580090 0.500000 0.975550 -0.495472
O54   O     O_R   0.500000 0.580090 0.975550 -0.495472
O55   O     O_R   0.419910 0.500000 0.975550 -0.495472
O56   O     O_R   0.581420 0.047220 0.500060 -0.499150
O57   O     O_R   0.500000 0.419910 0.975550 -0.495472
O58   O     O_R   0.580090 0.500000 0.024450 -0.495473
O59   O     O_R   0.500000 0.419910 0.024450 -0.495473
O60   O     O_R   0.419910 0.500000 0.024450 -0.495473
O61   O     O_R   0.500000 0.580090 0.024450 -0.495473
O62   O     O_R   0.047220 0.418580 0.500060 -0.499150
O63   O     O_R   0.418580 0.952780 0.500060 -0.499150
O64   O     O_R   0.452780 0.918580 0.999940 -0.499149

loop_
_geom_bond_atom_site_label_1
_geom_bond_atom_site_label_2
_ccdc_geom_bond_type
C36   C89   S    
C42   C68   A    
C101  C113  T    
C2    N7    S    
C86   H48   S    
C156  O28   S    
C161  O32   S    
C76   H30   S    
C54   C65   A    
C102  H87   S    
C145  O57   A    
C124  C133  T    
C161  N4    A    
C162  N3    A    
Cu12  O48   S    
C40   C98   S    
C23   C188  A    
C17   H89   S    
C104  H94   S    
C34   C35   A    
Cu2   O50   S    
C95   H70   S    
Cu5   Cu7   S    
C162  C177  A    
C36   C53   A    
C158  C174  A    
C113  C122  S    
C80   H31   S    
C15   H67   S    
C148  O14   A    
C98   H84   S    
Cu6   O23   S    
C99   H81   S    
C174  C191  A    
C74   H24   S    
C110  C171  S    
C141  O50   A    
C130  C140  S    
C84   H42   S    
C75   H20   S    
C109  C118  T    
Cu3   O57   S    
C15   C20   A    
C40   C58   A    
C10   H23   S    
C154  O24   A    
C13   C30   A    
C74   H25   S    
C116  O45   A    
C48   C63   A    
C132  C137  S    
C106  C127  S    
C49   F13   S    
C77   H27   S    
C61   C146  S    
C75   H21   S    
C100  H90   S    
Cu4   O60   S    
C39   C56   A    
C163  C178  A    
C20   H4    S    
C41   C100  S    
C142  O53   A    
C60   F8    S    
Cu10  O25   S    
C86   H50   S    
C139  O52   A    
C26   C182  A    
C160  O3    A    
Cu7   O15   S    
C2    C29   A    
C1    C79   S    
C157  N1    A    
Cu1   O9    S    
C14   C178  A    
C32   C83   S    
C145  O59   A    
C3    C178  A    
C51   C64   A    
C90   C105  S    
C72   C73   S    
C147  O10   A    
C165  O37   S    
C35   N4    S    
C140  O51   A    
Cu8   O22   S    
C138  O7    A    
C6    C186  A    
C69   C154  S    
C166  N5    A    
C87   H57   S    
C107  C138  S    
C56   F5    S    
C85   H51   S    
C93   H66   S    
C18   C183  A    
C11   C23   A    
C34   C87   S    
C148  O16   A    
Cu3   Cu4   S    
C14   H56   S    
Cu5   O17   S    
C105  O12   A    
Cu8   Cu10  S    
C98   C99   S    
C71   H11   S    
C84   H44   S    
Cu1   O45   S    
C168  N7    A    
C52   C65   A    
C105  O56   A    
Cu3   O55   S    
C81   H41   S    
C15   C179  A    
C123  C132  T    
C82   H38   S    
C97   H76   S    
C158  O30   S    
C13   C32   A    
C142  O58   A    
C169  C189  A    
C121  C130  T    
C3    C180  A    
C9    C21   A    
C42   C103  S    
C47   C62   A    
C21   C186  A    
Cu11  O4    S    
C11   C176  A    
C29   C47   A    
C78   H35   S    
C94   H73   S    
C30   C48   A    
Cu8   O64   S    
C152  O19   A    
C78   C80   S    
C16   H78   S    
C11   H34   S    
C103  H95   S    
C28   C182  A    
C73   H16   S    
C59   C67   A    
C147  O13   A    
C27   C44   A    
Cu7   O13   S    
C156  N2    A    
C6    C191  A    
C52   F16   S    
C8    C22   A    
C7    C190  A    
C36   C46   A    
C95   H71   S    
C4    C181  A    
C89   C91   S    
C143  O61   A    
C49   C64   A    
C98   H85   S    
C50   C63   A    
Cu9   Cu11  S    
C14   C17   A    
C153  O22   A    
Cu9   O8    S    
Cu11  O6    S    
C59   F7    S    
C163  O35   S    
C73   H15   S    
C38   C55   A    
C120  C129  T    
C150  O17   A    
C176  C191  A    
C51   F15   S    
C87   H58   S    
C65   C151  S    
C88   H53   S    
C66   C152  S    
C83   C84   S    
C129  C139  S    
Cu2   Cu12  S    
C137  O44   A    
C53   F2    S    
C71   H9    S    
C72   H19   S    
C57   N2    S    
C169  O41   S    
C91   H59   S    
C2    C27   A    
C114  C123  S    
Cu3   O53   S    
C10   C25   A    
C7    C187  A    
Cu4   O61   S    
C3    C4    A    
C159  N3    A    
C122  C131  T    
C171  O8    A    
C10   C175  A    
C164  N5    A    
C37   C92   S    
C108  C117  T    
C86   H49   S    
C110  C119  T    
C22   H6    S    
C102  H88   S    
C46   N3    S    
C112  C121  S    
C25   C189  A    
C119  C128  S    
C93   H65   S    
C60   C69   A    
C104  H92   S    
C5    C183  A    
C91   H61   S    
C151  O20   A    
C158  N2    A    
C170  N7    A    
C38   C46   A    
C134  C144  S    
C17   C181  A    
C80   H32   S    
C117  C125  S    
C93   H64   S    
C16   C180  A    
C125  C134  T    
Cu8   O18   S    
C87   C88   S    
C168  C188  A    
C5    C185  A    
C28   C74   S    
C150  O15   A    
C175  C190  A    
C170  O42   S    
C29   C76   S    
C24   N5    S    
C9    H12   S    
C88   H55   S    
C128  C136  T    
C141  O48   A    
Cu11  O21   S    
C172  C187  A    
Cu1   Cu6   S    
C172  O43   S    
C173  C190  A    
C77   H26   S    
C136  C142  S    
C135  C145  S    
C89   H62   S    
C47   F11   S    
C154  O26   A    
C70   C71   S    
C143  O54   A    
C157  O29   S    
C164  O36   S    
C177  C192  A    
Cu9   O2    S    
C104  H93   S    
C31   C49   A    
C76   H29   S    
C102  H86   S    
C127  O63   A    
C80   H33   S    
C44   F9    S    
Cu12  O47   S    
C182  N8    S    
Cu10  O3    S    
C139  O46   A    
Cu9   O19   S    
C155  N1    A    
C85   C86   S    
C43   C61   A    
C146  O11   A    
C151  O18   A    
C19   C184  A    
C163  N4    A    
C159  O31   S    
C168  O40   S    
C170  C186  A    
C45   F10   S    
Cu1   O14   S    
C19   H3    S    
Cu5   O10   S    
C99   H82   S    
Cu9   O26   S    
C126  C135  T    
C169  N8    A    
C26   C70   S    
C72   H18   S    
C162  O33   S    
Cu7   O56   S    
C55   C66   A    
C153  O25   A    
C85   H52   S    
C155  C175  A    
C156  C176  A    
C81   H40   S    
C115  C124  S    
C82   H39   S    
C97   H75   S    
C149  O6    A    
C83   H46   S    
C159  C179  A    
C166  O38   S    
C89   H63   S    
C58   C69   A    
C79   C111  T    
C33   C51   A    
C34   C52   A    
C24   C33   A    
C67   C153  S    
C77   H28   S    
C78   H36   S    
C165  N6    A    
C94   H74   S    
C24   C31   A    
C41   C57   A    
C75   H22   S    
Cu4   O59   S    
C16   C19   A    
C45   C61   A    
C92   C93   S    
C107  C115  T    
C94   C95   S    
C18   H2    S    
C167  N6    A    
C172  N8    A    
C40   C68   A    
C103  C104  S    
C101  C116  S    
C7    C189  A    
Cu2   O49   S    
C27   C72   S    
C157  C173  A    
C48   F12   S    
C43   F1    S    
C90   C112  T    
C149  O2    A    
C92   H68   S    
C81   C82   S    
C70   H13   S    
C55   F4    S    
C68   N1    S    
C106  C114  T    
C146  O9    A    
Cu1   O1    S    
C35   C37   A    
C70   H14   S    
C39   C57   A    
C96   H80   S    
C22   C187  A    
C88   H54   S    
C12   H45   S    
Cu5   O12   S    
C33   C85   S    
Cu10  O20   S    
C20   C185  A    
Cu7   O34   S    
C127  O34   A    
C167  C183  A    
C179  C192  A    
C92   H69   S    
C84   H43   S    
C171  O4    A    
C137  O49   A    
C155  O27   S    
Cu2   O51   S    
C152  O21   A    
C12   C177  A    
C96   H79   S    
C82   H37   S    
C167  O39   S    
C166  C181  A    
C144  O55   A    
C26   C43   A    
C58   F6    S    
C28   C45   A    
C133  C143  S    
C74   C75   S    
C76   C77   S    
C41   C59   A    
C42   C60   A    
C100  H91   S    
C8    C173  A    
C44   C62   A    
C50   F14   S    
C165  C185  A    
C103  H96   S    
C64   C150  S    
C111  C120  S    
Cu12  O46   S    
C73   H17   S    
C164  C184  A    
Cu6   O16   S    
C97   H77   S    
C140  O47   A    
C96   C97   S    
C38   C94   S    
C100  C102  S    
C9    C174  A    
Cu2   O52   S    
C95   H72   S    
C4    C184  A    
C161  C180  A    
C53   C66   A    
C32   C50   A    
C37   C54   A    
C6    C188  A    
C1    O62   A    
C62   C147  S    
C138  O64   A    
Cu10  O7    S    
C63   C148  S    
C99   H83   S    
C160  O5    A    
C5    C192  A    
C131  C141  S    
C23   H7    S    
C56   C67   A    
C21   H5    S    
C25   H8    S    
C31   C81   S    
Cu5   O63   S    
Cu12  O44   S    
C83   H47   S    
C144  O60   A    
Cu11  O24   S    
C71   H10   S    
C13   N6    S    
C91   H60   S    
C39   C96   S    
C108  C149  S    
C30   C78   S    
Cu3   O54   S    
Cu4   O58   S    
Cu6   O62   S    
C54   F3    S    
C12   C18   A    
C118  C126  S    
Cu6   O11   S    
C109  C160  S    
C1    O1    A    
C8    H1    S    
Cu8   O5    S    
C116  O23   A    
