data_mof_unit_50065.cif
_audit_creation_date              2013-03-05T16:06:48-0500
_audit_creation_method            fapswitch 2.2
_symmetry_space_group_name_H-M    P1
_symmetry_Int_Tables_number       1
_space_group_crystal_system       triclinic
_cell_length_a                    6.951526
_cell_length_b                    14.532456
_cell_length_c                    16.196483
_cell_angle_alpha                 90.496387
_cell_angle_beta                  90.036921
_cell_angle_gamma                 89.966051
_cell_volume                      1636.15115739

loop_
_atom_site_label
_atom_site_type_symbol
_atom_site_description
_atom_site_fract_x
_atom_site_fract_y
_atom_site_fract_z
_atom_type_partial_charge
O1    O     O_R   0.505830 0.583360 0.413880 -0.597521
O2    O     O_R   0.175830 0.595460 0.585520 -0.594368
O3    O     O_R   0.005520 0.416640 0.586120 -0.549245
C1    C     C_R   0.344605 0.617248 0.614569 0.979751
O4    O     O_R   0.176120 0.594390 0.414490 -0.602404
O5    O     O_R   0.005810 0.415570 0.413870 -0.594786
C2    C     C_R   0.344863 0.616127 0.385775 0.931796
O6    O     O_R   0.505540 0.584430 0.586130 -0.593138
O7    O     O_3   0.339200 0.441330 0.500000 -0.263590
V1    V     V_3+5 0.064350 0.510880 0.500000 1.179450
O8    O     O_R   0.676100 0.404540 0.414480 -0.596298
C3    C     C_R   0.845236 0.382184 0.386089 0.941843
O9    O     O_R   0.675810 0.405610 0.585510 -0.590108
C4    C     C_R   0.844891 0.386701 0.615919 0.873021
V2    V     V_3+5 0.564340 0.489120 0.500000 1.176669
O10   O     O_3   0.839360 0.558670 0.500000 -0.288757
C5    C     C_2   0.723086 0.211129 0.787274 0.015128
C6    C     C_2   0.886438 0.174348 0.817430 -0.405810
H1    H     H_    0.585616 0.191803 0.813798 0.156530
H2    H     H_    0.023069 0.188104 0.787734 0.180421
C7    C     C_2   0.718182 0.272057 0.713716 -0.247267
C8    C     C_2   0.858985 0.331790 0.692555 0.075939
H3    H     H_    0.590826 0.266723 0.675069 0.153439
C9    C     C_R   0.738111 0.253117 0.186440 0.126723
C10   C     C_R   0.883747 0.186480 0.182670 -0.243072
C11   C     C_R   0.031343 0.192933 0.242320 -0.109312
H4    H     H_    0.150777 0.145185 0.240697 0.109062
C12   C     C_R   0.019444 0.257010 0.308146 -0.171648
H5    H     H_    0.130891 0.257257 0.354826 0.125995
C13   C     C_R   0.858889 0.315814 0.316523 -0.208504
C14   C     C_R   0.724924 0.315005 0.252099 0.158495
C15   C     C_3   0.510540 0.313327 0.252250 -0.600098
C16   C     C_3   0.524312 0.246807 0.178845 0.171060
H6    H     H_    0.447365 0.381565 0.237567 0.233515
H7    H     H_    0.452879 0.280685 0.308804 0.175616
H8    H     H_    0.466734 0.176831 0.190831 0.062880
C17   C     C_R   0.499758 0.677261 0.744990 0.202182
C18   C     C_R   0.352451 0.681848 0.685998 -0.218773
C19   C     C_R   0.204641 0.746441 0.700636 -0.178656
H9    H     H_    0.084926 0.751439 0.658229 0.121088
C20   C     C_R   0.216529 0.809713 0.767083 -0.072693
H10   H     H_    0.105516 0.861504 0.773525 0.111574
C21   C     C_R   0.375668 0.809831 0.821398 -0.252679
C22   C     C_R   0.510235 0.738908 0.811198 0.116813
C23   C     C_3   0.724758 0.740817 0.807919 0.165447
C24   C     C_3   0.713061 0.673459 0.735165 -0.586349
H11   H     H_    0.783485 0.809551 0.792046 0.055209
H12   H     H_    0.771901 0.603810 0.747747 0.247847
H13   H     H_    0.760267 0.703810 0.675823 0.168638
C25   C     C_R   0.506228 0.680185 0.259301 0.195501
C26   C     C_R   0.352759 0.680982 0.315446 -0.233356
C27   C     C_R   0.201787 0.743345 0.300264 -0.157644
H14   H     H_    0.079643 0.746334 0.341410 0.134338
C28   C     C_R   0.213261 0.807114 0.235283 -0.150224
H15   H     H_    0.099001 0.856964 0.228262 0.125515
C29   C     C_R   0.376336 0.810746 0.183589 -0.233591
C30   C     C_R   0.517980 0.743491 0.195238 0.227842
C31   C     C_3   0.729626 0.754270 0.205980 -0.467111
C32   C     C_3   0.716951 0.684896 0.275455 -0.478214
H16   H     H_    0.768542 0.824613 0.227576 0.173581
H17   H     H_    0.811473 0.728438 0.151578 0.236213
H18   H     H_    0.749368 0.714731 0.337325 0.186854
H19   H     H_    0.790664 0.618778 0.261050 0.210929
O11   O     O_R   0.229930 0.912420 0.917160 -0.574752
O12   O     O_R   0.559420 0.902500 0.088780 -0.598204
O13   O     O_R   0.729660 0.081330 0.089380 -0.612491
C33   C     C_R   0.390382 0.880626 0.117426 0.943021
O14   O     O_R   0.559650 0.901420 0.917750 -0.603660
O15   O     O_R   0.729880 0.080250 0.917130 -0.603992
C34   C     C_R   0.390485 0.879341 0.888882 0.955796
O16   O     O_R   0.229700 0.913500 0.089410 -0.595720
O17   O     O_3   0.396250 0.055540 0.003280 -0.247744
V3    V     V_3+5 0.671130 0.986010 0.003260 1.200711
O18   O     O_R   0.059600 0.091310 0.917720 -0.583356
C35   C     C_R   0.891007 0.111606 0.888502 1.013401
O19   O     O_R   0.059370 0.092380 0.088750 -0.566702
C36   C     C_R   0.890624 0.115227 0.116813 0.956778
V4    V     V_3+5 0.171120 0.007820 0.003230 1.233153
O20   O     O_3   0.896130 0.938240 0.003240 -0.254747
N1    N     N_R   0.811630 0.700604 0.881650 0.268427
O21   O     O_R   0.946874 0.744814 0.920732 -0.371048
O22   O     O_R   0.751423 0.622306 0.910352 -0.321096
N2    N     N_R   0.016437 0.351258 0.747931 0.246432
O23   O     O_R   0.192065 0.355006 0.720333 -0.397502
O24   O     O_R   0.982054 0.375180 0.824148 -0.301659
N3    N     N_R   0.454315 0.287275 0.101983 0.265823
O25   O     O_R   0.319456 0.246177 0.060078 -0.342344
O26   O     O_R   0.522528 0.365109 0.075585 -0.330215

loop_
_geom_bond_atom_site_label_1
_geom_bond_atom_site_label_2
_geom_bond_distance
_ccdc_geom_bond_type
C6    C35   1.474975 S    
C20   H10   1.082108 S    
C1    O6    1.299014 A    
C19   C20   1.411859 A    
C23   C24   1.527533 S    
C27   H14   1.080335 S    
C24   H13   1.110826 S    
C11   H4    1.081906 S    
C10   C36   1.480925 S    
C25   C32   1.489372 S    
C12   H5    1.082143 S    
O19   V4    2.000727 S    
O5    C3    1.296168 A    
C13   C14   1.398102 A    
N3    O26   1.302444 A    
C31   H16   1.111099 S    
V2    O10   2.163072 S    
C16   H8    1.111769 S    
O12   V3    2.006507 S    
C29   C30   1.400793 A    
O17   V4    1.712138 S    
O8    V2    2.000930 S    
N2    O23   1.301739 A    
O12   C33   1.304154 A    
O15   V3    2.005734 S    
O1    V2    2.004584 S    
O11   C34   1.297212 A    
O7    V1    2.160970 S    
C33   O16   1.297793 A    
O14   V3    2.000026 S    
C31   H17   1.111621 S    
C7    C8    1.354861 D    
C16   N3    1.464226 S    
C20   C21   1.412952 A    
C27   C28   1.410650 A    
C5    C6    1.347887 D    
C24   H12   1.111885 S    
C23   H11   1.111557 S    
C28   C29   1.411014 A    
O18   C35   1.298378 A    
C26   C27   1.409131 A    
C15   H7    1.110365 S    
C9    C10   1.401554 A    
N1    O22   1.302299 A    
C19   H9    1.081508 S    
O4    C2    1.302211 A    
N3    O25   1.299635 A    
N1    O21   1.300093 A    
C31   C32   1.519949 S    
O13   V3    1.999112 S    
C5    C7    1.490885 S    
C15   H6    1.111868 S    
O2    C1    1.302029 A    
C21   C22   1.400285 A    
C17   C18   1.402027 A    
C14   C15   1.490515 S    
C25   C26   1.402236 A    
V3    O20   1.710858 S    
O19   C36   1.300176 A    
O3    C4    1.293822 A    
N2    O24   1.301814 A    
C1    C18   1.484551 S    
C21   C34   1.485427 S    
O9    V2    2.004502 S    
C32   H19   1.111730 S    
O2    V1    2.000046 S    
C22   C23   1.492520 S    
O13   C36   1.299362 A    
C28   H15   1.081319 S    
C32   H18   1.111414 S    
C3    C13   1.479865 S    
O1    C2    1.299433 A    
C25   C30   1.395136 A    
O11   V4    1.999784 S    
O17   V3    2.161016 S    
O5    V1    1.999140 S    
O8    C3    1.302714 A    
O6    V2    1.999539 S    
C29   C33   1.486013 S    
C11   C12   1.411903 A    
C9    C16   1.494031 S    
C15   C16   1.528830 S    
C4    C8    1.484577 S    
C17   C22   1.393249 A    
C7    H3    1.086335 S    
C10   C11   1.411437 A    
C9    C14   1.389855 A    
C2    C26   1.485794 S    
O4    V1    2.006556 S    
O3    V1    2.005733 S    
V1    O10   1.710913 S    
C8    N2    1.441234 S    
V4    O20   2.163092 S    
C30   C31   1.489594 S    
C18   C19   1.410125 A    
C12   C13   1.411186 A    
C5    H1    1.086089 S    
O15   C35   1.296978 A    
C23   N1    1.463906 S    
C6    H2    1.084375 S    
O7    V2    1.712619 S    
O14   C34   1.304443 A    
O18   V4    2.004459 S    
C17   C24   1.492335 S    
O9    C4    1.304147 A    
O16   V4    2.006166 S    
