data_mof_unit_24901.cif
_audit_creation_date              2013-03-05T16:00:38-0500
_audit_creation_method            fapswitch 2.2
_symmetry_space_group_name_H-M    P1
_symmetry_Int_Tables_number       1
_space_group_crystal_system       triclinic
_cell_length_a                    8.323662
_cell_length_b                    12.797721
_cell_length_c                    19.197202
_cell_angle_alpha                 100.428034
_cell_angle_beta                  92.222266
_cell_angle_gamma                 98.022084
_cell_volume                      1987.19365

loop_
_atom_site_label
_atom_site_type_symbol
_atom_site_description
_atom_site_fract_x
_atom_site_fract_y
_atom_site_fract_z
_atom_type_partial_charge
P1    P     P_3+3 0.042930 0.392230 0.337410 0.546171
O1    O     O_2   0.875110 0.423180 0.326290 -0.354570
O2    O     O_3   0.123410 0.433040 0.414950 -0.362781
O3    O     O_3   0.661010 0.625070 0.369680 -0.251537
O4    O     O_2   0.744155 0.543894 0.241478 -0.334111
O5    O     O_3   0.987837 0.253121 0.317588 -0.527199
O6    O     O_3   0.672171 0.739809 0.252664 -0.496382
H1    H     H_    0.776653 0.852780 0.338211 0.047621
C1    C     C_3   0.603533 0.919958 0.278679 -0.204520
H2    H     H_    0.636966 0.995489 0.318006 0.076534
P2    P     P_3+3 0.672230 0.754900 0.555730 0.502377
P3    P     P_3+3 0.124965 0.822634 0.408414 0.517413
O7    O     O_2   0.847800 0.768730 0.534310 -0.360303
O8    O     O_3   0.082250 0.684470 0.405440 -0.286680
O9    O     O_2   0.987781 0.872628 0.448038 -0.419000
O10   O     O_3   0.708174 0.801776 0.647357 -0.582897
O11   O     O_3   0.092075 0.843131 0.321050 -0.593159
C2    C     C_3   0.147002 0.761536 0.271954 0.860758
H3    H     H_    0.270142 0.749006 0.289800 0.017805
C3    C     C_3   0.156449 0.794702 0.198136 0.618551
H4    H     H_    0.132807 0.878617 0.202121 0.129447
C4    C     C_3   0.232859 0.792984 0.629347 0.346818
H5    H     H_    0.359623 0.778182 0.621983 0.039411
H6    H     H_    0.153194 0.760541 0.580217 0.115236
C5    C     C_3   0.231036 0.913268 0.646927 -0.793302
H7    H     H_    0.308296 0.948175 0.696069 0.265059
H8    H     H_    0.278312 0.951991 0.603156 0.189265
H9    H     H_    0.104840 0.929376 0.655187 0.299595
Ba1   Ba    Ba6+2 0.853180 0.547790 0.465300 1.701274
C6    C     C_3   0.992787 0.206737 0.377890 0.170755
H10   H     H_    0.875279 0.209440 0.402619 0.033906
H11   H     H_    0.090543 0.247859 0.417541 0.139919
C7    C     C_3   0.018489 0.089823 0.355153 -0.011893
H12   H     H_    0.901028 0.039919 0.336489 0.091131
H13   H     H_    0.064517 0.060576 0.401902 0.100819
C8    C     C_3   0.690322 0.721024 0.687904 0.040447
H14   H     H_    0.807172 0.689600 0.691787 0.115889
H15   H     H_    0.593414 0.653936 0.665337 0.126494
C9    C     C_3   0.646609 0.774030 0.761842 0.357471
H16   H     H_    0.527797 0.802938 0.754818 0.071743
P4    P     P_3+3 0.146790 0.607860 0.662600 0.507686
O12   O     O_2   0.314600 0.576860 0.673750 -0.380847
O13   O     O_3   0.066300 0.567050 0.585060 -0.410367
O14   O     O_3   0.528700 0.375020 0.630330 -0.370932
O15   O     O_3   0.176149 0.748002 0.686309 -0.501012
P5    P     P_3+3 0.068503 0.176000 0.591386 0.457131
O16   O     O_3   0.611760 0.365720 0.463870 -0.339913
O17   O     O_3   0.107460 0.315620 0.594570 -0.376990
O18   O     O_2   0.188071 0.124024 0.541662 -0.409206
O19   O     O_3   0.127236 0.147050 0.673326 -0.514507
Ba2   Ba    Ba6+2 0.336650 0.452300 0.534710 1.629209
P6    P     P_3+3 0.623239 0.614420 0.277547 0.656198
C10   C     C_3   0.656993 0.825831 0.308453 0.971473
H17   H     H_    0.469538 0.908116 0.271279 0.200266
O20   O     O_3   0.577950 0.634370 0.536140 -0.352379
C11   C     C_3   0.487215 0.257999 0.313318 0.248209
H18   H     H_    0.363735 0.279489 0.321807 0.110775
H19   H     H_    0.583310 0.328715 0.328231 0.137787
C12   C     C_3   0.497500 0.215639 0.234547 0.300703
H20   H     H_    0.416559 0.137895 0.217444 0.194945
H21   H     H_    0.624334 0.203527 0.223500 0.111613
P7    P     P_3+3 0.522275 0.229321 0.443164 0.467339
O21   O     O_2   0.341900 0.231310 0.465740 -0.376064
O22   O     O_3   0.513689 0.178241 0.351690 -0.600654
C13   C     C_3   0.075189 0.220424 0.728194 0.135952
H22   H     H_    0.166751 0.294117 0.741395 0.089871
H23   H     H_    0.955820 0.243749 0.713927 -0.008071
C14   C     C_3   0.052443 0.167603 0.793001 0.934632
H24   H     H_    0.003056 0.222850 0.834652 -0.178949
P8    P     P_3+3 0.560024 0.394011 0.720523 0.446655
C15   C     C_3   0.543771 0.188597 0.700848 0.357585
H25   H     H_    0.653584 0.214566 0.673276 0.035721
O23   O     O_2   0.453768 0.478239 0.750374 -0.396462
O24   O     O_3   0.482198 0.272962 0.744850 -0.493961
H26   H     H_    0.447870 0.146187 0.659659 0.142486
H27   H     H_    0.687712 0.152364 0.786421 0.268884
C16   C     C_3   0.592269 0.110095 0.745288 -0.795107
H28   H     H_    0.639063 0.042891 0.710927 0.240085
H29   H     H_    0.487466 0.077072 0.772183 0.295705
C17   C     C_R   0.087641 0.529025 0.797832 -0.188907
H30   H     H_    0.203665 0.575585 0.817408 0.195214
C18   C     C_R   0.029234 0.535906 0.727288 0.328612
C19   C     C_R   0.832099 0.427149 0.814937 -0.277819
H31   H     H_    0.742604 0.392320 0.845002 0.132832
C20   C     C_R   0.773385 0.438952 0.748450 0.268750
C21   C     C_R   0.345618 0.553858 0.177969 -0.272203
H32   H     H_    0.409042 0.607955 0.147580 0.226661
C22   C     C_R   0.412087 0.554010 0.246175 0.148713
C23   C     C_R   0.124216 0.419467 0.195995 -0.183830
H33   H     H_    0.026876 0.353970 0.177792 0.153985
C24   C     C_R   0.167932 0.444854 0.269589 0.213413
C25   C     C_R   0.993862 0.464432 0.841874 0.054031
C26   C     C_R   0.873007 0.486850 0.703631 -0.450336
H34   H     H_    0.824509 0.491962 0.651412 0.150933
C27   C     C_R   0.206269 0.479253 0.148074 0.107368
C28   C     C_R   0.316547 0.506930 0.292588 0.036160
C29   C     C_R   0.816338 0.315799 0.944042 -0.178621
C30   C     C_R   0.705902 0.285450 0.992047 -0.000229
C31   C     C_R   0.723998 0.339124 0.062074 -0.166312
C32   C     C_R   0.861382 0.414508 0.085360 -0.172687
C33   C     C_R   0.989140 0.428772 0.040533 0.128355
C34   C     C_R   0.949153 0.399163 0.965556 0.065059
C35   C     C_R   0.154089 0.462675 0.067897 0.024815
C36   C     C_R   0.270989 0.471646 0.015614 0.129781
C37   C     C_R   0.220028 0.465009 0.942120 0.071176
C38   C     C_R   0.053873 0.442741 0.916604 -0.023542
C39   C     C_R   0.440188 0.482160 0.033194 -0.160740
C40   C     C_R   0.553219 0.506933 0.985298 -0.073145
C41   C     C_R   0.502271 0.497990 0.915159 0.051767
C42   C     C_R   0.339628 0.465925 0.893518 -0.078021
H35   H     H_    0.799483 0.268888 0.891277 0.146060
H36   H     H_    0.603459 0.222913 0.974292 0.189454
H37   H     H_    0.633042 0.321294 0.098522 0.212726
H38   H     H_    0.869704 0.457755 0.139066 0.202563
H39   H     H_    0.489246 0.468905 0.082847 0.148731
H40   H     H_    0.681475 0.525355 0.001396 0.171344
H41   H     H_    0.589349 0.511245 0.877072 0.179925
H42   H     H_    0.306177 0.434148 0.838844 0.160222
C43   C     C_R   0.765648 0.182280 0.528435 -0.522047
C44   C     C_R   0.411949 0.820187 0.490047 -0.314270
C45   C     C_R   0.396686 0.987490 0.453449 -0.175763
C46   C     C_R   0.326563 0.882517 0.454451 0.242570
C47   C     C_R   0.572732 0.853872 0.516625 0.292460
C48   C     C_R   0.642092 0.963287 0.520021 -0.082578
C49   C     C_R   0.550877 0.030950 0.488208 -0.073142
C50   C     C_R   0.616040 0.140469 0.492304 0.261974
C51   C     C_R   0.859103 0.116796 0.557011 0.222244
C52   C     C_R   0.797142 0.008144 0.554296 -0.178988
H43   H     H_    0.326911 0.035373 0.427825 0.206208
H44   H     H_    0.870953 0.960671 0.579170 0.191999
H45   H     H_    0.814754 0.265746 0.530325 0.168324
H46   H     H_    0.350650 0.744862 0.499131 0.152862
N1    N     N_R   0.129944 0.077089 0.297976 0.273091
O25   O     O_R   0.257841 0.031827 0.305475 -0.457571
O26   O     O_R   0.091038 0.096721 0.235802 -0.304010
N2    N     N_R   0.768069 0.866199 0.793059 0.290941
O27   O     O_R   0.922144 0.857806 0.792522 -0.244339
O28   O     O_R   0.722110 0.945763 0.836020 -0.294088
N3    N     N_R   0.630114 0.698537 0.810267 0.223001
O29   O     O_R   0.497840 0.687377 0.843760 -0.371627
O30   O     O_R   0.758153 0.663210 0.832491 -0.396208
F1    F     F_    0.543759 0.798511 0.355176 -0.764454
F2    F     F_    0.450383 0.288905 0.196060 -0.727332
N4    N     N_R   0.673735 0.931336 0.211413 0.291467
O31   O     O_R   0.829722 0.938356 0.206029 -0.325823
O32   O     O_R   0.580787 0.937892 0.156811 -0.245726
F3    F     F_    0.311477 0.791153 0.175346 -0.691877
N5    N     N_R   0.204668 0.142872 0.821671 0.231114
O33   O     O_R   0.218263 0.044098 0.825875 -0.285402
O34   O     O_R   0.310911 0.220097 0.857262 -0.446582
F4    F     F_    0.942248 0.074443 0.773883 -0.651667
F5    F     F_    0.043186 0.665785 0.267007 -0.669745
N6    N     N_R   0.367122 0.528687 0.365295 0.243840
O35   O     O_R   0.361162 0.622624 0.401672 -0.373354
O36   O     O_R   0.442959 0.462853 0.392541 -0.376021
N7    N     N_R   0.039933 0.726061 0.144102 0.251280
O37   O     O_R   0.088409 0.687821 0.082308 -0.324236
O38   O     O_R   0.884856 0.720349 0.151834 -0.297858

loop_
_geom_bond_atom_site_label_1
_geom_bond_atom_site_label_2
_geom_bond_distance
_ccdc_geom_bond_type
C6    H11   1.098129 S    
C37   C42   1.390842 A    
C22   C28   1.380158 A    
C23   C27   1.433833 A    
C26   H34   1.082543 S    
N3    O30   1.300503 A    
P4    O12   1.521994 D    
C42   H42   1.065719 S    
O16   P7    1.767161 S    
C29   C30   1.393104 A    
C41   H41   1.067893 S    
C47   C48   1.427129 A    
C16   H28   1.111113 S    
C40   C41   1.375603 A    
C5    H9    1.110195 S    
C19   C25   1.409037 A    
P5    O18   1.540378 D    
C33   C34   1.433982 A    
O3    P6    1.761625 S    
O1    Ba1   2.876870 S    
O7    Ba1   2.904466 S    
N7    O37   1.300633 A    
N5    O34   1.300142 A    
O6    P6    1.754784 S    
C2    H3    1.110037 S    
C6    H10   1.105777 S    
C29   H35   1.073065 S    
C21   C22   1.401136 A    
C11   H18   1.110954 S    
P1    O1    1.521720 D    
O2    Ba1   2.954144 S    
P7    O22   1.754367 S    
C24   C28   1.382988 A    
C20   C26   1.381320 A    
O17   Ba2   2.825920 S    
C28   N6    1.408535 S    
C27   C35   1.551439 S    
C14   H24   1.100081 S    
C13   H23   1.114729 S    
C4    C5    1.517442 S    
P3    O11   1.760747 S    
P8    O24   1.744389 S    
C43   H45   1.082758 S    
C39   C40   1.385810 A    
C11   O22   1.398373 S    
O4    P6    1.545444 D    
O14   P8    1.708789 S    
C23   C24   1.412419 A    
C1    H2    1.107356 S    
C2    C3    1.552925 S    
O3    Ba1   2.788785 S    
C14   N5    1.459275 S    
C44   C47   1.394138 A    
O12   Ba2   2.877270 S    
C48   C52   1.420813 A    
C12   F2    1.381960 S    
C12   H20   1.108649 S    
C33   C35   1.429884 A    
C18   C26   1.383662 A    
Ba1   O13   2.801752 S    
P4    O13   1.575111 S    
C2    F5    1.383215 S    
C36   C37   1.441501 A    
C1    N4    1.460485 S    
C44   C46   1.387910 A    
C7    H12   1.099034 S    
C9    N3    1.454126 S    
C9    N2    1.461803 S    
C16   H29   1.103270 S    
P5    O17   1.760340 S    
C12   H21   1.111168 S    
C30   H36   1.082605 S    
P1    O5    1.742937 S    
P5    C51   1.846275 S    
P6    C22   1.849197 S    
Ba2   O21   2.904642 S    
H27   C16   1.106371 S    
P3    C46   1.861467 S    
N4    O32   1.300545 A    
C45   H43   1.068221 S    
C9    H16   1.114860 S    
P7    C50   1.836020 S    
O2    Ba2   2.802340 S    
C21   H32   1.080013 S    
N4    O31   1.298367 A    
O16   Ba2   2.953828 S    
Ba1   O20   2.954670 S    
C5    H7    1.106035 S    
P1    O2    1.575086 S    
C17   C25   1.459993 A    
C45   C49   1.414852 A    
P7    O21   1.581061 D    
P2    O10   1.752294 S    
C31   C32   1.390887 A    
P3    O9    1.544973 D    
C10   F1    1.379205 S    
C13   C14   1.525660 S    
P8    O23   1.534384 D    
P1    Ba1   3.448846 S    
O11   C2    1.413565 S    
C3    F3    1.382592 S    
C32   H38   1.072980 S    
N5    O33   1.301285 A    
C39   H39   1.073210 S    
C45   C46   1.391829 A    
O14   Ba2   2.788186 S    
C17   C18   1.442967 A    
C19   C20   1.390247 A    
Ba1   O16   2.851983 S    
C13   H22   1.110141 S    
C49   C50   1.417556 A    
C4    H6    1.111108 S    
C19   H31   1.058534 S    
N6    O36   1.290057 A    
O6    C10   1.413309 S    
O8    Ba1   2.825314 S    
C51   C52   1.404894 A    
C15   C16   1.515540 S    
P2    O20   1.601833 S    
N2    O28   1.300972 A    
Ba1   Ba2   4.583630 S    
C25   C38   1.584897 S    
C8    H14   1.108007 S    
C3    N7    1.463759 S    
C6    C7    1.528120 S    
O5    C6    1.395025 S    
C44   H46   1.072609 S    
C8    C9    1.538716 S    
P2    C47   1.855409 S    
C29   C34   1.416628 A    
P3    O8    1.744296 S    
C17   H30   1.076623 S    
C52   H44   1.077520 S    
H1    C10   1.107250 S    
C31   H37   1.079573 S    
C15   O24   1.414137 S    
N3    O29   1.300106 A    
C5    H8    1.108363 S    
C37   C38   1.421556 A    
P5    O19   1.747151 S    
C11   C12   1.521240 S    
C40   H40   1.081003 S    
N7    O38   1.298466 A    
N6    O35   1.284834 A    
C15   H25   1.114671 S    
C14   F4    1.381194 S    
C41   C42   1.383238 A    
O10   C8    1.397589 S    
C15   H26   1.109850 S    
P2    O7    1.528666 D    
O13   Ba2   2.954985 S    
N1    O25   1.296134 A    
P4    C18   1.898496 S    
C8    H15   1.104728 S    
C32   C33   1.406549 A    
C7    H13   1.107824 S    
C11   H19   1.107773 S    
C34   C38   1.439272 A    
Ba2   O20   2.851393 S    
O19   C13   1.403477 S    
C21   C27   1.423802 A    
C43   C50   1.389537 A    
C7    N1    1.465748 S    
C4    O15   1.393566 S    
C1    C10   1.534578 S    
C3    H4    1.108276 S    
P2    Ba1   3.458167 S    
P1    C24   1.859615 S    
C30   C31   1.386685 A    
C35   C36   1.433037 A    
N1    O26   1.301494 A    
P4    O15   1.748439 S    
C4    H5    1.107639 S    
N2    O27   1.302088 A    
C1    H17   1.104468 S    
C23   H33   1.078719 S    
P8    C20   1.817048 S    
P4    Ba2   3.449362 S    
C36   C39   1.417486 A    
C48   C49   1.427669 A    
C43   C51   1.386952 A    
