data_mof_unit_47375.cif
_audit_creation_date              2012-12-10T20:59:33-0500
_audit_creation_method            fapswitch 2.2
_symmetry_space_group_name_H-M    P1
_symmetry_Int_Tables_number       1
_space_group_crystal_system       triclinic
_cell_length_a                    15.835176
_cell_length_b                    15.031403
_cell_length_c                    10.756096
_cell_angle_alpha                 89.298502
_cell_angle_beta                  88.21905
_cell_angle_gamma                 90.157164
_cell_volume                      2558.77779506

loop_
_atom_site_label
_atom_site_type_symbol
_atom_type_description
_atom_site_fract_x
_atom_site_fract_y
_atom_site_fract_z
_atom_type_partial_charge
C1    C     C_R   0.339021 0.499940 0.495894 0.849298
C2    C     C_1   0.176164 0.499565 0.489675 -0.039442
C3    C     C_1   0.250868 0.499707 0.492179 -0.205820
C4    C     C_1   0.749273 0.500304 0.503769 -0.204002
C5    C     C_R   0.429453 0.953218 0.460162 -0.174728
C6    C     C_R   0.429431 0.047101 0.460417 -0.171604
C7    C     C_R   0.496350 0.500600 0.257167 0.875988
C8    C     C_R   0.500017 0.905041 0.499587 0.082061
C9    C     C_R   0.499992 0.094944 0.499962 0.090986
C10   C     C_R   0.570501 0.952863 0.539431 -0.165341
C11   C     C_R   0.570558 0.046737 0.539385 -0.176791
C12   C     C_3   0.570031 0.515030 0.920346 -0.518187
C13   C     C_1   0.500014 0.807237 0.499640 0.019263
C14   C     C_1   0.499995 0.192757 0.499972 0.001666
C15   C     C_R   0.660941 0.500062 0.504764 0.905939
C16   C     C_R   0.486705 0.499241 0.741480 0.886539
C17   C     C_3   0.425394 0.579002 0.078039 -0.150160
C18   C     C_3   0.450463 0.407122 0.078777 -0.155460
C19   C     C_3   0.414342 0.575498 0.931297 0.294580
C20   C     C_3   0.447457 0.398662 0.931015 0.274826
C21   C     C_3   0.579153 0.520509 0.062200 0.383313
C22   C     C_3   0.486886 0.501681 0.121086 -0.137627
C23   C     C_R   0.957238 0.580494 0.475263 0.183755
C24   C     C_3   0.477810 0.496854 0.878304 -0.024497
C25   C     C_3   0.342541 0.591479 0.161934 -0.413913
C26   C     C_3   0.298041 0.681202 0.143178 -0.347007
C27   C     C_3   0.229608 0.696057 0.244083 -0.897019
C28   C     C_3   0.367189 0.378088 0.154906 -0.385091
C29   C     C_3   0.366116 0.278737 0.192108 -0.353339
C30   C     C_3   0.285189 0.254171 0.265617 -0.882299
C31   C     C_3   0.274227 0.590568 0.811864 -0.868371
C32   C     C_3   0.329464 0.376817 0.772064 -0.747348
C33   C     C_3   0.427355 0.674558 0.875562 -0.366471
C34   C     C_R   0.956235 0.418996 0.511505 0.183577
C35   C     C_3   0.510444 0.727646 0.884162 -0.403136
C36   C     C_3   0.496575 0.826070 0.853401 -0.907543
C37   C     C_3   0.499029 0.311179 0.888559 -0.387785
C38   C     C_3   0.595134 0.306305 0.861010 -0.371744
C39   C     C_3   0.621965 0.210991 0.831537 -0.901789
C40   C     C_3   0.691945 0.641027 0.038048 -0.816469
C41   C     C_3   0.701425 0.473428 0.198609 -0.722632
C42   C     C_3   0.885181 0.703801 0.572424 -0.784788
C43   C     C_3   0.882289 0.296764 0.420303 -0.784027
C44   C     C_R   0.913265 0.499943 0.495815 0.080094
C45   C     C_R   0.044105 0.419631 0.509272 -0.269345
C46   C     C_R   0.045122 0.579332 0.470403 -0.274057
C47   C     C_R   0.087483 0.499400 0.488596 0.109832
C48   C     C_1   0.824111 0.500274 0.500735 0.009896
H1    H     H_    0.459180 0.641005 0.098600 0.175501
H2    H     H_    0.374215 0.918200 0.429145 0.130793
H3    H     H_    0.181915 0.641728 0.243376 0.265543
H4    H     H_    0.257901 0.698307 0.337242 0.270668
H5    H     H_    0.197379 0.760311 0.226624 0.244994
H6    H     H_    0.344530 0.736618 0.146139 0.218173
H7    H     H_    0.267159 0.682769 0.052326 0.237240
H8    H     H_    0.295525 0.538045 0.153845 0.184820
H9    H     H_    0.358394 0.589000 0.260796 0.236854
H10   H     H_    0.280263 0.292954 0.352811 0.273872
H11   H     H_    0.229068 0.267749 0.209002 0.257089
H12   H     H_    0.496503 0.357341 0.109369 0.163072
H13   H     H_    0.285896 0.182252 0.290212 0.239911
H14   H     H_    0.371158 0.236275 0.108686 0.200425
H15   H     H_    0.420871 0.263767 0.250976 0.239630
H16   H     H_    0.359454 0.415186 0.242563 0.217510
H17   H     H_    0.308513 0.394562 0.106819 0.192944
H18   H     H_    0.293000 0.508340 0.966293 0.259189
H19   H     H_    0.216119 0.550150 0.801130 0.252195
H20   H     H_    0.308225 0.592339 0.720627 0.253920
H21   H     H_    0.254516 0.658606 0.838452 0.237117
H22   H     H_    0.337922 0.318313 0.939997 0.228631
H23   H     H_    0.625666 0.917562 0.570589 0.132416
H24   H     H_    0.260144 0.365036 0.775260 0.220122
H25   H     H_    0.358441 0.323558 0.714921 0.240491
H26   H     H_    0.339102 0.441546 0.726910 0.263048
H27   H     H_    0.468238 0.833932 0.760866 0.272593
H28   H     H_    0.454021 0.856693 0.924833 0.258883
H29   H     H_    0.558020 0.861948 0.851951 0.256181
H30   H     H_    0.535191 0.725403 0.978337 0.246989
H31   H     H_    0.558232 0.703916 0.815150 0.252591
H32   H     H_    0.411127 0.678366 0.776500 0.237589
H33   H     H_    0.378519 0.716238 0.921908 0.197902
H34   H     H_    0.625904 0.081686 0.570102 0.131581
H35   H     H_    0.608142 0.166271 0.912668 0.260779
H36   H     H_    0.588186 0.186227 0.749874 0.264150
H37   H     H_    0.690941 0.209206 0.809606 0.254711
H38   H     H_    0.613941 0.347131 0.778312 0.257751
H39   H     H_    0.631737 0.326458 0.940599 0.220602
H40   H     H_    0.483547 0.257702 0.957911 0.170592
H41   H     H_    0.471763 0.284865 0.803052 0.234910
H42   H     H_    0.595496 0.638596 0.174152 0.243051
H43   H     H_    0.736229 0.652980 0.114209 0.245052
H44   H     H_    0.683734 0.704784 0.986993 0.234388
H45   H     H_    0.593247 0.576502 0.874921 0.197718
H46   H     H_    0.721055 0.591984 0.973417 0.258552
H47   H     H_    0.621548 0.388694 0.110865 0.202399
H48   H     H_    0.713919 0.412915 0.255468 0.217834
H49   H     H_    0.678102 0.525876 0.261866 0.243893
H50   H     H_    0.762228 0.494387 0.153302 0.241770
H51   H     H_    0.945079 0.706478 0.398977 0.221602
H52   H     H_    0.940338 0.723120 0.627695 0.233116
H53   H     H_    0.843700 0.658099 0.628761 0.249857
H54   H     H_    0.848412 0.764476 0.550430 0.235987
H55   H     H_    0.942519 0.292732 0.587964 0.220781
H56   H     H_    0.616555 0.468595 0.881172 0.161691
H57   H     H_    0.937040 0.276921 0.359768 0.233049
H58   H     H_    0.841645 0.343232 0.368121 0.248049
H59   H     H_    0.844421 0.236527 0.445348 0.237095
H60   H     H_    0.080238 0.640739 0.455019 0.150918
H61   H     H_    0.078459 0.358147 0.523031 0.145533
H62   H     H_    0.374174 0.082372 0.429670 0.128902
N1    N     N_1   0.500020 0.270550 0.499960 -0.097311
N2    N     N_1   0.500020 0.729450 0.499960 -0.093096
N3    N     N_2   0.325939 0.550461 0.906945 -0.295144
N4    N     N_2   0.359608 0.376384 0.898144 -0.333617
N5    N     N_2   0.610564 0.610656 0.089741 -0.315600
N6    N     N_2   0.640636 0.453559 0.104508 -0.307281
N7    N     N_2   0.913483 0.662174 0.457992 -0.301237
N8    N     N_2   0.911449 0.337586 0.532343 -0.301126
O1    O     O_R   0.378020 0.573650 0.500000 -0.628126
O2    O     O_R   0.378020 0.426350 0.500000 -0.619281
O3    O     O_R   0.499990 0.573670 0.314770 -0.646260
O4    O     O_R   0.499990 0.426330 0.314770 -0.610446
O5    O     O_R   0.621980 0.573680 0.499940 -0.604243
O6    O     O_R   0.621980 0.426320 0.499940 -0.600843
O7    O     O_R   0.500010 0.573660 0.685180 -0.635306
O8    O     O_R   0.500010 0.426340 0.685180 -0.617849
Zn1   Zn    Zn3+2 0.500000 0.598370 0.499960 0.936631
Zn2   Zn    Zn3+2 0.500000 0.401630 0.499960 0.941141

loop_
_geom_bond_atom_site_label_1
_geom_bond_atom_site_label_2
_ccdc_geom_bond_type
C34   N8    S    
C29   H15   S    
C8    C13   S    
H18   N3    S    
C37   H40   S    
C35   C36   S    
C25   H8    S    
C21   N5    S    
C26   H7    S    
C6    C9    A    
C32   H24   S    
H22   N4    S    
C31   H19   S    
C26   C27   S    
C37   C38   S    
C15   O5    A    
C38   H38   S    
C28   C29   S    
C39   H36   S    
C12   H56   S    
C13   N2    T    
C36   H29   S    
C32   H26   S    
C38   C39   S    
C45   H61   S    
C40   N5    S    
C19   N3    S    
C42   H54   S    
C1    O1    A    
N2    Zn1   S    
C36   H28   S    
C17   C19   S    
C46   C47   A    
C20   C24   S    
C46   H60   S    
C16   O7    A    
O6    Zn2   S    
C10   H23   S    
C16   C24   S    
C23   C46   A    
C21   C22   S    
C6    H62   S    
C31   H20   S    
C25   H9    S    
C7    O3    A    
C21   N6    S    
C26   H6    S    
C27   H3    S    
C45   C47   A    
C11   H34   S    
C14   N1    T    
C15   O6    A    
C34   C44   A    
C19   C33   S    
C17   H1    S    
C32   H25   S    
C25   C26   S    
C12   C21   S    
C23   C44   A    
C1    C3    S    
C1    O2    A    
C9    C14   S    
C29   C30   S    
C36   H27   S    
C42   H52   S    
H51   N7    S    
O5    Zn1   S    
C43   H57   S    
H47   N6    S    
C30   H11   S    
O2    Zn2   S    
C18   C28   S    
C42   N7    S    
C34   C45   A    
C43   H59   S    
H42   N5    S    
C40   H44   S    
C9    C11   A    
C28   H16   S    
C18   H12   S    
C41   H49   S    
C12   H45   S    
H55   N8    S    
C39   H37   S    
C7    O4    A    
C42   H53   S    
C27   H4    S    
C4    C48   T    
C29   H14   S    
O8    Zn2   S    
C18   C22   S    
C19   C24   S    
C40   H46   S    
C23   N7    S    
C5    C8    A    
C27   H5    S    
C33   H32   S    
O3    Zn1   S    
C2    C47   S    
C7    C22   S    
C12   C24   S    
C35   H30   S    
C17   C22   S    
C37   H41   S    
C38   H39   S    
C17   C25   S    
C4    C15   S    
C28   H17   S    
C39   H35   S    
C20   N4    S    
C20   C37   S    
C5    C6    A    
C16   O8    A    
C30   H10   S    
C35   H31   S    
C33   C35   S    
C31   N3    S    
C2    C3    T    
C18   C20   S    
C40   H43   S    
O4    Zn2   S    
C5    H2    S    
C10   C11   A    
C43   N8    S    
C41   H48   S    
C31   H21   S    
C8    C10   A    
C30   H13   S    
N1    Zn2   S    
O7    Zn1   S    
C41   H50   S    
C41   N6    S    
C32   N4    S    
C33   H33   S    
C43   H58   S    
C44   C48   S    
O1    Zn1   S    
