data_mof_unit_24942.cif
_audit_creation_date              2012-12-11T15:37:20-0500
_audit_creation_method            fapswitch 2.2
_symmetry_space_group_name_H-M    P1
_symmetry_Int_Tables_number       1
_space_group_crystal_system       triclinic
_cell_length_a                    17.499693
_cell_length_b                    24.220263
_cell_length_c                    14.950032
_cell_angle_alpha                 89.775835
_cell_angle_beta                  125.593957
_cell_angle_gamma                 90.054095
_cell_volume                      5152.5789687

loop_
_atom_site_label
_atom_site_type_symbol
_atom_type_description
_atom_site_fract_x
_atom_site_fract_y
_atom_site_fract_z
_atom_type_partial_charge
C1    C     C_R   0.849343 0.652238 0.907400 -0.129378
C2    C     C_R   0.185704 0.368967 0.091248 -0.116995
C3    C     C_R   0.150509 0.652281 0.091814 -0.139980
C4    C     C_R   0.810679 0.373406 0.907544 -0.116523
C5    C     C_R   0.349348 0.152239 0.907400 -0.129383
C6    C     C_R   0.685714 0.868978 0.091251 -0.117003
C7    C     C_R   0.650513 0.152281 0.091813 -0.139972
C8    C     C_R   0.310685 0.873398 0.907549 -0.116522
C9    C     C_3   0.420463 0.501422 0.385983 -0.202161
C10   C     C_3   0.586066 0.503765 0.572435 -0.205514
C11   C     C_3   0.920453 0.001423 0.386058 -0.202148
C12   C     C_3   0.086051 0.003773 0.572510 -0.205520
C13   C     C_R   0.658767 0.314612 0.900583 -0.171416
C14   C     C_R   0.211698 0.767678 0.099445 -0.164936
C15   C     C_R   0.338156 0.311733 0.097826 -0.173473
C16   C     C_R   0.788088 0.767345 0.898936 -0.165807
C17   C     C_R   0.158771 0.814610 0.900590 -0.171397
C18   C     C_R   0.711697 0.267679 0.099440 -0.164931
C19   C     C_R   0.838163 0.811740 0.097828 -0.173467
C20   C     C_R   0.288093 0.267345 0.898934 -0.165811
C21   C     C_R   0.111756 0.768494 0.900291 -0.170502
C22   C     C_R   0.759177 0.313432 0.099600 -0.166761
C23   C     C_R   0.887967 0.767427 0.098167 -0.164218
C24   C     C_R   0.237965 0.311463 0.898717 -0.168084
C25   C     C_R   0.611758 0.268492 0.900285 -0.170497
C26   C     C_R   0.259185 0.813427 0.099607 -0.166769
C27   C     C_R   0.387969 0.267426 0.098166 -0.164215
C28   C     C_R   0.737970 0.811468 0.898719 -0.168079
C29   C     C_R   0.144326 0.741617 0.999727 0.140214
C30   C     C_R   0.739620 0.333169 0.000051 0.138665
C31   C     C_R   0.856358 0.741387 0.998757 0.139122
C32   C     C_R   0.256383 0.329591 0.998353 0.138758
C33   C     C_R   0.644330 0.241616 0.999723 0.140205
C34   C     C_R   0.239628 0.833163 0.000058 0.138673
C35   C     C_R   0.356365 0.241388 0.998755 0.139123
C36   C     C_R   0.756392 0.829600 0.998356 0.138753
C37   C     C_R   0.903969 0.503808 0.451865 -0.197762
C38   C     C_R   0.098059 0.495937 0.549359 -0.176913
C39   C     C_R   0.935883 0.503099 0.386741 -0.190271
C40   C     C_R   0.065946 0.495414 0.614328 -0.193307
C41   C     C_R   0.403974 0.003779 0.451863 -0.197703
C42   C     C_R   0.598072 0.995961 0.549369 -0.176937
C43   C     C_R   0.435892 0.003065 0.386742 -0.190267
C44   C     C_R   0.565957 0.995441 0.614336 -0.193292
C45   C     C_R   0.032630 0.499080 0.436120 0.177255
C46   C     C_R   0.969187 0.499114 0.564864 0.188886
C47   C     C_R   0.532643 0.999073 0.436126 0.177268
C48   C     C_R   0.469194 0.999115 0.564867 0.188847
C49   C     C_R   0.900402 0.378234 0.091163 -0.149505
C50   C     C_R   0.056926 0.651878 0.908681 -0.134907
C51   C     C_R   0.097083 0.375901 0.907878 -0.150602
C52   C     C_R   0.943474 0.651850 0.090715 -0.136528
C53   C     C_R   0.400409 0.878229 0.091168 -0.149516
C54   C     C_R   0.556929 0.151877 0.908680 -0.134911
C55   C     C_R   0.597090 0.875908 0.907880 -0.150602
C56   C     C_R   0.443477 0.151851 0.090715 -0.136526
C57   C     C_R   0.049469 0.545648 0.304834 0.187032
C58   C     C_R   0.949393 0.454009 0.695066 0.156300
C59   C     C_R   0.952035 0.545887 0.695593 0.187643
C60   C     C_R   0.050904 0.453788 0.305232 0.158929
C61   C     C_R   0.549475 0.045646 0.304839 0.187060
C62   C     C_R   0.449394 0.954010 0.695066 0.156331
C63   C     C_R   0.452035 0.045887 0.695593 0.187637
C64   C     C_R   0.550921 0.953787 0.305238 0.158926
C65   C     C_R   0.733448 0.455538 0.712796 -0.147640
C66   C     C_R   0.268201 0.546444 0.258621 -0.128475
C67   C     C_R   0.269387 0.454817 0.266004 -0.161171
C68   C     C_R   0.733888 0.547383 0.720054 -0.159056
C69   C     C_R   0.233434 0.955540 0.712834 -0.147627
C70   C     C_R   0.768202 0.046445 0.258662 -0.128483
C71   C     C_R   0.769385 0.954816 0.266047 -0.161050
C72   C     C_R   0.233883 0.047385 0.720098 -0.159050
C73   C     C_R   0.880943 0.683828 0.999065 0.042573
C74   C     C_R   0.183899 0.358760 0.999198 0.045948
C75   C     C_R   0.119735 0.683836 0.999835 0.044281
C76   C     C_R   0.812158 0.362992 0.999450 0.045188
C77   C     C_R   0.380950 0.183830 0.999064 0.042579
C78   C     C_R   0.683910 0.858771 0.999201 0.045950
C79   C     C_R   0.619741 0.183835 0.999834 0.044279
C80   C     C_R   0.312166 0.862984 0.999455 0.045193
C81   C     C_R   0.062746 0.499463 0.366199 -0.060492
C82   C     C_R   0.939000 0.499791 0.634651 -0.055571
C83   C     C_R   0.562762 0.999460 0.366208 -0.060517
C84   C     C_R   0.439003 0.999791 0.634651 -0.055598
C85   C     C_R   0.678465 0.502150 0.671577 0.111275
C86   C     C_R   0.324727 0.500636 0.293015 0.106462
C87   C     C_R   0.178453 0.002154 0.671643 0.111287
C88   C     C_R   0.824727 0.000635 0.293080 0.106440
C89   C     C_3   0.510791 0.459766 0.543030 0.147074
C90   C     C_3   0.495522 0.545376 0.415177 0.139367
C91   C     C_3   0.492659 0.453663 0.429018 0.159427
C92   C     C_3   0.514148 0.551619 0.529372 0.159193
C93   C     C_3   0.010765 0.959783 0.543120 0.147010
C94   C     C_3   0.995518 0.045369 0.415232 0.139350
C95   C     C_3   0.992642 0.953659 0.429114 0.159314
C96   C     C_3   0.014141 0.051634 0.529422 0.159199
C97   C     C_3   0.439940 0.507537 0.500307 0.166641
C98   C     C_3   0.567256 0.497800 0.458956 0.162793
C99   C     C_3   0.939925 0.007561 0.500376 0.166774
C100  C     C_3   0.067244 0.997788 0.459035 0.162820
H1    H     H_    0.810210 0.665813 0.822811 0.078849
H2    H     H_    0.237862 0.355596 0.174089 0.084018
H3    H     H_    0.188885 0.666021 0.176024 0.080808
H4    H     H_    0.755286 0.364361 0.823225 0.084539
H5    H     H_    0.310218 0.165815 0.822812 0.078845
H6    H     H_    0.737879 0.855614 0.174095 0.084012
H7    H     H_    0.688892 0.166020 0.176024 0.080809
H8    H     H_    0.255297 0.864345 0.823233 0.084534
H9    H     H_    0.921337 0.376933 0.174099 0.091216
H10   H     H_    0.009712 0.667622 0.826750 0.112442
H11   H     H_    0.074830 0.373797 0.824601 0.091324
H12   H     H_    0.990814 0.667370 0.172544 0.112938
H13   H     H_    0.421350 0.876925 0.174107 0.091211
H14   H     H_    0.509715 0.167620 0.826748 0.112443
H15   H     H_    0.574842 0.873807 0.824606 0.091328
H16   H     H_    0.490817 0.167371 0.172544 0.112934
H17   H     H_    0.716770 0.414699 0.678064 0.091713
H18   H     H_    0.288173 0.589065 0.279712 0.094249
H19   H     H_    0.291285 0.414277 0.301225 0.092309
H20   H     H_    0.718381 0.590158 0.696531 0.090183
H21   H     H_    0.216733 0.914701 0.678104 0.091692
H22   H     H_    0.788171 0.089066 0.279764 0.094258
H23   H     H_    0.791271 0.914276 0.301268 0.092251
H24   H     H_    0.218372 0.090162 0.696590 0.090183
H25   H     H_    0.637184 0.331608 0.822196 0.113376
H26   H     H_    0.234897 0.750247 0.178088 0.107009
H27   H     H_    0.358529 0.327627 0.176151 0.110453
H28   H     H_    0.765977 0.750666 0.820384 0.106444
H29   H     H_    0.137189 0.831607 0.822204 0.113341
H30   H     H_    0.734897 0.250248 0.178083 0.107009
H31   H     H_    0.858542 0.827636 0.176154 0.110454
H32   H     H_    0.265986 0.250667 0.820383 0.106445
H33   H     H_    0.056196 0.751567 0.821676 0.111124
H34   H     H_    0.817114 0.329022 0.178189 0.107402
H35   H     H_    0.944380 0.750741 0.176871 0.109922
H36   H     H_    0.179357 0.326913 0.820130 0.106914
H37   H     H_    0.556203 0.251563 0.821671 0.111141
H38   H     H_    0.317125 0.829015 0.178197 0.107403
H39   H     H_    0.444384 0.250741 0.176870 0.109918
H40   H     H_    0.679363 0.826920 0.820133 0.106916
H41   H     H_    0.829595 0.507932 0.414997 0.128781
H42   H     H_    0.172762 0.494253 0.586742 0.120817
H43   H     H_    0.885844 0.506195 0.298173 0.127031
H44   H     H_    0.115971 0.492736 0.702955 0.123679
H45   H     H_    0.329597 0.007884 0.414987 0.128749
H46   H     H_    0.672777 0.994296 0.586755 0.120820
H47   H     H_    0.385852 0.006140 0.298170 0.127017
H48   H     H_    0.615983 0.992786 0.702967 0.123689
N1    N     N_R   0.892620 0.603790 0.941800 -0.037198
N2    N     N_R   0.107380 0.396210 0.058200 -0.036222
N3    N     N_R   0.107380 0.603790 0.058200 -0.036879
N4    N     N_R   0.892620 0.396210 0.941800 -0.038735
N5    N     N_R   0.392620 0.103790 0.941800 -0.037195
N6    N     N_R   0.607380 0.896210 0.058200 -0.036233
N7    N     N_R   0.607380 0.103790 0.058200 -0.036882
N8    N     N_R   0.392620 0.896210 0.941800 -0.038730
N9    N     N_R   0.952210 0.397600 0.057910 -0.041793
N10   N     N_R   0.047790 0.602400 0.942090 -0.036145
N11   N     N_R   0.047790 0.397600 0.942090 -0.041871
N12   N     N_R   0.952210 0.602400 0.057910 -0.036792
N13   N     N_R   0.452210 0.897600 0.057910 -0.041797
N14   N     N_R   0.547790 0.102400 0.942090 -0.036146
N15   N     N_R   0.547790 0.897600 0.942090 -0.041872
N16   N     N_R   0.452210 0.102400 0.057910 -0.036792
N17   N     N_R   0.026300 0.529110 0.206760 -0.081514
N18   N     N_R   0.973700 0.470890 0.793240 -0.080978
N19   N     N_R   0.973700 0.529110 0.793240 -0.080683
N20   N     N_R   0.026300 0.470890 0.206760 -0.079435
N21   N     N_R   0.526300 0.029110 0.206760 -0.081512
N22   N     N_R   0.473700 0.970890 0.793240 -0.080976
N23   N     N_R   0.473700 0.029110 0.793240 -0.080687
N24   N     N_R   0.526300 0.970890 0.206760 -0.079446
N25   N     N_R   0.818530 0.472270 0.792960 -0.035788
N26   N     N_R   0.181470 0.527730 0.207040 -0.047393
N27   N     N_R   0.181470 0.472270 0.207040 -0.037267
N28   N     N_R   0.818530 0.527730 0.792960 -0.041887
N29   N     N_R   0.318530 0.972270 0.792960 -0.035789
N30   N     N_R   0.681470 0.027730 0.207040 -0.047387
N31   N     N_R   0.681470 0.972270 0.207040 -0.037259
N32   N     N_R   0.318530 0.027730 0.792960 -0.041896
Ni1   Ni    Ni4+2 0.934150 0.565840 0.869060 0.195226
Ni2   Ni    Ni4+2 0.065850 0.434160 0.130940 0.206823
Ni3   Ni    Ni4+2 0.065850 0.565840 0.130940 0.196388
Ni4   Ni    Ni4+2 0.934150 0.434160 0.869060 0.206212
Ni5   Ni    Ni4+2 0.434150 0.065840 0.869060 0.195220
Ni6   Ni    Ni4+2 0.565850 0.934160 0.130940 0.206823
Ni7   Ni    Ni4+2 0.565850 0.065840 0.130940 0.196395
Ni8   Ni    Ni4+2 0.434150 0.934160 0.869060 0.206217
C101  C     C_3   0.095151 0.599958 0.356695 -0.355877
C102  C     C_3   0.032833 0.635235 0.374487 -0.919091
H49   H     H_    0.959989 0.637608 0.298491 0.259670
H50   H     H_    0.030616 0.617370 0.441393 0.267839
H51   H     H_    0.062051 0.677622 0.398622 0.248925
H52   H     H_    0.163144 0.592435 0.437723 0.189889
H53   H     H_    0.112779 0.622072 0.305903 0.174071
C103  C     C_3   0.916658 0.396452 0.650038 -0.372006
C104  C     C_3   0.816647 0.395466 0.545951 -0.917589
H54   H     H_    0.768729 0.415600 0.561421 0.272591
H55   H     H_    0.812379 0.416692 0.477424 0.263814
H56   H     H_    0.793838 0.352030 0.521308 0.253069
H57   H     H_    0.964451 0.378380 0.631714 0.186350
H58   H     H_    0.917693 0.370168 0.711757 0.194695
C105  C     C_3   0.907894 0.600582 0.643283 -0.368238
C106  C     C_3   0.972338 0.635327 0.627902 -0.905325
H59   H     H_    0.044460 0.637271 0.705165 0.258673
H60   H     H_    0.976275 0.617308 0.562573 0.266371
H61   H     H_    0.943822 0.677890 0.602761 0.248117
H62   H     H_    0.840625 0.593675 0.561340 0.182534
H63   H     H_    0.889117 0.622757 0.692668 0.173336
C107  C     C_3   0.083373 0.396116 0.350537 -0.363466
C108  C     C_3   0.187900 0.394054 0.441737 -0.939769
H64   H     H_    0.208516 0.351311 0.474521 0.259798
H65   H     H_    0.226595 0.405995 0.406880 0.254417
H66   H     H_    0.206888 0.422026 0.510228 0.264479
H67   H     H_    0.043206 0.380593 0.381796 0.188866
H68   H     H_    0.072286 0.367942 0.285690 0.194780
C109  C     C_3   0.595152 0.099958 0.356697 -0.355872
C110  C     C_3   0.532828 0.135232 0.374483 -0.919102
H69   H     H_    0.459986 0.137605 0.298484 0.259674
H70   H     H_    0.530606 0.117365 0.441384 0.267839
H71   H     H_    0.562044 0.177619 0.398624 0.248926
H72   H     H_    0.663144 0.092436 0.437727 0.189894
H73   H     H_    0.612780 0.122072 0.305906 0.174071
C111  C     C_3   0.416666 0.896451 0.650041 -0.372034
C112  C     C_3   0.316643 0.895458 0.545982 -0.917585
H74   H     H_    0.268734 0.915558 0.561504 0.272576
H75   H     H_    0.312335 0.916717 0.477458 0.263811
H76   H     H_    0.293857 0.852024 0.521305 0.253070
H77   H     H_    0.464446 0.878388 0.631688 0.186364
H78   H     H_    0.417726 0.870161 0.711769 0.194706
C113  C     C_3   0.407890 0.100581 0.643282 -0.368228
C114  C     C_3   0.472328 0.135327 0.627891 -0.905337
H79   H     H_    0.544452 0.137272 0.705151 0.258673
H80   H     H_    0.476260 0.117308 0.562559 0.266370
H81   H     H_    0.443809 0.177890 0.602750 0.248118
H82   H     H_    0.340619 0.093673 0.561341 0.182543
H83   H     H_    0.389115 0.122757 0.692669 0.173334
C115  C     C_3   0.583389 0.896113 0.350534 -0.363360
C116  C     C_3   0.687908 0.894047 0.441774 -0.939834
H84   H     H_    0.708494 0.851309 0.474589 0.259804
H85   H     H_    0.726657 0.905957 0.406965 0.254474
H86   H     H_    0.706879 0.922034 0.510239 0.264449
H87   H     H_    0.543199 0.880584 0.381757 0.188835
H88   H     H_    0.572322 0.867947 0.285687 0.194762
N33   N     N_2   0.365710 0.514059 0.515793 -0.103713
H89   H     H_    0.306248 0.491044 0.464059 0.181738
C117  C     C_3   0.392879 0.516110 0.627534 -0.951991
H90   H     H_    0.339629 0.540176 0.628893 0.247017
H91   H     H_    0.462186 0.536013 0.683595 0.262448
H92   H     H_    0.395814 0.474020 0.658662 0.257076
N34   N     N_2   0.642931 0.492389 0.445976 -0.102376
H93   H     H_    0.701993 0.515319 0.500425 0.169833
C118  C     C_3   0.617583 0.492845 0.334968 -0.946071
H94   H     H_    0.668857 0.467612 0.331964 0.247335
H95   H     H_    0.619826 0.535562 0.309613 0.257328
H96   H     H_    0.546570 0.475359 0.275685 0.260161
N35   N     N_2   0.865682 0.014094 0.515838 -0.103703
H97   H     H_    0.806263 0.991033 0.464176 0.181774
C119  C     C_3   0.892839 0.016237 0.627571 -0.952055
H98   H     H_    0.839523 0.040283 0.628835 0.247000
H99   H     H_    0.962089 0.036209 0.683563 0.262510
H100  H     H_    0.895891 0.974175 0.658867 0.256997
N36   N     N_2   0.142919 0.992363 0.446057 -0.102365
H101  H     H_    0.201987 0.015289 0.500505 0.169857
C120  C     C_3   0.117574 0.992814 0.335050 -0.946054
H102  H     H_    0.168835 0.967569 0.332043 0.247323
H103  H     H_    0.119841 0.035528 0.309700 0.257333
H104  H     H_    0.046553 0.975340 0.275763 0.260151
C121  C     C_3   0.525463 0.413909 0.623543 -0.311951
C122  C     C_3   0.440231 0.376912 0.578413 -0.955500
H105  H     H_    0.377540 0.401870 0.550096 0.273884
H106  H     H_    0.427491 0.351309 0.509835 0.262496
H107  H     H_    0.452709 0.348715 0.644463 0.255322
H108  H     H_    0.584242 0.386775 0.644011 0.174264
H109  H     H_    0.544058 0.433268 0.701029 0.195753
C123  C     C_3   0.483572 0.590440 0.335077 -0.291903
C124  C     C_3   0.568239 0.628983 0.386019 -0.937402
H110  H     H_    0.564548 0.661164 0.435883 0.257411
H111  H     H_    0.635519 0.606230 0.438582 0.256234
H112  H     H_    0.567407 0.650245 0.319528 0.254697
H113  H     H_    0.471532 0.570245 0.261408 0.191209
H114  H     H_    0.420783 0.615907 0.306114 0.174060
C125  C     C_3   0.477290 0.400161 0.365389 -0.325317
C126  C     C_3   0.566218 0.365499 0.416357 -0.905241
H115  H     H_    0.615557 0.385243 0.402574 0.285488
H116  H     H_    0.601161 0.359404 0.505698 0.254493
H117  H     H_    0.547644 0.324367 0.376361 0.242930
H118  H     H_    0.424176 0.374264 0.362830 0.173730
H119  H     H_    0.449758 0.410609 0.279224 0.182712
C127  C     C_3   0.527641 0.606602 0.588169 -0.310576
C128  C     C_3   0.438022 0.641320 0.530909 -0.907263
H120  H     H_    0.411682 0.650457 0.444774 0.249016
H121  H     H_    0.382233 0.620194 0.531590 0.278394
H122  H     H_    0.453482 0.681125 0.574911 0.246059
H123  H     H_    0.553298 0.598559 0.674503 0.181846
H124  H     H_    0.581863 0.631412 0.590633 0.178757
C129  C     C_3   0.025443 0.913936 0.623655 -0.311901
C130  C     C_3   0.940177 0.876975 0.578611 -0.955328
H125  H     H_    0.877586 0.901944 0.550716 0.273861
H126  H     H_    0.927135 0.851497 0.509748 0.262450
H127  H     H_    0.952829 0.848663 0.644597 0.255280
H128  H     H_    0.084172 0.886776 0.644043 0.174252
H129  H     H_    0.044126 0.933303 0.701173 0.195737
C131  C     C_3   0.983569 0.090417 0.335106 -0.291852
C132  C     C_3   0.068239 0.128957 0.386024 -0.937414
H130  H     H_    0.064523 0.161169 0.435818 0.257408
H131  H     H_    0.135517 0.106209 0.438650 0.256229
H132  H     H_    0.067437 0.150180 0.319521 0.254697
H133  H     H_    0.971526 0.070208 0.261447 0.191197
H134  H     H_    0.920782 0.115888 0.306129 0.174055
C133  C     C_3   0.977278 0.900152 0.365495 -0.325306
C134  C     C_3   0.066204 0.865486 0.416472 -0.905150
H135  H     H_    0.115546 0.885225 0.402689 0.285472
H136  H     H_    0.101143 0.859395 0.505813 0.254462
H137  H     H_    0.047628 0.824353 0.376483 0.242920
H138  H     H_    0.924159 0.874255 0.362923 0.173659
H139  H     H_    0.949755 0.910597 0.279332 0.182706
C135  C     C_3   0.027659 0.106636 0.588178 -0.310637
C136  C     C_3   0.938047 0.141361 0.530911 -0.907300
H140  H     H_    0.911706 0.150488 0.444772 0.249025
H141  H     H_    0.882254 0.120247 0.531599 0.278417
H142  H     H_    0.953518 0.181172 0.574900 0.246068
H143  H     H_    0.053341 0.098620 0.674529 0.181806
H144  H     H_    0.081874 0.131429 0.590597 0.178798

loop_
_geom_bond_atom_site_label_1
_geom_bond_atom_site_label_2
_ccdc_geom_bond_type
C10   C85   S    
C128  H120  S    
C68   N28   A    
C15   C32   A    
C5    H5    S    
C16   C31   A    
C40   C46   A    
C135  H143  S    
C126  H115  S    
C61   C109  S    
C58   C82   A    
C97   N33   S    
C98   N34   S    
C96   C99   S    
C50   H10   S    
C112  H76   S    
C104  H55   S    
C38   C45   A    
C101  H52   S    
C102  H50   S    
C129  H128  S    
C113  H82   S    
C47   C83   S    
C18   C33   A    
C64   C115  S    
C13   H25   S    
C15   H27   S    
N33   H89   S    
C72   H24   S    
C41   C43   A    
C93   C129  S    
C42   C44   A    
C20   H32   S    
C21   H33   S    
C53   H13   S    
N7    N14   A    
C62   N22   A    
N2    N11   A    
N23   Ni5   S    
N17   Ni3   S    
N3    N10   A    
C13   C30   A    
N36   H101  S    
N18   Ni4   S    
N21   Ni7   S    
C96   C135  S    
C27   C35   A    
C21   C29   A    
C17   C21   A    
C23   C31   A    
C131  H134  S    
C24   C32   A    
N13   Ni6   S    
C30   C76   S    
C15   C27   A    
C114  H80   S    
C56   H16   S    
C14   C26   A    
C94   C96   S    
C122  H106  S    
C12   C93   S    
C18   H30   S    
C61   N21   A    
C17   C34   A    
C5    C77   A    
C1    H1    S    
C59   N19   A    
C7    C79   A    
C54   C79   A    
C117  H92   S    
C3    H3    S    
N36   C120  S    
N4    N9    A    
C125  H118  S    
C126  H117  S    
C45   C81   S    
C103  C104  S    
C119  H99   S    
C9    C90   S    
C56   N16   A    
C14   H26   S    
C63   C84   A    
C55   N15   A    
N7    Ni7   S    
C111  H77   S    
C123  C124  S    
C123  H114  S    
C4    H4    S    
C91   C98   S    
C71   C88   A    
C92   C127  S    
C66   N26   A    
C90   C123  S    
C43   C47   A    
C52   N12   A    
C44   C48   A    
C109  H73   S    
C136  H141  S    
C102  H49   S    
C59   C82   A    
N30   N31   A    
N31   Ni6   S    
C50   N10   A    
N6    Ni6   S    
C130  H125  S    
N29   Ni8   S    
C121  H108  S    
C127  H124  S    
C71   H23   S    
C128  H121  S    
C32   C74   S    
C118  H94   S    
C6    C78   A    
N22   N23   A    
C52   H12   S    
C107  H67   S    
C54   H14   S    
C134  H135  S    
C11   C99   S    
N35   H97   S    
N26   N27   A    
C46   C82   S    
C20   C35   A    
N25   Ni4   S    
C132  H131  S    
C91   C125  S    
C62   C111  S    
C89   C91   S    
C3    C75   A    
C39   C45   A    
C24   H36   S    
C93   C95   S    
C124  H110  S    
C68   C85   A    
C49   N9    A    
C92   C97   S    
C4    N4    A    
C53   C80   A    
C55   C78   A    
C109  C110  S    
C115  H87   S    
C27   H39   S    
N15   Ni8   S    
C25   H37   S    
C57   C101  S    
C60   C81   A    
C70   H22   S    
C110  H70   S    
C94   C100  S    
C7    N7    A    
C116  H85   S    
C120  H103  S    
C95   C133  S    
N8    N13   A    
C132  H132  S    
C7    H7    S    
C72   N32   A    
C14   C29   A    
C72   C87   A    
C110  H71   S    
C63   C113  S    
C62   C84   A    
C22   C30   A    
C18   C22   A    
C39   H43   S    
C66   C86   A    
C118  H96   S    
N3    Ni3   S    
C105  H62   S    
C134  H137  S    
C135  H144  S    
C124  H111  S    
C68   H20   S    
C58   C103  S    
C112  H75   S    
C104  H54   S    
C58   N18   A    
N1    N12   A    
C108  H66   S    
C106  H59   S    
C124  H112  S    
N22   Ni8   S    
C125  C126  S    
C65   H17   S    
C105  H63   S    
C103  H57   S    
C67   H19   S    
C25   C33   A    
C2    N2    A    
C116  H84   S    
C51   C74   A    
C105  C106  S    
C111  C112  S    
N34   H93   S    
N2    Ni2   S    
C37   H41   S    
C57   N17   A    
C99   N35   S    
C127  C128  S    
C102  H51   S    
C69   N29   A    
C67   N27   A    
C1    N1    A    
N11   Ni4   S    
C93   C99   S    
N12   Ni3   S    
C69   C87   A    
N16   Ni7   S    
N8    Ni8   S    
C10   C92   S    
C121  C122  S    
N1    Ni1   S    
C122  H107  S    
N28   Ni1   S    
C130  H126  S    
C117  H91   S    
C131  H133  S    
C61   C83   A    
C95   C100  S    
C33   C79   S    
C35   C77   S    
C130  H127  S    
C64   N24   A    
C104  H56   S    
C64   C83   A    
C111  H78   S    
N14   Ni5   S    
C101  H53   S    
C63   N23   A    
C108  H64   S    
C106  H61   S    
C129  H129  S    
C6    H6    S    
C6    N6    A    
N30   Ni7   S    
C11   C94   S    
N20   Ni2   S    
N33   C117  S    
C42   H46   S    
C109  H72   S    
C115  C116  S    
C67   C86   A    
C9    C97   S    
C26   H38   S    
N26   Ni3   S    
C23   H35   S    
C1    C73   A    
C37   C39   A    
C50   C75   A    
C38   C40   A    
C55   H15   S    
C107  H68   S    
C133  H139  S    
C126  H116  S    
C114  H79   S    
C134  H136  S    
C101  C102  S    
C12   C100  S    
C31   C73   S    
C136  H140  S    
C59   C105  S    
C41   H45   S    
C28   C36   A    
C132  H130  S    
C2    H2    S    
C122  H105  S    
C12   C96   S    
C37   C46   A    
C16   C28   A    
C133  C134  S    
C129  C130  S    
C19   C23   A    
C28   H40   S    
C119  H100  S    
C70   C88   A    
C9    C91   S    
C125  H119  S    
C60   N20   A    
C22   H34   S    
C89   C121  S    
C19   C36   A    
N34   C118  S    
C123  H113  S    
C115  H88   S    
C71   N31   A    
C10   C98   S    
C34   C80   S    
C90   C92   S    
C26   C34   A    
C20   C24   A    
N24   Ni6   S    
C100  N36   S    
N4    Ni4   S    
C120  H102  S    
C2    C74   A    
C136  H142  S    
C133  H138  S    
C38   H42   S    
C13   C25   A    
C8    H8    S    
N10   Ni1   S    
C19   H31   S    
C121  H109  S    
N5    N16   A    
C17   H29   S    
C127  H123  S    
N6    N15   A    
C128  H122  S    
C10   C89   S    
C52   C73   A    
C118  H95   S    
C70   N30   A    
C114  H81   S    
C56   C77   A    
C48   C84   S    
C89   C97   S    
N35   C119  S    
C135  C136  S    
C9    C86   S    
C69   H21   S    
C11   C88   S    
N29   N32   A    
C112  H74   S    
C49   C76   A    
C54   N14   A    
C16   H28   S    
N27   Ni2   S    
C131  C132  S    
C108  H65   S    
C106  H60   S    
N17   N20   A    
C40   H44   S    
N18   N19   A    
N21   N24   A    
C57   C81   A    
C103  H58   S    
C119  H98   S    
C49   H9    S    
N25   N28   A    
C11   C95   S    
C51   H11   S    
C12   C87   S    
C65   N25   A    
N9    Ni2   S    
C94   C131  S    
C117  H90   S    
C65   C85   A    
C29   C75   S    
C3    N3    A    
C113  H83   S    
C36   C78   S    
C53   N13   A    
C110  H69   S    
N19   Ni1   S    
N5    Ni5   S    
C5    N5    A    
C51   N11   A    
C44   H48   S    
C41   C48   A    
C116  H86   S    
C42   C47   A    
C8    N8    A    
C120  H104  S    
C4    C76   A    
C43   H47   S    
N32   Ni5   S    
C107  C108  S    
C66   H18   S    
C113  C114  S    
C8    C80   A    
C60   C107  S    
C90   C98   S    
