data_mof_unit_35290.cif
_audit_creation_date              2013-03-05T16:36:13-0500
_audit_creation_method            fapswitch 2.2
_symmetry_space_group_name_H-M    P1
_symmetry_Int_Tables_number       1
_space_group_crystal_system       triclinic
_cell_length_a                    27.841957
_cell_length_b                    9.085634
_cell_length_c                    7.766784
_cell_angle_alpha                 90.076756
_cell_angle_beta                  89.611004
_cell_angle_gamma                 90.023708
_cell_volume                      1964.65269861

loop_
_atom_site_label
_atom_site_type_symbol
_atom_site_description
_atom_site_fract_x
_atom_site_fract_y
_atom_site_fract_z
_atom_type_partial_charge
O1    O     O_R   0.500000 0.288390 0.642760 -0.580933
O2    O     O_R   0.500000 0.711610 0.357240 -0.578375
O3    O     O_R   0.500000 0.711610 0.642760 -0.584773
O4    O     O_R   0.500000 0.288390 0.357240 -0.575193
C1    C     C_R   0.500188 0.219953 0.499902 0.850209
C2    C     C_R   0.499242 0.780023 0.500108 0.837105
O5    O     O_R   0.430260 0.500000 0.642770 -0.607367
O6    O     O_R   0.569740 0.500000 0.357230 -0.562887
O7    O     O_R   0.569740 0.500000 0.642770 -0.566911
O8    O     O_R   0.430260 0.500000 0.357230 -0.567605
C3    C     C_R   0.407432 0.501206 0.500764 0.902447
C4    C     C_R   0.592720 0.499920 0.499487 0.880573
Cu1   Cu    Cu3+1 0.500000 0.500000 0.669080 0.999175
Cu2   Cu    Cu3+1 0.500000 0.500000 0.330920 1.018954
C5    C     C_R   0.178294 0.473678 0.342342 0.546559
C6    C     C_R   0.821855 0.543160 0.638925 0.552263
C7    C     C_R   0.177604 0.542746 0.638474 0.543108
C8    C     C_R   0.822349 0.448914 0.352302 0.551517
O9    O     O_2   0.202992 0.446487 0.195572 -0.518068
O10   O     O_2   0.796933 0.590422 0.778089 -0.539457
O11   O     O_2   0.201565 0.569600 0.785743 -0.537181
O12   O     O_2   0.797949 0.400500 0.213771 -0.548254
N1    N     N_R   0.202343 0.508409 0.490449 -0.440510
N2    N     N_R   0.797925 0.495501 0.495920 -0.439262
C9    C     C_R   0.279715 0.627694 0.556261 -0.193783
C10   C     C_R   0.720777 0.409545 0.613894 -0.206860
C11   C     C_R   0.279425 0.381885 0.435246 -0.205656
C12   C     C_R   0.721494 0.584814 0.379433 -0.240891
C13   C     C_R   0.329616 0.622607 0.570692 0.323236
C14   C     C_R   0.670427 0.412576 0.618539 0.330582
C15   C     C_R   0.329784 0.377558 0.441902 0.391056
C16   C     C_R   0.671094 0.589688 0.381505 0.378854
C17   C     C_R   0.254164 0.506727 0.491893 0.224476
C18   C     C_R   0.746313 0.496545 0.496359 0.229416
C19   C     C_R   0.101912 0.507054 0.490631 -0.041641
C20   C     C_R   0.898158 0.498635 0.494320 -0.044679
C21   C     C_R   0.127868 0.467456 0.341620 -0.030449
C22   C     C_R   0.872260 0.544886 0.641006 -0.029269
C23   C     C_R   0.127237 0.547932 0.639219 -0.025530
C24   C     C_R   0.872778 0.450280 0.348646 -0.027049
C25   C     C_R   0.103109 0.422307 0.195244 -0.159495
C26   C     C_R   0.897036 0.592871 0.786100 -0.154957
C27   C     C_R   0.101937 0.592386 0.785847 -0.160463
C28   C     C_R   0.898097 0.404094 0.202695 -0.154952
C29   C     C_R   0.354911 0.501237 0.502807 -0.234335
C30   C     C_R   0.645525 0.500101 0.498904 -0.216524
H1    H     H_    0.259839 0.288096 0.386033 0.168219
H2    H     H_    0.741630 0.647929 0.285444 0.175992
H3    H     H_    0.260690 0.725331 0.598549 0.171809
H4    H     H_    0.740156 0.337803 0.700266 0.169712
H5    H     H_    0.122244 0.389100 0.079648 0.195297
H6    H     H_    0.877962 0.629221 0.900567 0.191790
H7    H     H_    0.120618 0.627072 0.900907 0.194226
H8    H     H_    0.879432 0.365991 0.089039 0.191826
C31   C     C_R   0.974769 0.454865 0.343273 0.038929
C32   C     C_R   0.025294 0.550221 0.641728 0.039901
C33   C     C_R   0.974208 0.549297 0.642197 0.039322
C34   C     C_R   0.025869 0.458632 0.341679 0.039908
C35   C     C_R   0.949275 0.500920 0.493257 0.073332
C36   C     C_R   0.050788 0.505378 0.491294 0.073490
C37   C     C_R   0.947946 0.406228 0.199638 -0.221640
C38   C     C_R   0.052121 0.594705 0.787084 -0.223614
C39   C     C_R   0.946859 0.595085 0.787143 -0.221096
C40   C     C_R   0.053271 0.416911 0.195211 -0.222991
H9    H     H_    0.964120 0.368140 0.081636 0.146787
H10   H     H_    0.035997 0.631333 0.905762 0.147183
H11   H     H_    0.962562 0.634165 0.904743 0.146664
H12   H     H_    0.037562 0.379934 0.076709 0.147281
C41   C     C_1   0.499724 0.065365 0.499895 -0.181784
C42   C     C_1   0.499339 0.934639 0.500155 -0.187432
N3    N     N_1   0.500000 0.500000 0.076820 -0.051062
N4    N     N_1   0.500000 0.500000 0.923180 -0.057701
O13   O     O_3   0.355239 0.255798 0.384123 -0.604899
C43   C     C_3   0.345355 0.130831 0.487841 0.081760
H13   H     H_    0.359189 0.033619 0.416170 0.162484
H14   H     H_    0.306315 0.109157 0.505570 0.132699
C44   C     C_3   0.371779 0.136180 0.661523 -0.386725
H15   H     H_    0.381023 0.022178 0.700341 0.218860
H16   H     H_    0.405986 0.197573 0.647711 0.232479
C45   C     C_3   0.341582 0.204819 0.806011 -0.791381
H17   H     H_    0.336690 0.324454 0.785610 0.250906
H18   H     H_    0.360152 0.189521 0.930817 0.259983
H19   H     H_    0.305765 0.151453 0.814295 0.243355
O14   O     O_3   0.646118 0.671855 0.261232 -0.591370
C46   C     C_3   0.656038 0.824202 0.278172 0.079046
H20   H     H_    0.642276 0.877948 0.160028 0.145580
H21   H     H_    0.695071 0.849949 0.279284 0.133152
C47   C     C_3   0.629467 0.893298 0.432988 -0.375813
H22   H     H_    0.616289 0.004492 0.396880 0.198247
H23   H     H_    0.597728 0.825590 0.467603 0.222697
C48   C     C_3   0.661586 0.909810 0.590520 -0.810609
H24   H     H_    0.674481 0.801021 0.635431 0.253542
H25   H     H_    0.640757 0.961841 0.696640 0.254500
H26   H     H_    0.692904 0.981132 0.559844 0.252743
O15   O     O_3   0.353538 0.740447 0.643570 -0.637250
C49   C     C_3   0.361212 0.712631 0.821040 0.076972
H27   H     H_    0.395520 0.766730 0.856967 0.172588
H28   H     H_    0.365497 0.593451 0.852287 0.155824
C50   C     C_3   0.320681 0.777932 0.931593 -0.377509
H29   H     H_    0.316207 0.896198 0.900425 0.228913
H30   H     H_    0.286452 0.720257 0.903714 0.260359
C51   C     C_3   0.331315 0.762134 0.123295 -0.841590
H31   H     H_    0.334977 0.644058 0.157703 0.266589
H32   H     H_    0.301365 0.810026 0.200079 0.257068
H33   H     H_    0.364987 0.821047 0.156451 0.248469
O16   O     O_3   0.645075 0.316847 0.724337 -0.608649
C52   C     C_3   0.654070 0.345935 0.900514 0.116330
H34   H     H_    0.619684 0.380940 0.961547 0.186720
H35   H     H_    0.680545 0.436038 0.924772 0.159236
C53   C     C_3   0.671160 0.204558 0.987412 -0.377560
H36   H     H_    0.643940 0.116487 0.969086 0.216496
H37   H     H_    0.705441 0.168055 0.926913 0.229799
C54   C     C_3   0.678930 0.227657 0.179672 -0.859350
H38   H     H_    0.705223 0.317304 0.200875 0.298742
H39   H     H_    0.693401 0.125621 0.237767 0.246849
H40   H     H_    0.644435 0.255749 0.244426 0.249147

loop_
_geom_bond_atom_site_label_1
_geom_bond_atom_site_label_2
_geom_bond_distance
_ccdc_geom_bond_type
O5    Cu1   1.953800 S    
C31   C35   1.422531 A    
O13   C43   1.418791 S    
O15   C49   1.419301 S    
C20   C35   1.423330 A    
C44   H15   1.109989 S    
C11   C17   1.403541 A    
C5    O9    1.349837 S    
C7    N1    1.371848 A    
C43   H14   1.112238 S    
O1    C1    1.271153 A    
C40   H12   1.075068 S    
C19   C21   1.406721 A    
C22   C26   1.394575 A    
C10   H4    1.082773 S    
C7    C23   1.403105 A    
C33   C35   1.422155 A    
O16   C52   1.417229 S    
C34   C36   1.421775 A    
C49   C50   1.532554 S    
C32   C33   1.422338 A    
C51   H33   1.110934 S    
Cu2   N3    1.973539 S    
O7    Cu1   1.951038 S    
C53   H36   1.111564 S    
C5    C21   1.405108 A    
C1    C41   1.404581 S    
C27   H7    1.083455 S    
C49   H28   1.116621 S    
N1    C17   1.442986 S    
C43   C44   1.541609 S    
N2    C18   1.436976 S    
C52   H34   1.111805 S    
O3    Cu1   1.933720 S    
O6    C4    1.280514 A    
C54   H40   1.110757 S    
O3    C2    1.271429 A    
C46   H21   1.111642 S    
C12   C18   1.398681 A    
C6    N2    1.368780 A    
Cu1   Cu2   2.626416 S    
C14   O16   1.386890 S    
C34   C40   1.416732 A    
C52   H35   1.118011 S    
O2    C2    1.271183 A    
C45   H19   1.110167 S    
C10   C18   1.398687 A    
C33   C39   1.416893 A    
C53   H37   1.111517 S    
C44   H16   1.108156 S    
C9    C13   1.395408 A    
C16   O14   1.387303 S    
C39   H11   1.075127 S    
C43   H13   1.111015 S    
C38   H10   1.074964 S    
C11   C15   1.403968 A    
C51   H31   1.110815 S    
C20   C24   1.407723 A    
O14   C46   1.417465 S    
C45   H18   1.110618 S    
O8    Cu2   1.951041 S    
C48   H24   1.109255 S    
C13   O15   1.383174 S    
O4    C1    1.271337 A    
C23   C27   1.394399 A    
C46   H20   1.110584 S    
C7    O11   1.349936 S    
C32   C36   1.422196 A    
C13   C29   1.408545 A    
C19   C36   1.423439 A    
C19   C23   1.405925 A    
C37   H9    1.075263 S    
C48   H25   1.109866 S    
O5    C3    1.276745 A    
C50   H29   1.109018 S    
C47   C48   1.527569 S    
C12   C16   1.403939 A    
C6    O10   1.350154 S    
C49   H27   1.111189 S    
C9    C17   1.402381 A    
C51   H32   1.110497 S    
C53   C54   1.524508 S    
C4    C30   1.470185 S    
C50   H30   1.109864 S    
C47   H23   1.108320 S    
C10   C14   1.402320 A    
C52   C53   1.529396 S    
C8    N2    1.369122 A    
C3    C29   1.462271 S    
O1    Cu1   1.933177 S    
C54   H38   1.107798 S    
C46   C47   1.540612 S    
C11   H1    1.082206 S    
C2    C42   1.404785 S    
C12   H2    1.082264 S    
O6    Cu2   1.953798 S    
C8    O12   1.349466 S    
C16   C30   1.411879 A    
C14   C30   1.409834 A    
C45   H17   1.107252 S    
Cu1   N4    1.973539 S    
C28   C37   1.388038 A    
C20   C22   1.407922 A    
N3    N4    1.193289 T    
O4    Cu2   1.933721 S    
C48   H26   1.110883 S    
C44   C45   1.529996 S    
C31   C37   1.416783 A    
C5    N1    1.371293 A    
C32   C38   1.416232 A    
C21   C25   1.394671 A    
C41   C42   1.187776 T    
O2    Cu2   1.933176 S    
O7    C4    1.279886 A    
C9    H3    1.082876 S    
C15   O13   1.386541 S    
O8    C3    1.279534 A    
C28   H8    1.083702 S    
C24   C28   1.395044 A    
C50   C51   1.526988 S    
C8    C24   1.404186 A    
C47   H22   1.111921 S    
C15   C29   1.406524 A    
C31   C34   1.423078 A    
C6    C22   1.403660 A    
C25   C40   1.388449 A    
C26   C39   1.387372 A    
C25   H5    1.083441 S    
C27   C38   1.387123 A    
C26   H6    1.083724 S    
C54   H39   1.108717 S    
