data_mof_unit_39357.cif
_audit_creation_date              2012-12-10T18:03:16-0500
_audit_creation_method            fapswitch 2.2
_symmetry_space_group_name_H-M    P1
_symmetry_Int_Tables_number       1
_space_group_crystal_system       triclinic
_cell_length_a                    10.852404
_cell_length_b                    9.692064
_cell_length_c                    15.166658
_cell_angle_alpha                 89.963454
_cell_angle_beta                  96.252613
_cell_angle_gamma                 89.609979
_cell_volume                      1585.73447749

loop_
_atom_site_label
_atom_site_type_symbol
_atom_type_description
_atom_site_fract_x
_atom_site_fract_y
_atom_site_fract_z
_atom_type_partial_charge
C1    C     C_R   0.262660 0.499733 0.501059 0.774685
C2    C     C_R   0.736996 0.499128 0.497079 0.783881
C3    C     C_R   0.503657 0.500344 0.330507 0.772776
C4    C     C_R   0.493224 0.500297 0.669138 0.784812
C5    C     C_R   0.429297 0.073340 0.436286 0.041973
C6    C     C_R   0.587576 0.927184 0.552809 0.042521
C7    C     C_R   0.572115 0.072316 0.563332 0.036339
C8    C     C_R   0.411809 0.929302 0.448054 0.052875
C9    C     C_R   0.064970 0.371993 0.502179 -0.195164
C10   C     C_R   0.933940 0.620239 0.487720 -0.158818
C11   C     C_R   0.936592 0.371438 0.495995 -0.197478
C12   C     C_R   0.061947 0.620979 0.496215 -0.168889
C13   C     C_R   0.463133 0.620350 0.093678 -0.174703
C14   C     C_R   0.454423 0.380926 0.901382 -0.182716
C15   C     C_R   0.501026 0.624759 0.904165 -0.174096
C16   C     C_R   0.539654 0.385028 0.097076 -0.181073
C17   C     C_R   0.475206 0.622377 0.185419 -0.205002
C18   C     C_R   0.451700 0.381665 0.809191 -0.160920
C19   C     C_R   0.493340 0.625672 0.812474 -0.205803
C20   C     C_R   0.546605 0.385775 0.189521 -0.159109
C21   C     C_R   0.508830 0.502538 0.234124 -0.020896
C22   C     C_R   0.479670 0.502166 0.764634 -0.026880
C23   C     C_R   0.494408 0.501451 0.048070 0.107878
C24   C     C_R   0.484003 0.501767 0.950124 0.110003
C25   C     C_R   0.870519 0.496515 0.492747 -0.027492
C26   C     C_R   0.128457 0.497515 0.501104 -0.029657
Cu1   Cu    Cu3+1 0.500000 0.640660 0.500000 0.941104
Cu2   Cu    Cu3+1 0.500000 0.359340 0.500000 0.942041
H1    H     H_    0.427937 0.712479 0.059088 0.118547
H2    H     H_    0.433359 0.286090 0.934201 0.113668
H3    H     H_    0.522258 0.720949 0.938401 0.117206
H4    H     H_    0.570141 0.293758 0.064287 0.114809
H5    H     H_    0.457322 0.718538 0.217111 0.135908
H6    H     H_    0.426743 0.288566 0.772732 0.153567
H7    H     H_    0.498006 0.723890 0.780052 0.134844
H8    H     H_    0.582176 0.295591 0.226122 0.149725
H9    H     H_    0.113647 0.274234 0.508449 0.136585
H10   H     H_    0.884524 0.716166 0.476739 0.170531
H11   H     H_    0.890161 0.273185 0.492957 0.132809
H12   H     H_    0.109119 0.717770 0.499191 0.181182
N1    N     N_R   0.500000 0.852070 0.500000 -0.204760
N2    N     N_R   0.500000 0.147930 0.500000 -0.208042
O1    O     O_R   0.319640 0.618740 0.499990 -0.578432
O2    O     O_R   0.680360 0.381260 0.500010 -0.597293
O3    O     O_R   0.680360 0.618740 0.500010 -0.573592
O4    O     O_R   0.319640 0.381260 0.499990 -0.599400
O5    O     O_R   0.499990 0.618780 0.371460 -0.599321
O6    O     O_R   0.500010 0.381220 0.628540 -0.569323
O7    O     O_R   0.500010 0.618780 0.628540 -0.595884
O8    O     O_R   0.499990 0.381220 0.371460 -0.569567
C27   C     C_R   0.379277 0.132012 0.349045 0.176998
C28   C     C_R   0.267609 0.207035 0.337538 -0.076060
C29   C     C_R   0.214350 0.244457 0.252757 -0.165015
C30   C     C_R   0.269030 0.201705 0.178131 -0.088725
C31   C     C_R   0.376674 0.120989 0.188343 -0.145672
C32   C     C_R   0.432097 0.087235 0.273258 -0.199128
H13   H     H_    0.217853 0.229928 0.393006 0.131034
H14   H     H_    0.128595 0.303063 0.244865 0.126922
H15   H     H_    0.226965 0.229151 0.112422 0.120479
H16   H     H_    0.417922 0.085590 0.130502 0.117671
H17   H     H_    0.514904 0.023335 0.279992 0.115600
C33   C     C_R   0.708679 0.869626 0.592400 0.174390
C34   C     C_R   0.719817 0.796607 0.672515 -0.086844
C35   C     C_R   0.835908 0.765694 0.717652 -0.161376
C36   C     C_R   0.942988 0.815775 0.686106 -0.090765
C37   C     C_R   0.933476 0.897112 0.609777 -0.155310
C38   C     C_R   0.817342 0.922499 0.562557 -0.221657
H18   H     H_    0.639556 0.772920 0.703521 0.127960
H19   H     H_    0.842380 0.708153 0.779189 0.127679
H20   H     H_    0.032878 0.794820 0.722045 0.122713
H21   H     H_    0.016091 0.940314 0.587316 0.129690
H22   H     H_    0.811239 0.987855 0.504309 0.109656
C39   C     C_R   0.625195 0.131641 0.649341 0.179469
C40   C     C_R   0.738444 0.201579 0.658106 -0.079873
C41   C     C_R   0.795556 0.238852 0.741666 -0.163139
C42   C     C_R   0.743141 0.200168 0.817939 -0.091829
C43   C     C_R   0.634185 0.123365 0.810516 -0.143764
C44   C     C_R   0.574998 0.090096 0.726736 -0.204835
H23   H     H_    0.786279 0.219719 0.601292 0.125381
H24   H     H_    0.882577 0.293737 0.747333 0.128145
H25   H     H_    0.788200 0.227204 0.882742 0.119752
H26   H     H_    0.594872 0.090552 0.869615 0.117626
H27   H     H_    0.491295 0.029031 0.722130 0.111684
C45   C     C_R   0.284365 0.880673 0.416870 0.162189
C46   C     C_R   0.259837 0.798139 0.341309 -0.101453
C47   C     C_R   0.139313 0.783711 0.299453 -0.160917
C48   C     C_R   0.041775 0.857626 0.330001 -0.096683
C49   C     C_R   0.064489 0.943391 0.403673 -0.173203
C50   C     C_R   0.184013 0.952006 0.448283 -0.234688
H28   H     H_    0.333290 0.750939 0.311641 0.136212
H29   H     H_    0.122456 0.719321 0.241162 0.127331
H30   H     H_    0.949033 0.849541 0.296153 0.122573
H31   H     H_    0.989848 0.003858 0.425949 0.124740
H32   H     H_    0.200011 0.021438 0.504253 0.119084

loop_
_geom_bond_atom_site_label_1
_geom_bond_atom_site_label_2
_ccdc_geom_bond_type
C48   C49   A    
C39   C40   A    
C14   C18   A    
C31   C32   A    
C7    C39   S    
C43   C44   A    
C15   C19   A    
Cu2   O4    S    
C33   C38   A    
C13   H1    S    
C27   C32   A    
C47   H29   S    
C1    O4    A    
C11   C25   A    
C36   H20   S    
C13   C23   A    
C38   H22   S    
C7    N2    A    
C14   C24   A    
C50   H32   S    
C30   C31   A    
Cu2   O8    S    
C44   H27   S    
C1    O1    A    
C29   C30   A    
C2    O2    A    
C6    N1    A    
C23   C24   S    
C3    O5    A    
C41   H24   S    
Cu1   O3    S    
C37   C38   A    
C8    N1    A    
C8    C45   S    
C31   H16   S    
C17   H5    S    
C14   H2    S    
C3    O8    A    
C9    C26   A    
C30   H15   S    
C2    O3    A    
C46   H28   S    
C40   C41   A    
C27   C28   A    
C19   C22   A    
C45   C46   A    
C47   C48   A    
C46   C47   A    
C39   C44   A    
Cu2   O2    S    
C17   C21   A    
C12   C26   A    
C12   H12   S    
C41   C42   A    
C33   C34   A    
C4    C22   S    
Cu1   N1    S    
C37   H21   S    
C16   C20   A    
C20   C21   A    
C9    H9    S    
C35   H19   S    
C42   C43   A    
C11   H11   S    
C18   H6    S    
C10   C12   A    
C10   C25   A    
C15   C24   A    
C16   C23   A    
C40   H23   S    
C9    C11   A    
C1    C26   S    
C3    C21   S    
C45   C50   A    
C28   C29   A    
C5    N2    A    
C4    O6    A    
Cu1   O5    S    
C49   H31   S    
Cu2   O6    S    
C18   C22   A    
C42   H25   S    
C5    C8    A    
C29   H14   S    
C15   H3    S    
C6    C7    A    
C16   H4    S    
C34   H18   S    
C13   C17   A    
C4    O7    A    
C10   H10   S    
C35   C36   A    
C6    C33   S    
C19   H7    S    
C43   H26   S    
Cu2   N2    S    
C2    C25   S    
C28   H13   S    
C34   C35   A    
C20   H8    S    
Cu1   O1    S    
C49   C50   A    
C36   C37   A    
Cu1   Cu2   S    
C32   H17   S    
C5    C27   S    
C48   H30   S    
Cu1   O7    S    
