data_mof_unit_45365.cif
_audit_creation_date              2012-10-26T20:36:03-0400
_audit_creation_method            fapswitch 2.2
_symmetry_space_group_name_H-M    P1
_symmetry_Int_Tables_number       1
_space_group_crystal_system       triclinic
_cell_length_a                    10.833428
_cell_length_b                    15.871116
_cell_length_c                    17.105939
_cell_angle_alpha                 95.213809
_cell_angle_beta                  92.386546
_cell_angle_gamma                 91.895912
_cell_volume                      2924.4519253

loop_
_atom_site_label
_atom_site_type_symbol
_atom_type_description
_atom_site_fract_x
_atom_site_fract_y
_atom_site_fract_z
_atom_type_partial_charge
C1    C     C_R   0.499245 0.490098 0.348782 0.555825
C2    C     C_R   0.511337 0.525934 0.902035 0.192394
C3    C     C_R   0.458594 0.402125 0.136603 0.024136
C4    C     C_R   0.541217 0.598231 0.863491 0.025083
C5    C     C_R   0.460504 0.408623 0.218840 -0.109883
C6    C     C_R   0.537113 0.592104 0.781217 -0.104735
C7    C     C_R   0.450408 0.750204 0.451851 0.154196
C8    C     C_R   0.564229 0.249216 0.540306 0.151543
C9    C     C_R   0.457837 0.839566 0.447993 -0.005181
C10   C     C_R   0.575948 0.159977 0.533461 0.013142
C11   C     C_R   0.519197 0.890595 0.511765 0.207822
C12   C     C_R   0.501352 0.509865 0.651254 0.554841
C13   C     C_R   0.498793 0.110098 0.477291 0.217279
C14   C     C_R   0.578855 0.849372 0.571343 -0.134042
C15   C     C_R   0.418763 0.151452 0.427816 -0.134563
C16   C     C_R   0.262632 0.500575 0.508695 0.536010
C17   C     C_R   0.736661 0.499377 0.489835 0.547847
C18   C     C_R   0.579492 0.760643 0.568041 0.011511
C19   C     C_R   0.413350 0.240093 0.434877 0.007618
C20   C     C_R   0.104642 0.343978 0.521651 -0.080575
C21   C     C_R   0.891792 0.655074 0.472698 -0.087844
C22   C     C_R   0.045577 0.266430 0.493555 -0.018660
C23   C     C_R   0.498714 0.484563 0.262924 -0.008698
C24   C     C_R   0.947662 0.732958 0.502185 -0.023364
C25   C     C_R   0.931723 0.267082 0.450179 0.057854
C26   C     C_R   0.063261 0.733456 0.543714 0.023425
C27   C     C_R   0.876458 0.345015 0.442793 -0.023053
C28   C     C_R   0.120847 0.656065 0.550475 -0.089473
C29   C     C_R   0.933588 0.422330 0.475505 -0.001926
C30   C     C_R   0.064765 0.577937 0.518540 -0.022160
C31   C     C_R   0.056452 0.422394 0.504739 0.003844
C32   C     C_R   0.941816 0.577327 0.489410 -0.000184
C33   C     C_R   0.871809 0.499521 0.478311 -0.035558
C34   C     C_R   0.503885 0.515154 0.737195 -0.016739
C35   C     C_R   0.126640 0.500444 0.517055 -0.033923
C36   C     C_2   0.125258 0.813191 0.580275 0.195830
C37   C     C_2   0.868695 0.187932 0.412903 0.207033
C38   C     C_3   0.678193 0.120677 0.580528 -0.239549
C39   C     C_3   0.640081 0.105779 0.663721 -0.303989
C40   C     C_3   0.744554 0.066980 0.709375 -0.438017
C41   C     C_3   0.393615 0.877793 0.378782 -0.236461
C42   C     C_3   0.267753 0.911544 0.400692 -0.295620
C43   C     C_3   0.201283 0.946484 0.330817 -0.457086
C44   C     C_3   0.109427 0.185397 0.508768 -0.273070
C45   C     C_R   0.537127 0.554304 0.224646 -0.126886
C46   C     C_3   0.044127 0.137797 0.570305 -0.299885
C47   C     C_3   0.116469 0.061581 0.591300 -0.439657
C48   C     C_3   0.875957 0.812298 0.492723 -0.270156
C49   C     C_3   0.929016 0.865161 0.430685 -0.315690
C50   C     C_3   0.843294 0.935841 0.412261 -0.428241
C51   C     C_2   0.417129 0.321261 0.091011 0.244673
C52   C     C_2   0.577120 0.680235 0.908980 0.244579
C53   C     C_2   0.637762 0.299843 0.603509 0.289363
C54   C     C_2   0.357652 0.699965 0.399678 0.284609
C55   C     C_R   0.473420 0.443836 0.775660 -0.164497
C56   C     C_R   0.535596 0.548909 0.143197 -0.087264
C57   C     C_R   0.477058 0.448890 0.857115 -0.089045
C58   C     C_R   0.495542 0.473077 0.098189 0.189514
Cu1   Cu    Cu3+1 0.493970 0.415220 0.496180 0.969009
Cu2   Cu    Cu3+1 0.506030 0.584780 0.503820 0.965082
H1    H     H_    0.625795 0.886405 0.620705 0.113632
H2    H     H_    0.569469 0.612909 0.257638 0.165380
H3    H     H_    0.452629 0.392222 0.884626 0.137290
H4    H     H_    0.566133 0.604312 0.115739 0.140511
H5    H     H_    0.430979 0.354524 0.248644 0.178649
H6    H     H_    0.560892 0.647374 0.751358 0.176756
H7    H     H_    0.077436 0.872041 0.583936 0.101747
H8    H     H_    0.913496 0.127957 0.411924 0.093981
H9    H     H_    0.769635 0.005695 0.678578 0.146558
H10   H     H_    0.827374 0.110665 0.715627 0.159708
H11   H     H_    0.714387 0.055604 0.768879 0.167992
H12   H     H_    0.361286 0.114911 0.382925 0.110289
H13   H     H_    0.616907 0.166558 0.696190 0.145852
H14   H     H_    0.556849 0.062726 0.661042 0.196419
H15   H     H_    0.707821 0.060891 0.549649 0.167695
H16   H     H_    0.762748 0.162200 0.584405 0.167853
H17   H     H_    0.260908 0.994687 0.306005 0.166947
H18   H     H_    0.176457 0.894468 0.284361 0.171586
H19   H     H_    0.115420 0.976782 0.350049 0.136616
H20   H     H_    0.210534 0.858742 0.420161 0.155343
H21   H     H_    0.278594 0.962176 0.449848 0.198259
H22   H     H_    0.453461 0.926128 0.354760 0.174904
H23   H     H_    0.628827 0.730719 0.613668 0.140418
H24   H     H_    0.379108 0.831151 0.326951 0.179339
H25   H     H_    0.124507 0.016686 0.538306 0.144752
H26   H     H_    0.210432 0.082001 0.615742 0.169529
H27   H     H_    0.067128 0.028640 0.636038 0.147241
H28   H     H_    0.034181 0.180943 0.624454 0.180920
H29   H     H_    0.950930 0.114687 0.547288 0.144944
H30   H     H_    0.115432 0.144297 0.453020 0.124882
H31   H     H_    0.206517 0.200240 0.530651 0.144473
H32   H     H_    0.750302 0.909364 0.391302 0.174020
H33   H     H_    0.834450 0.980162 0.465537 0.148216
H34   H     H_    0.352808 0.270678 0.395202 0.138040
H35   H     H_    0.882268 0.971496 0.365546 0.150563
H36   H     H_    0.019059 0.894562 0.452875 0.147676
H37   H     H_    0.942524 0.824121 0.375713 0.175820
H38   H     H_    0.778370 0.794366 0.474248 0.154173
H39   H     H_    0.872363 0.850860 0.550069 0.127215
H40   H     H_    0.414934 0.315550 0.027283 0.128231
H41   H     H_    0.580851 0.685699 0.972720 0.131128
H42   H     H_    0.597077 0.315951 0.659403 0.084628
H43   H     H_    0.269252 0.682604 0.421922 0.123630
H44   H     H_    0.187348 0.342278 0.558990 0.139512
H45   H     H_    0.808262 0.655856 0.435897 0.140664
H46   H     H_    0.790263 0.345363 0.408555 0.176276
H47   H     H_    0.206895 0.656955 0.584934 0.187596
H48   H     H_    0.445619 0.384176 0.742877 0.114989
N1    N     N_2   0.491336 0.465885 0.014793 -0.266568
N2    N     N_2   0.516166 0.533087 0.985456 -0.265247
N3    N     N_R   0.515100 0.712130 0.509560 -0.256028
N4    N     N_R   0.484900 0.287870 0.490440 -0.255513
N5    N     N_2   0.512379 0.981248 0.524185 -0.255265
N6    N     N_2   0.506510 0.020044 0.463731 -0.257103
O1    O     O_R   0.494360 0.420530 0.382500 -0.514361
O2    O     O_2   0.764964 0.188688 0.382194 -0.505176
O3    O     O_2   0.384815 0.259687 0.124078 -0.504715
O4    O     O_2   0.603081 0.743034 0.875814 -0.505611
O5    O     O_2   0.746633 0.318156 0.596076 -0.513391
O6    O     O_2   0.375877 0.682204 0.330290 -0.545087
O7    O     O_R   0.505640 0.579470 0.617500 -0.505680
O8    O     O_R   0.504550 0.563720 0.388950 -0.470722
O9    O     O_R   0.495450 0.436280 0.611050 -0.522892
O10   O     O_R   0.314560 0.428400 0.496770 -0.515951
O11   O     O_R   0.685440 0.571600 0.503230 -0.518434
O12   O     O_R   0.324750 0.571590 0.503220 -0.523666
O13   O     O_R   0.675250 0.428410 0.496780 -0.456354
O14   O     O_2   0.231669 0.814208 0.607019 -0.513467

loop_
_geom_bond_atom_site_label_1
_geom_bond_atom_site_label_2
_ccdc_geom_bond_type
Cu1   Cu2   S    
C42   H20   S    
C23   C45   A    
C40   H11   S    
C54   O6    D    
C27   C29   A    
C58   N1    S    
C41   C42   S    
C14   C18   A    
C36   H7    S    
C37   O2    D    
C38   H16   S    
C19   N4    A    
C43   H18   S    
C15   C19   A    
C15   H12   S    
C40   H10   S    
C30   C35   A    
C4    C52   S    
C47   H25   S    
Cu2   O11   S    
C24   C26   A    
Cu1   N4    S    
C8    N4    A    
C16   C35   S    
C38   C39   S    
C11   C14   A    
C50   H35   S    
C28   H47   S    
C43   H19   S    
C37   H8    S    
C29   C33   A    
C45   H2    S    
C51   H40   S    
C39   H14   S    
C1    O8    A    
C25   C37   S    
C22   C44   S    
C12   O7    A    
C45   C56   A    
C7    N3    A    
C22   C25   A    
C56   H4    S    
Cu1   O13   S    
C13   N6    S    
C34   C55   A    
C36   O14   D    
C42   H21   S    
C17   C33   S    
C44   C46   S    
C57   H3    S    
C46   H28   S    
C38   H15   S    
Cu1   O9    S    
C21   C32   A    
C52   H41   S    
C2    C57   A    
C40   H9    S    
C24   C48   S    
C47   H26   S    
C54   H43   S    
C18   N3    A    
C5    H5    S    
C39   C40   S    
C46   H29   S    
C3    C51   S    
C17   O13   A    
C27   H46   S    
C41   H24   S    
C6    C34   A    
C47   H27   S    
C2    C4    A    
C5    C23   A    
C53   H42   S    
C18   H23   S    
Cu2   O8    S    
C9    C11   A    
C19   H34   S    
C50   H32   S    
C48   C49   S    
C20   C22   A    
C1    C23   S    
C13   C15   A    
C31   C35   A    
C4    C6    A    
C25   C27   A    
C42   C43   S    
C12   C34   S    
C44   H30   S    
N5    N6    D    
C26   C36   S    
Cu1   O10   S    
C7    C9    A    
C48   H39   S    
C46   C47   S    
C2    N2    S    
C26   C28   A    
C8    C10   A    
C3    C5    A    
C10   C13   A    
C8    C53   S    
C53   O5    D    
C50   H33   S    
C20   H44   S    
C43   H17   S    
C48   H38   S    
C9    C41   S    
C55   H48   S    
C10   C38   S    
C32   C33   A    
C55   C57   A    
C16   O10   A    
C28   C30   A    
C29   C31   A    
Cu2   N3    S    
N1    N2    D    
C30   C32   A    
C14   H1    S    
C17   O11   A    
C12   O9    A    
C41   H22   S    
Cu2   O12   S    
C51   O3    D    
C56   C58   A    
C39   H13   S    
C49   H36   S    
Cu2   O7    S    
C11   N5    S    
C44   H31   S    
C49   H37   S    
C3    C58   A    
C6    H6    S    
Cu1   O1    S    
C49   C50   S    
C21   C24   A    
C1    O1    A    
C7    C54   S    
C16   O12   A    
C21   H45   S    
C20   C31   A    
C52   O4    D    
