data_mof_unit_46732.cif
_audit_creation_date              2012-12-10T18:50:53-0500
_audit_creation_method            fapswitch 2.2
_symmetry_space_group_name_H-M    P1
_symmetry_Int_Tables_number       1
_space_group_crystal_system       triclinic
_cell_length_a                    10.620961
_cell_length_b                    9.931411
_cell_length_c                    15.737244
_cell_angle_alpha                 89.919044
_cell_angle_beta                  91.013474
_cell_angle_gamma                 90.157829
_cell_volume                      1659.71473889

loop_
_atom_site_label
_atom_site_type_symbol
_atom_type_description
_atom_site_fract_x
_atom_site_fract_y
_atom_site_fract_z
_atom_type_partial_charge
C1    C     C_R   0.260622 0.499824 0.499482 0.871653
C2    C     C_R   0.938136 0.561258 0.566655 0.077838
C3    C     C_R   0.872355 0.499599 0.499055 -0.050477
C4    C     C_R   0.128670 0.499443 0.499263 -0.069444
C5    C     C_R   0.569471 0.073347 0.558703 0.150603
C6    C     C_R   0.567098 0.930044 0.560421 0.072725
C7    C     C_R   0.500125 0.500093 0.338583 0.895380
C8    C     C_R   0.432150 0.929785 0.439772 0.085662
C9    C     C_R   0.430223 0.073170 0.441326 0.150932
C10   C     C_R   0.739515 0.499995 0.499563 0.889672
C11   C     C_R   0.500643 0.499929 0.661489 0.909276
C12   C     C_3   0.652239 0.532543 0.950256 0.234217
C13   C     C_3   0.421772 0.618993 0.047618 0.094536
C14   C     C_3   0.465357 0.358002 0.048480 0.102869
C15   C     C_3   0.469052 0.361333 0.949003 -0.458264
C16   C     C_3   0.419188 0.607850 0.948482 -0.443038
C17   C     C_1   0.504940 0.499861 0.750237 -0.181908
C18   C     C_3   0.512719 0.502190 0.082961 0.151262
C19   C     C_3   0.514134 0.500839 0.917237 0.161869
C20   C     C_2   0.546114 0.243653 0.085720 0.455676
C21   C     C_2   0.463009 0.759112 0.078072 0.403202
C22   C     C_3   0.654678 0.530045 0.052572 0.077267
C23   C     C_1   0.509364 0.500147 0.825471 -0.006481
C24   C     C_1   0.508178 0.501178 0.174928 -0.141393
C25   C     C_1   0.504006 0.500453 0.250030 -0.213509
C26   C     C_R   0.064239 0.435879 0.432887 -0.173762
C27   C     C_R   0.067823 0.562437 0.565652 -0.235495
C28   C     C_R   0.934714 0.436576 0.431647 0.054663
H1    H     H_    0.323086 0.578006 0.925804 0.172060
H2    H     H_    0.385645 0.121370 0.319656 0.181507
H3    H     H_    0.289441 0.614955 0.144132 0.182032
H4    H     H_    0.233714 0.674758 0.051126 0.186833
H5    H     H_    0.268373 0.373734 0.035833 0.211212
H6    H     H_    0.316265 0.226075 0.070792 0.186147
H7    H     H_    0.554101 0.232835 0.154252 0.071464
H8    H     H_    0.485267 0.774457 0.144953 0.073750
H9    H     H_    0.796169 0.673306 0.070361 0.180747
H10   H     H_    0.702713 0.657197 0.153351 0.184755
H11   H     H_    0.739036 0.421455 0.151532 0.185362
H12   H     H_    0.374233 0.339774 0.920841 0.164121
H13   H     H_    0.833233 0.446885 0.069914 0.179032
H14   H     H_    0.786106 0.682073 0.926174 0.176449
H15   H     H_    0.641952 0.744062 0.944444 0.243894
H16   H     H_    0.725910 0.336358 0.940256 0.231041
H17   H     H_    0.832235 0.459520 0.925506 0.170545
H18   H     H_    0.815906 0.295063 0.382676 0.212377
H19   H     H_    0.807892 0.447732 0.333978 0.166075
H20   H     H_    0.902038 0.567128 0.692171 0.189777
H21   H     H_    0.902344 0.718721 0.643500 0.186879
H22   H     H_    0.737664 0.116981 0.614051 0.181282
H23   H     H_    0.527545 0.280612 0.921628 0.222227
H24   H     H_    0.613743 0.121555 0.680365 0.188376
H25   H     H_    0.686967 0.786489 0.603962 0.252937
H26   H     H_    0.568982 0.828466 0.671618 0.220595
H27   H     H_    0.435841 0.705646 0.916306 0.214153
H28   H     H_    0.114689 0.388256 0.381710 0.152893
H29   H     H_    0.120941 0.609575 0.617127 0.141681
H30   H     H_    0.307139 0.788202 0.397052 0.237187
H31   H     H_    0.427148 0.826077 0.329182 0.209081
H32   H     H_    0.261935 0.116558 0.386194 0.181354
N1    N     N_R   0.499970 0.857200 0.499980 -0.116245
N2    N     N_3   0.738458 0.431795 0.913932 -0.449234
N3    N     N_3   0.868967 0.376377 0.360842 -0.463723
N4    N     N_3   0.873440 0.618448 0.637099 -0.470517
N5    N     N_3   0.643883 0.146983 0.619511 -0.383407
N6    N     N_3   0.634005 0.864701 0.628209 -0.479293
N7    N     N_R   0.499970 0.142800 0.499980 -0.107127
N8    N     N_3   0.363484 0.864260 0.372636 -0.484824
N9    N     N_3   0.355811 0.146687 0.380531 -0.390544
N10   N     N_3   0.292410 0.601217 0.078282 -0.474019
N11   N     N_3   0.335471 0.329260 0.076122 -0.458303
N12   N     N_3   0.702103 0.659494 0.086925 -0.470177
N13   N     N_3   0.740195 0.423816 0.085123 -0.461506
N14   N     N_3   0.689850 0.665177 0.915859 -0.445463
O1    O     O_R   0.316750 0.614620 0.499990 -0.632454
O2    O     O_2   0.465959 0.856480 0.030645 -0.563551
O3    O     O_R   0.316750 0.385380 0.499990 -0.598982
O4    O     O_R   0.499990 0.614720 0.377140 -0.636864
O5    O     O_R   0.499990 0.385280 0.377140 -0.597936
O6    O     O_R   0.683220 0.614710 0.500000 -0.619669
O7    O     O_R   0.683220 0.385290 0.500000 -0.615056
O8    O     O_R   0.499980 0.614620 0.622860 -0.631663
O9    O     O_R   0.499980 0.385380 0.622860 -0.590795
O10   O     O_2   0.599513 0.161497 0.041402 -0.559863
Zn1   Zn    Zn3+2 0.499980 0.653120 0.500000 0.925909
Zn2   Zn    Zn3+2 0.499980 0.346880 0.500000 0.971949

loop_
_geom_bond_atom_site_label_1
_geom_bond_atom_site_label_2
_ccdc_geom_bond_type
C12   N14   S    
C1    O3    A    
C14   N11   S    
C14   C18   S    
C5    N7    A    
C4    C27   A    
C21   H8    S    
C15   C19   S    
C21   O2    D    
C17   C23   T    
C13   C18   S    
C18   C24   S    
C6    N1    A    
C3    C28   A    
C9    N9    S    
H19   N3    S    
C5    C6    A    
H20   N4    S    
C13   N10   S    
C12   C22   S    
H17   N2    S    
C20   H7    S    
O1    Zn1   S    
H3    N10   S    
C8    C9    A    
C2    C27   A    
C15   H23   S    
O7    Zn2   S    
C8    N1    A    
H15   N14   S    
H21   N4    S    
C22   N12   S    
C2    N4    S    
C11   O8    A    
H10   N12   S    
H14   N14   S    
C1    O1    A    
C14   C20   S    
C24   C25   T    
C5    N5    S    
C27   H29   S    
C10   O6    A    
H4    N10   S    
H16   N2    S    
C16   H1    S    
C19   C23   S    
C9    N7    A    
O6    Zn1   S    
H31   N8    S    
C12   N2    S    
C13   C21   S    
H25   N6    S    
N1    Zn1   S    
C7    O4    A    
O4    Zn1   S    
H30   N8    S    
O3    Zn2   S    
C8    N8    S    
C20   O10   D    
H9    N12   S    
H2    N9    S    
C7    O5    A    
C11   C17   S    
N7    Zn2   S    
C18   C22   S    
C26   H28   S    
C4    C26   A    
H26   N6    S    
O8    Zn1   S    
C10   O7    A    
C26   C28   A    
C7    C25   S    
H18   N3    S    
C1    C4    S    
C11   O9    A    
C2    C3    A    
C16   H27   S    
C3    C10   S    
H32   N9    S    
C16   C19   S    
C12   C19   S    
H11   N13   S    
H22   N5    S    
C15   H12   S    
H5    N11   S    
H13   N13   S    
C28   N3    S    
C6    N6    S    
O9    Zn2   S    
C13   C16   S    
C14   C15   S    
C22   N13   S    
H6    N11   S    
O5    Zn2   S    
H24   N5    S    
