data_mof_unit_11909.cif
_audit_creation_date              2012-12-10T17:33:46-0500
_audit_creation_method            fapswitch 2.2
_symmetry_space_group_name_H-M    P1
_symmetry_Int_Tables_number       1
_space_group_crystal_system       triclinic
_cell_length_a                    11.693472
_cell_length_b                    12.338386
_cell_length_c                    13.150359
_cell_angle_alpha                 116.57479
_cell_angle_beta                  77.938924
_cell_angle_gamma                 101.090915
_cell_volume                      1648.76752191

loop_
_atom_site_label
_atom_site_type_symbol
_atom_type_description
_atom_site_fract_x
_atom_site_fract_y
_atom_site_fract_z
_atom_type_partial_charge
C1    C     C_R   0.511032 0.854889 0.286389 0.766704
C2    C     C_R   0.458763 0.227734 0.834559 -0.135095
C3    C     C_R   0.590747 0.815150 0.085046 -0.188192
C4    C     C_R   0.611884 0.736880 0.969552 -0.183429
C5    C     C_R   0.569207 0.614016 0.931458 -0.069886
C6    C     C_R   0.502197 0.566768 0.008662 0.091403
C7    C     C_R   0.465815 0.650730 0.122509 0.069830
C8    C     C_R   0.464644 0.440063 0.975364 -0.007244
C9    C     C_R   0.374638 0.403243 0.048514 0.110055
C10   C     C_R   0.328960 0.489589 0.154299 -0.207360
C11   C     C_R   0.374198 0.611232 0.191227 -0.184636
C12   C     C_R   0.715688 0.999797 0.500131 0.811642
C13   C     C_R   0.514467 0.347762 0.873164 0.405671
C14   C     C_R   0.368795 0.193505 0.906548 -0.268188
C15   C     C_R   0.519396 0.773128 0.163014 -0.101564
C16   C     C_R   0.694722 0.352895 0.339414 -0.302956
C17   C     C_R   0.344868 0.763811 0.648078 0.003687
C18   C     C_R   0.318735 0.676758 0.691486 -0.272297
C19   C     C_R   0.381616 0.575790 0.644192 0.360662
C20   C     C_R   0.467505 0.556711 0.544764 -0.095230
C21   C     C_R   0.496132 0.653965 0.508821 0.239663
C22   C     C_R   0.530196 0.450327 0.482119 -0.017555
C23   C     C_R   0.483499 0.144970 0.713380 0.845122
C24   C     C_R   0.627966 0.451683 0.397714 0.169987
C25   C     C_R   0.657546 0.550301 0.369728 -0.279463
C26   C     C_R   0.591378 0.647498 0.421900 -0.149953
C27   C     C_R   0.498322 0.339698 0.494432 0.090928
C28   C     C_R   0.663528 0.251255 0.362624 0.071274
C29   C     C_R   0.284265 0.000461 0.500249 0.816415
C30   C     C_1   0.837306 0.999660 0.500571 -0.187504
C31   C     C_1   0.939913 0.000125 0.500697 -0.002776
C32   C     C_1   0.059935 0.000784 0.500572 0.002420
C33   C     C_1   0.162575 0.000997 0.500375 -0.171550
C34   C     C_R   0.329335 0.280300 0.014411 -0.189602
Cu1   Cu    Cu3+1 0.526510 0.098270 0.475420 0.972182
Cu2   Cu    Cu3+1 0.473490 0.901730 0.524580 0.925074
H1    H     H_    0.326280 0.100694 0.877875 0.167487
H2    H     H_    0.731349 0.551220 0.304474 0.148251
H3    H     H_    0.770517 0.354333 0.276259 0.136255
H4    H     H_    0.417575 0.323023 0.544018 0.189294
H5    H     H_    0.297705 0.843387 0.688371 0.146921
H6    H     H_    0.252757 0.691334 0.766304 0.181204
H7    H     H_    0.619765 0.717167 0.392499 0.203953
H8    H     H_    0.258282 0.462847 0.209388 0.142312
H9    H     H_    0.259655 0.252160 0.069293 0.145630
H10   H     H_    0.631080 0.908737 0.113463 0.154210
H11   H     H_    0.584917 0.559637 0.840168 0.224503
H12   H     H_    0.663708 0.771092 0.909347 0.149789
H13   H     H_    0.332292 0.674296 0.272200 0.172182
H14   H     H_    0.715604 0.175316 0.319382 0.123697
N1    N     N_R   0.566700 0.246290 0.438210 -0.194393
N2    N     N_R   0.434010 0.754320 0.561170 -0.200442
O1    O     O_R   0.533340 0.972510 0.318140 -0.582318
O2    O     O_R   0.488570 0.806530 0.359650 -0.605149
O3    O     O_R   0.685190 0.083000 0.479260 -0.574215
O4    O     O_R   0.640410 0.917020 0.520770 -0.588789
O5    O     O_R   0.511430 0.193470 0.640350 -0.513273
O6    O     O_R   0.466660 0.027490 0.681860 -0.601021
O7    O     O_R   0.359590 0.082980 0.479230 -0.577487
O8    O     O_R   0.314810 0.917000 0.520740 -0.587396
Cl1   Cl    Cl    0.361079 0.494776 0.729513 -0.688254
O9    O     O_3   0.618096 0.372194 0.809959 -0.584808
C35   C     C_3   0.713023 0.352143 0.847938 0.023060
H15   H     H_    0.703940 0.256598 0.838516 0.134736
H16   H     H_    0.718949 0.416735 0.939375 0.144295
C36   C     C_3   0.826897 0.373186 0.775228 -0.732459
H17   H     H_    0.839424 0.468233 0.783606 0.244460
H18   H     H_    0.902538 0.358030 0.804343 0.204755
H19   H     H_    0.823888 0.308809 0.683608 0.254771

loop_
_geom_bond_atom_site_label_1
_geom_bond_atom_site_label_2
_ccdc_geom_bond_type
C16   C28   A    
C23   O6    A    
C36   H18   S    
C1    O2    A    
C35   H16   S    
C14   C34   A    
C6    C7    A    
Cu2   O4    S    
C25   H2    S    
Cu1   O1    S    
C9    C10   A    
C9    C34   A    
C3    H10   S    
C31   C32   S    
C19   C20   A    
Cu2   N2    S    
C29   O8    A    
C27   H4    S    
Cu1   O5    S    
C32   C33   T    
C7    C15   A    
C17   C18   A    
C35   C36   S    
C16   C24   A    
C34   H9    S    
C12   O4    A    
C24   C25   A    
C14   H1    S    
C7    C11   A    
C5    H11   S    
C30   C31   T    
O9    C35   S    
C28   H14   S    
C19   Cl1   S    
C1    C15   S    
C6    C8    A    
C17   N2    A    
C21   C26   A    
C27   N1    A    
C26   H7    S    
C36   H17   S    
Cu2   O6    S    
C22   C27   A    
C18   H6    S    
Cu1   N1    S    
C5    C6    A    
C2    C14   A    
C28   N1    A    
C22   C24   A    
C17   H5    S    
Cu2   O2    S    
C10   C11   A    
C16   H3    S    
C10   H8    S    
C3    C4    A    
C36   H19   S    
C8    C13   A    
C29   C33   S    
C12   O3    A    
C3    C15   A    
C20   C21   A    
Cu1   O7    S    
C18   C19   A    
C4    H12   S    
C2    C23   S    
C23   O5    A    
C2    C13   A    
C1    O1    A    
C8    C9    A    
C11   H13   S    
C12   C30   S    
C25   C26   A    
C35   H15   S    
Cu1   O3    S    
C21   N2    A    
C13   O9    S    
C29   O7    A    
C20   C22   A    
C4    C5    A    
Cu2   O8    S    
Cu1   Cu2   S    
