data_mof_unit_20871.cif
_audit_creation_date              2013-03-05T16:07:26-0500
_audit_creation_method            fapswitch 2.2
_symmetry_space_group_name_H-M    P1
_symmetry_Int_Tables_number       1
_space_group_crystal_system       triclinic
_cell_length_a                    19.380451
_cell_length_b                    7.102468
_cell_length_c                    17.591388
_cell_angle_alpha                 90.000545
_cell_angle_beta                  108.526303
_cell_angle_gamma                 90.000717
_cell_volume                      2295.95354239

loop_
_atom_site_label
_atom_site_type_symbol
_atom_site_description
_atom_site_fract_x
_atom_site_fract_y
_atom_site_fract_z
_atom_type_partial_charge
O1    O     O_R   0.413720 0.494330 0.415730 -0.588757
O2    O     O_R   0.586280 0.994330 0.584270 -0.588757
O3    O     O_R   0.560210 0.819300 0.430070 -0.602980
O4    O     O_R   0.439790 0.319300 0.569930 -0.602975
C1    C     C_R   0.581775 0.655420 0.414821 0.958959
C2    C     C_R   0.418225 0.155419 0.585179 0.958957
O5    O     O_R   0.412670 0.823730 0.406310 -0.594105
O6    O     O_R   0.587330 0.323730 0.593690 -0.594106
O7    O     O_R   0.437690 0.998790 0.560340 -0.593302
O8    O     O_R   0.562310 0.498790 0.439660 -0.593305
C3    C     C_R   0.385356 0.655204 0.383500 0.939869
C4    C     C_R   0.614644 0.155206 0.616500 0.939867
O9    O     O_3   0.508380 0.662350 0.550560 -0.286091
O10   O     O_3   0.491620 0.162350 0.449440 -0.286093
V1    V     V_3+5 0.498450 0.935370 0.490620 1.147498
V2    V     V_3+5 0.501550 0.435370 0.509380 1.147500
C5    C     C_R   0.734137 0.999421 0.689629 0.162468
C6    C     C_R   0.265862 0.499418 0.310368 0.162462
C7    C     C_R   0.684760 0.147582 0.682739 -0.208334
C8    C     C_R   0.315241 0.647578 0.317261 -0.208336
C9    C     C_R   0.706831 0.295738 0.738633 -0.178050
C10   C     C_R   0.293171 0.795737 0.261370 -0.178046
C11   C     C_R   0.772192 0.283896 0.803348 -0.067653
C12   C     C_R   0.227809 0.783899 0.196656 -0.067666
H1    H     H_    0.785197 0.395948 0.847309 0.121667
H2    H     H_    0.214805 0.895952 0.152697 0.121667
C13   C     C_R   0.817969 0.124610 0.813658 -0.252726
C14   C     C_R   0.182030 0.624614 0.186343 -0.252719
C15   C     C_R   0.799231 0.989282 0.752615 0.116065
C16   C     C_R   0.200767 0.489282 0.247383 0.116065
C17   C     C_3   0.795515 0.779535 0.755501 0.184696
C18   C     C_3   0.204480 0.279535 0.244492 0.184701
C19   C     C_3   0.723683 0.791008 0.686858 -0.595501
C20   C     C_3   0.276314 0.291005 0.313134 -0.595509
H3    H     H_    0.790316 0.725133 0.812713 0.053173
H4    H     H_    0.209678 0.225138 0.187278 0.053174
H5    H     H_    0.675871 0.748952 0.704881 0.176337
H6    H     H_    0.324124 0.248954 0.295108 0.176334
H7    H     H_    0.725190 0.729198 0.629340 0.231569
H8    H     H_    0.274808 0.229190 0.370651 0.231570
C21   C     C_R   0.322514 0.301996 0.633964 -0.228576
C22   C     C_R   0.677471 0.802017 0.366016 -0.228599
C23   C     C_R   0.368357 0.148141 0.633920 -0.144800
C24   C     C_R   0.631643 0.648142 0.366079 -0.144796
C25   C     C_R   0.366042 0.988320 0.680319 -0.255795
C26   C     C_R   0.633973 0.488302 0.319700 -0.255798
C27   C     C_R   0.319471 0.982794 0.727331 0.158645
C28   C     C_R   0.680541 0.482780 0.272684 0.158642
C29   C     C_R   0.273275 0.137120 0.726483 0.033115
C30   C     C_R   0.726725 0.637120 0.273517 0.033141
C31   C     C_R   0.274498 0.296686 0.679175 0.140083
C32   C     C_R   0.725491 0.796701 0.320811 0.140077
C33   C     C_R   0.318428 0.825968 0.775470 -0.222683
C34   C     C_R   0.681592 0.325944 0.224554 -0.222710
C35   C     C_R   0.271490 0.820922 0.821658 -0.220564
C36   C     C_R   0.728529 0.320898 0.178366 -0.220588
C37   C     C_R   0.224642 0.972440 0.820426 0.155316
C38   C     C_R   0.775369 0.472425 0.179589 0.155309
C39   C     C_R   0.225790 0.131902 0.773041 0.033451
C40   C     C_R   0.774210 0.631902 0.226959 0.033475
C41   C     C_R   0.179584 0.286197 0.772190 0.131128
C42   C     C_R   0.820405 0.786211 0.227796 0.131125
C43   C     C_R   0.180572 0.442942 0.723978 -0.186893
C44   C     C_R   0.819409 0.942966 0.275998 -0.186916
C45   C     C_R   0.227570 0.448081 0.677850 -0.188824
C46   C     C_R   0.772411 0.948106 0.322126 -0.188846
C47   C     C_R   0.176843 0.967394 0.865884 -0.246803
C48   C     C_R   0.823173 0.467373 0.134136 -0.246806
C49   C     C_R   0.131039 0.121296 0.866041 -0.138676
C50   C     C_R   0.868962 0.621295 0.133960 -0.138675
C51   C     C_R   0.133119 0.280807 0.819338 -0.221478
C52   C     C_R   0.866866 0.780825 0.180644 -0.221493
H9    H     H_    0.401344 0.869544 0.680858 0.137839
H10   H     H_    0.598686 0.369506 0.319178 0.137849
H11   H     H_    0.353718 0.706622 0.777145 0.139047
H12   H     H_    0.646310 0.206587 0.222891 0.139058
H13   H     H_    0.271568 0.697807 0.858072 0.137892
H14   H     H_    0.728459 0.197773 0.141962 0.137905
H15   H     H_    0.176092 0.844434 0.902155 0.132131
H16   H     H_    0.823937 0.344395 0.097883 0.132145
H17   H     H_    0.097790 0.399567 0.818729 0.161278
H18   H     H_    0.902180 0.899604 0.181236 0.161273
H19   H     H_    0.145254 0.562245 0.722272 0.158384
H20   H     H_    0.854718 0.062280 0.277693 0.158389
H21   H     H_    0.227508 0.571214 0.641452 0.152633
H22   H     H_    0.772465 0.071249 0.358514 0.152643
O11   O     O_R   0.937800 0.775460 0.060470 -0.596430
O12   O     O_R   0.062200 0.275460 0.939530 -0.596430
O13   O     O_R   0.087350 0.441340 0.093710 -0.597005
O14   O     O_R   0.912650 0.941340 0.906290 -0.597003
C53   C     C_R   0.114738 0.610396 0.116433 0.940161
C54   C     C_R   0.885261 0.110394 0.883567 0.940159
O15   O     O_R   0.939820 0.446010 0.069950 -0.596065
O16   O     O_R   0.060180 0.946010 0.930050 -0.596057
O17   O     O_R   0.913690 0.271230 0.915700 -0.570112
O18   O     O_R   0.086310 0.771230 0.084300 -0.570109
C55   C     C_R   0.918571 0.614262 0.084848 0.946154
C56   C     C_R   0.081429 0.114262 0.915152 0.946150
O19   O     O_3   0.991670 0.603050 0.949510 -0.253547
O20   O     O_3   0.008330 0.103050 0.050490 -0.253545
V3    V     V_3+5 0.001550 0.329940 0.009370 1.211311
V4    V     V_3+5 0.998450 0.829940 0.990630 1.211318
H23   H     H_    0.671871 0.416442 0.734872 0.129732
H24   H     H_    0.328133 0.916442 0.265132 0.129737
N1    N     N_R   0.853838 0.690253 0.732144 0.262270
O21   O     O_R   0.893194 0.559094 0.777003 -0.377951
O22   O     O_R   0.868641 0.744644 0.668340 -0.379886
N2    N     N_R   0.146158 0.190249 0.267849 0.262269
O23   O     O_R   0.106799 0.059093 0.222988 -0.377946
O24   O     O_R   0.131359 0.244630 0.331658 -0.379887
H25   H     H_    0.323453 0.425082 0.597829 0.140734
H26   H     H_    0.676517 0.925122 0.402133 0.140739

loop_
_geom_bond_atom_site_label_1
_geom_bond_atom_site_label_2
_geom_bond_distance
_ccdc_geom_bond_type
C48   H16   1.084359 S    
C43   C45   1.399666 A    
O18   V4    2.001373 S    
C13   C15   1.400349 A    
C5    C15   1.391440 A    
C33   C35   1.399520 A    
O1    C3    1.315729 A    
O2    C4    1.315723 A    
C2    O7    1.294424 A    
O12   V3    1.989587 S    
C36   H14   1.083641 S    
C27   C29   1.412355 A    
C28   C34   1.403218 A    
N1    O22   1.302305 A    
C19   H7    1.111822 S    
C5    C19   1.492737 S    
C20   H8    1.111823 S    
C18   H4    1.112131 S    
C25   H9    1.084320 S    
C7    C9    1.410579 A    
C12   H2    1.082154 S    
C35   H13   1.083666 S    
C37   C39   1.410621 A    
O16   C56   1.317155 A    
C38   C40   1.410587 A    
C10   H24   1.081642 S    
N2    O23   1.299933 A    
C40   C42   1.412263 A    
C31   C45   1.403743 A    
C49   C51   1.407538 A    
C22   H26   1.084413 S    
O14   V4    2.006137 S    
C42   C44   1.403320 A    
C53   O18   1.315324 A    
C44   H20   1.083668 S    
C36   C38   1.403692 A    
C29   C31   1.410712 A    
C30   C32   1.410677 A    
C17   C19   1.527925 S    
C6    C16   1.391441 A    
C11   C13   1.413375 A    
O13   C53   1.322267 A    
C6    C8    1.401469 A    
C50   C55   1.483621 S    
C27   C33   1.403247 A    
C49   C56   1.483621 S    
C41   C51   1.405320 A    
C28   C30   1.412322 A    
O6    V2    2.006328 S    
C21   C23   1.408517 A    
C33   H11   1.083684 S    
C22   C24   1.408486 A    
C37   C47   1.403461 A    
C24   C26   1.407088 A    
C26   C28   1.405154 A    
C25   C27   1.405157 A    
C34   C36   1.399518 A    
C3    C8    1.483573 S    
C39   C41   1.412295 A    
C47   H15   1.084389 S    
O4    C2    1.293311 A    
O15   V3    2.014142 S    
O5    V1    2.006299 S    
C54   O17   1.315317 A    
C19   H5    1.111322 S    
C43   H19   1.083693 S    
C47   C49   1.408703 A    
C18   C20   1.527923 S    
O4    V2    2.014204 S    
O5    C3    1.318682 A    
O11   V4    1.989588 S    
C23   C25   1.407123 A    
O14   C54   1.322273 A    
O6    C4    1.318687 A    
O20   V4    2.186318 S    
C42   C52   1.405315 A    
C13   C54   1.484662 S    
O1    V2    2.001206 S    
O2    V1    2.001191 S    
C6    C20   1.492734 S    
C44   C46   1.399666 A    
C34   H12   1.083660 S    
C38   C48   1.403457 A    
O19   V3    2.186339 S    
C1    C24   1.482760 S    
C8    C10   1.410582 A    
C2    C23   1.482756 S    
C35   C37   1.403721 A    
C21   H25   1.084442 S    
C17   H3    1.112132 S    
O15   C55   1.317158 A    
C26   H10   1.084289 S    
C32   C46   1.403714 A    
O13   V3    2.006107 S    
C20   H6    1.111324 S    
C18   N2    1.464129 S    
C41   C43   1.403351 A    
C12   C14   1.413372 A    
O3    C1    1.293313 A    
C46   H22   1.083638 S    
C45   H21   1.083664 S    
N1    O21   1.299934 A    
C29   C39   1.413524 A    
C30   C40   1.413524 A    
C9    C11   1.411125 A    
O7    V1    2.002886 S    
C1    O8    1.294426 A    
C15   C17   1.493103 S    
O8    V2    2.002885 S    
C16   C18   1.493103 S    
C4    C7    1.483575 S    
C14   C16   1.400354 A    
O20   V3    1.754139 S    
C5    C7    1.401472 A    
N2    O24   1.302307 A    
C14   C53   1.484659 S    
C10   C12   1.411122 A    
C11   H1    1.082154 S    
O12   C56   1.317251 A    
C9    H23   1.081642 S    
O19   V4    1.754122 S    
O16   V4    2.014138 S    
C48   C50   1.408674 A    
C17   N1    1.464126 S    
O9    V2    1.755066 S    
O10   V1    1.755082 S    
O3    V1    2.014206 S    
C50   C52   1.407507 A    
O11   C55   1.317254 A    
C21   C31   1.403646 A    
C52   H18   1.084295 S    
O17   V3    2.001357 S    
C22   C32   1.403644 A    
C51   H17   1.084324 S    
