data_mof_unit_50886.cif
_audit_creation_date              2012-12-11T17:09:29-0500
_audit_creation_method            fapswitch 2.2
_symmetry_space_group_name_H-M    P1
_symmetry_Int_Tables_number       1
_space_group_crystal_system       triclinic
_cell_length_a                    14.828594
_cell_length_b                    6.957001
_cell_length_c                    13.505087
_cell_angle_alpha                 89.833071
_cell_angle_beta                  99.821576
_cell_angle_gamma                 90.090323
_cell_volume                      1372.79307989

loop_
_atom_site_label
_atom_site_type_symbol
_atom_type_description
_atom_site_fract_x
_atom_site_fract_y
_atom_site_fract_z
_atom_type_partial_charge
O1    O     O_R   0.586930 0.505770 0.416350 -0.541938
O2    O     O_R   0.413070 0.005770 0.583650 -0.534440
O3    O     O_R   0.397900 0.173100 0.389630 -0.537908
O4    O     O_R   0.602100 0.673100 0.610370 -0.536973
C1    C     C_R   0.364254 0.345439 0.363007 0.728812
C2    C     C_R   0.635520 0.845382 0.637319 0.724157
O5    O     O_R   0.585280 0.175870 0.404330 -0.544586
O6    O     O_R   0.414720 0.675870 0.595670 -0.540710
O7    O     O_R   0.601790 0.008380 0.598460 -0.533524
O8    O     O_R   0.398210 0.508380 0.401540 -0.531973
C3    C     C_R   0.615969 0.344705 0.384845 0.699833
C4    C     C_R   0.386805 0.845088 0.618780 0.714566
O9    O     O_3   0.505200 0.340120 0.563670 -0.356007
O10   O     O_3   0.494800 0.840120 0.436330 -0.370977
V1    V     V_3+5 0.499040 0.064180 0.488190 1.459732
V2    V     V_3+5 0.500960 0.564180 0.511810 1.464968
C5    C     C_R   0.257929 0.012064 0.682514 -0.004782
C6    C     C_R   0.667022 0.448344 0.225755 -0.029260
C7    C     C_R   0.318658 0.856210 0.687326 -0.092000
C8    C     C_R   0.684855 0.352748 0.317693 -0.083734
C9    C     C_R   0.318308 0.722359 0.765732 -0.237189
C10   C     C_R   0.768587 0.253420 0.340542 -0.206823
H1    H     H_    0.373627 0.620771 0.781859 0.143460
H2    H     H_    0.783715 0.172341 0.410068 0.116673
C11   C     C_R   0.254791 0.737268 0.832362 -0.051716
C12   C     C_R   0.835710 0.269177 0.277516 -0.001670
C13   C     C_R   0.185583 0.878357 0.817549 -0.103631
C14   C     C_R   0.817582 0.375939 0.186203 -0.137696
C15   C     C_R   0.193166 0.022364 0.747335 -0.023292
C16   C     C_R   0.728853 0.451507 0.158840 -0.037174
C17   C     C_3   0.215452 0.229040 0.770846 0.303419
C18   C     C_3   0.692421 0.644557 0.117953 0.317995
C19   C     C_3   0.281275 0.222636 0.694328 -0.322184
C20   C     C_3   0.630320 0.644139 0.198468 -0.300304
H3    H     H_    0.256434 0.301669 0.623135 0.112414
H4    H     H_    0.650077 0.748507 0.260800 0.114451
C21   C     C_1   0.783207 0.877259 0.783221 -0.166239
C22   C     C_1   0.216004 0.377135 0.217784 -0.149462
C23   C     C_1   0.715923 0.860115 0.717162 -0.175505
C24   C     C_1   0.283460 0.360207 0.283660 -0.154239
O11   O     O_R   0.101720 0.231700 0.098560 -0.536570
O12   O     O_R   0.898280 0.731700 0.901440 -0.536395
O13   O     O_R   0.914700 0.558980 0.095690 -0.539766
O14   O     O_R   0.085300 0.058980 0.904310 -0.527385
C25   C     C_R   0.885457 0.389640 0.117168 0.684266
C26   C     C_R   0.115159 0.890257 0.883641 0.698769
O15   O     O_R   0.102080 0.561590 0.110390 -0.536189
O16   O     O_R   0.897920 0.061590 0.889610 -0.543217
O17   O     O_R   0.086950 0.728940 0.916330 -0.533644
O18   O     O_R   0.913050 0.228940 0.083670 -0.523387
C27   C     C_R   0.135655 0.391839 0.137862 0.771778
C28   C     C_R   0.863817 0.892010 0.862780 0.743954
O19   O     O_3   0.994770 0.394510 0.936380 -0.365652
O20   O     O_3   0.005230 0.894510 0.063620 -0.360751
V3    V     V_3+5 0.000970 0.670520 0.011800 1.522827
V4    V     V_3+5 0.999030 0.170520 0.988200 1.522308
C29   C     C_1   0.274164 0.644022 0.928701 0.373809
N1    N     N_1   0.287874 0.574452 0.007578 -0.333208
C30   C     C_1   0.924147 0.182228 0.310510 0.323169
N2    N     N_1   0.995041 0.112593 0.336849 -0.358346
O21   O     O_3   0.248416 0.264704 0.875381 -0.551224
C31   C     C_3   0.330793 0.172953 0.921206 0.114386
H5    H     H_    0.387362 0.279523 0.929578 0.141870
H6    H     H_    0.351077 0.049298 0.879137 0.124219
C32   C     C_3   0.322634 0.103924 0.026497 -0.661799
H7    H     H_    0.261566 0.011448 0.024857 0.206487
H8    H     H_    0.384515 0.020262 0.058534 0.190406
H9    H     H_    0.317318 0.227739 0.076393 0.231397
O22   O     O_3   0.644949 0.654467 0.016477 -0.561321
C33   C     C_3   0.607583 0.479088 0.974308 0.116099
H10   H     H_    0.542338 0.513606 0.923886 0.154624
H11   H     H_    0.589230 0.374452 0.029932 0.116653
C34   C     C_3   0.671526 0.387652 0.910704 -0.673036
H12   H     H_    0.737564 0.348579 0.957955 0.198163
H13   H     H_    0.639718 0.255201 0.874537 0.199261
H14   H     H_    0.684601 0.489575 0.851299 0.223686
C35   C     C_1   0.135020 0.350134 0.735704 0.333268
N3    N     N_1   0.071770 0.445436 0.708122 -0.367731
C36   C     C_1   0.761986 0.795767 0.135191 0.305403
N4    N     N_1   0.817460 0.913750 0.148136 -0.343084
C37   C     C_1   0.378926 0.263027 0.730576 0.350305
N5    N     N_1   0.455831 0.292991 0.758694 -0.397525
C38   C     C_1   0.531422 0.641521 0.162378 0.366880
N6    N     N_1   0.453261 0.640165 0.135243 -0.358299

loop_
_geom_bond_atom_site_label_1
_geom_bond_atom_site_label_2
_ccdc_geom_bond_type
C22   C24   T    
C13   C15   A    
C5    C15   A    
C34   H12   S    
C17   O21   S    
O1    C3    A    
O2    C4    A    
C2    O7    A    
C37   N5    T    
C35   N3    T    
O5    C3    A    
C26   O17   A    
C5    C19   S    
C10   H2    S    
C7    C9    A    
C31   H6    S    
C19   H3    S    
C32   H8    S    
C17   C19   S    
C33   H10   S    
C6    C16   A    
C12   C30   S    
C20   H4    S    
O5    V1    S    
C30   N2    T    
O6    V2    S    
C34   H13   S    
O21   C31   S    
C11   C29   S    
O14   C26   A    
C17   C35   S    
O19   V3    S    
C3    C8    S    
O20   V4    S    
C14   C25   S    
O4    C2    A    
C21   C28   S    
O15   C27   A    
C22   C27   S    
O17   V3    S    
O18   V4    S    
C18   C20   S    
O4    V2    S    
O11   V4    S    
C31   H5    S    
O12   V3    S    
C6    C20   S    
O14   V4    S    
C38   N6    T    
O6    C4    A    
C32   H9    S    
C33   C34   S    
O1    V2    S    
O2    V1    S    
O13   C25   A    
C13   C26   S    
O13   V3    S    
C8    C10   A    
O9    V1    S    
C34   H14   S    
O10   V2    S    
O9    V2    S    
C20   C38   S    
O3    V1    S    
O15   V3    S    
O19   V4    S    
O16   V4    S    
C9    C11   A    
O20   V3    S    
C31   C32   S    
C2    C23   S    
O3    C1    A    
C18   O22   S    
C11   C13   A    
C12   C14   A    
C9    H1    S    
O7    V1    S    
C1    O8    A    
C21   C23   T    
O8    V2    S    
C18   C36   S    
C16   C18   S    
C29   N1    T    
C25   O18   A    
C4    C7    S    
C14   C16   A    
C5    C7    A    
C6    C8    A    
O22   C33   S    
C36   N4    T    
O16   C28   A    
C15   C17   S    
C32   H7    S    
C10   C12   A    
C1    C24   S    
O10   V1    S    
C33   H11   S    
C19   C37   S    
O11   C27   A    
O12   C28   A    
