data_mof_unit_54792.cif
_audit_creation_date              2012-12-10T20:46:51-0500
_audit_creation_method            fapswitch 2.2
_symmetry_space_group_name_H-M    P1
_symmetry_Int_Tables_number       1
_space_group_crystal_system       triclinic
_cell_length_a                    12.912328
_cell_length_b                    8.936577
_cell_length_c                    8.100525
_cell_angle_alpha                 90.004214
_cell_angle_beta                  97.88734
_cell_angle_gamma                 90.020328
_cell_volume                      925.893043795

loop_
_atom_site_label
_atom_site_type_symbol
_atom_type_description
_atom_site_fract_x
_atom_site_fract_y
_atom_site_fract_z
_atom_type_partial_charge
C1    C     C_R   0.500006 0.217959 0.499996 0.933891
C2    C     C_R   0.875291 0.445683 0.705841 0.377358
C3    C     C_R   0.136603 0.463472 0.580560 -0.256443
C4    C     C_R   0.863397 0.536528 0.419440 -0.256443
C5    C     C_R   0.030014 0.474679 0.573781 0.102275
C6    C     C_R   0.969986 0.525321 0.426218 0.102275
C7    C     C_1   0.500004 0.065178 0.499994 -0.157792
C8    C     C_1   0.499996 0.934822 0.500006 -0.157793
C9    C     C_R   0.499994 0.782041 0.500004 0.933892
C10   C     C_R   0.297307 0.501827 0.466185 0.916977
C11   C     C_R   0.702693 0.498173 0.533815 0.916976
C12   C     C_R   0.815261 0.494814 0.556607 -0.153646
C13   C     C_R   0.184739 0.505185 0.443393 -0.153646
C14   C     C_R   0.017066 0.563474 0.286932 -0.187997
C15   C     C_R   0.982934 0.436526 0.713067 -0.187997
C16   C     C_R   0.124709 0.554317 0.294159 0.377358
Cl1   Cl    Cl    0.821170 0.388221 0.884097 -0.603400
Cl2   Cl    Cl    0.178830 0.611779 0.115903 -0.603400
H1    H     H_    0.817704 0.576533 0.305500 0.199192
H2    H     H_    0.182296 0.423467 0.694500 0.199192
H3    H     H_    0.970401 0.602015 0.173367 0.197564
H4    H     H_    0.029599 0.397985 0.826633 0.197564
N1    N     N_1   0.500020 0.500000 0.073640 0.002316
N2    N     N_1   0.499980 0.500000 0.926360 0.002316
O1    O     O_R   0.499990 0.285340 0.636850 -0.609502
O2    O     O_R   0.500010 0.714660 0.363150 -0.609502
O3    O     O_R   0.500010 0.285340 0.363150 -0.615863
O4    O     O_R   0.499990 0.714660 0.636850 -0.615863
O5    O     O_R   0.346350 0.500000 0.614250 -0.627703
O6    O     O_R   0.653650 0.500000 0.385750 -0.627703
O7    O     O_R   0.346360 0.500000 0.340500 -0.569827
O8    O     O_R   0.653640 0.500000 0.659500 -0.569827
Zn1   Zn    Zn3+2 0.499990 0.500000 0.682780 1.052601
Zn2   Zn    Zn3+2 0.500010 0.500000 0.317220 1.052601

loop_
_geom_bond_atom_site_label_1
_geom_bond_atom_site_label_2
_ccdc_geom_bond_type
C11   O8    A    
N1    N2    T    
C6    C14   A    
N2    Zn1   S    
C3    C13   A    
C11   C12   S    
N1    Zn2   S    
C2    C12   A    
O8    Zn1   S    
O7    Zn2   S    
C7    C8    T    
C2    Cl1   S    
C1    O1    A    
C2    C15   A    
C10   O5    A    
C14   H3    S    
C4    C6    A    
C9    O2    A    
O3    Zn2   S    
C5    C6    A    
C14   C16   A    
C5    C15   A    
C4    C12   A    
O4    Zn1   S    
O6    Zn2   S    
O5    Zn1   S    
C3    H2    S    
C11   O6    A    
C16   Cl2   S    
C13   C16   A    
C1    O3    A    
C1    C7    S    
C4    H1    S    
C10   O7    A    
O2    Zn2   S    
C15   H4    S    
C9    O4    A    
O1    Zn1   S    
C8    C9    S    
C3    C5    A    
C10   C13   S    
