data_mof_unit_56546.cif
_audit_creation_date              2013-03-05T15:46:33-0500
_audit_creation_method            fapswitch 2.2
_symmetry_space_group_name_H-M    P1
_symmetry_Int_Tables_number       1
_space_group_crystal_system       triclinic
_cell_length_a                    17.354427
_cell_length_b                    24.564881
_cell_length_c                    14.805209
_cell_angle_alpha                 90.315073
_cell_angle_beta                  125.054303
_cell_angle_gamma                 89.899091
_cell_volume                      5166.6412079

loop_
_atom_site_label
_atom_site_type_symbol
_atom_site_description
_atom_site_fract_x
_atom_site_fract_y
_atom_site_fract_z
_atom_type_partial_charge
C1    C     C_R   0.311895 0.374952 0.910345 0.814572
C2    C     C_R   0.648211 0.348877 0.090460 0.905335
C3    C     C_R   0.811898 0.874948 0.910346 0.814579
C4    C     C_R   0.148209 0.848876 0.090460 0.905307
N1    N     N_R   0.394180 0.396910 0.943210 -0.153175
N2    N     N_R   0.605820 0.396910 0.056790 -0.181690
N3    N     N_R   0.894180 0.896910 0.943210 -0.153190
N4    N     N_R   0.105820 0.896910 0.056790 -0.181702
C5    C     C_R   0.402669 0.624005 0.093008 0.670443
C6    C     C_R   0.555195 0.651794 0.909253 0.780658
C7    C     C_R   0.902671 0.124005 0.093011 0.670360
C8    C     C_R   0.055208 0.151791 0.909251 0.780605
N5    N     N_R   0.450950 0.603070 0.056740 -0.169907
N6    N     N_R   0.549050 0.603070 0.943260 -0.193722
N7    N     N_R   0.950950 0.103070 0.056740 -0.169905
N8    N     N_R   0.049050 0.103070 0.943260 -0.193738
C9    C     C_R   0.554177 0.456039 0.307615 -0.146621
C10   C     C_R   0.521306 0.454376 0.752250 -0.116657
C11   C     C_R   0.054151 0.956053 0.307622 -0.146436
C12   C     C_R   0.021312 0.954374 0.752258 -0.116645
H1    H     H_    0.569789 0.414665 0.334125 0.242607
H2    H     H_    0.531832 0.412449 0.742848 0.214361
H3    H     H_    0.069740 0.914680 0.334184 0.242449
H4    H     H_    0.031861 0.912448 0.742898 0.214432
N9    N     N_R   0.525650 0.471570 0.206150 -0.124903
N10   N     N_R   0.474350 0.471570 0.793850 -0.105022
N11   N     N_R   0.025650 0.971570 0.206150 -0.124861
N12   N     N_R   0.974350 0.971570 0.793850 -0.105037
C13   C     C_R   0.249148 0.546111 0.696049 -0.040724
C14   C     C_R   0.766135 0.546452 0.244908 -0.155251
C15   C     C_R   0.749149 0.046111 0.696050 -0.040705
C16   C     C_R   0.266135 0.046452 0.244912 -0.155220
H5    H     H_    0.244124 0.587217 0.668038 0.231586
H6    H     H_    0.785122 0.588437 0.248943 0.248404
H7    H     H_    0.744124 0.087217 0.668039 0.231587
H8    H     H_    0.285124 0.088437 0.248948 0.248406
N13   N     N_R   0.319480 0.528420 0.793810 -0.127814
N14   N     N_R   0.680520 0.528420 0.206190 -0.093118
N15   N     N_R   0.819480 0.028420 0.793810 -0.127814
N16   N     N_R   0.180520 0.028420 0.206190 -0.093103
C17   C     C_R   0.559102 0.545731 0.308025 0.925235
C18   C     C_R   0.517390 0.544829 0.747465 0.791650
C19   C     C_R   0.059098 0.045747 0.308006 0.925454
C20   C     C_R   0.017366 0.044827 0.747438 0.791704
N17   N     N_R   0.525640 0.528390 0.206120 -0.162270
N18   N     N_R   0.474360 0.528390 0.793880 -0.148350
N19   N     N_R   0.025640 0.028390 0.206120 -0.162339
N20   N     N_R   0.974360 0.028390 0.793880 -0.148355
C21   C     C_R   0.245859 0.456173 0.692829 0.907482
C22   C     C_R   0.770108 0.455833 0.253953 0.872078
C23   C     C_R   0.745859 0.956173 0.692829 0.907500
C24   C     C_R   0.270108 0.955832 0.253955 0.872226
N21   N     N_R   0.319490 0.471590 0.793840 -0.168622
N22   N     N_R   0.680510 0.471590 0.206160 -0.151149
N23   N     N_R   0.819490 0.971590 0.793840 -0.168618
N24   N     N_R   0.180510 0.971590 0.206160 -0.151119
C25   C     C_R   0.311647 0.625091 0.909957 0.737603
C26   C     C_R   0.647320 0.651715 0.091050 0.681083
C27   C     C_R   0.811648 0.125091 0.909959 0.737593
C28   C     C_R   0.147327 0.151713 0.091050 0.681103
N25   N     N_R   0.394130 0.603080 0.943110 -0.175438
N26   N     N_R   0.605870 0.603080 0.056890 -0.179920
N27   N     N_R   0.894130 0.103080 0.943110 -0.175428
N28   N     N_R   0.105870 0.103080 0.056890 -0.179925
C29   C     C_R   0.406623 0.371302 0.093770 0.259572
C30   C     C_R   0.557934 0.348571 0.908047 0.237258
C31   C     C_R   0.906629 0.871297 0.093772 0.259649
C32   C     C_R   0.057930 0.848569 0.908048 0.237160
N29   N     N_R   0.450990 0.396900 0.056840 -0.150509
N30   N     N_R   0.549010 0.396900 0.943160 -0.154364
N31   N     N_R   0.950990 0.896900 0.056840 -0.150513
N32   N     N_R   0.049010 0.896900 0.943160 -0.154388
C33   C     C_R   0.317451 0.358555 0.002721 -0.166331
C34   C     C_R   0.619520 0.318068 0.999392 -0.148538
C35   C     C_R   0.817458 0.858548 0.002723 -0.166370
C36   C     C_R   0.119514 0.818066 0.999394 -0.148514
C37   C     C_R   0.314977 0.638136 0.002700 -0.293821
C38   C     C_R   0.615208 0.682878 0.999938 -0.295438
C39   C     C_R   0.814979 0.138136 0.002704 -0.293785
C40   C     C_R   0.115224 0.182873 0.999937 -0.295469
C41   C     C_R   0.579215 0.501396 0.375877 -0.075458
C42   C     C_R   0.553251 0.499407 0.725711 -0.038059
C43   C     C_R   0.079180 0.001426 0.375855 -0.075484
C44   C     C_R   0.053236 0.999403 0.725688 -0.038143
C45   C     C_R   0.200128 0.502245 0.630673 -0.099390
C46   C     C_R   0.824746 0.502102 0.277586 -0.089248
C47   C     C_R   0.700128 0.002246 0.630673 -0.099395
C48   C     C_R   0.324746 0.002102 0.277590 -0.089335
Ni1   Ni    Ni4+2 0.434860 0.434850 0.869700 0.328018
Ni2   Ni    Ni4+2 0.565140 0.434850 0.130300 0.307778
Ni3   Ni    Ni4+2 0.934860 0.934850 0.869700 0.327999
Ni4   Ni    Ni4+2 0.065140 0.934850 0.130300 0.307849
Ni5   Ni    Ni4+2 0.565130 0.565140 0.130240 0.333405
Ni6   Ni    Ni4+2 0.434870 0.565140 0.869760 0.284866
Ni7   Ni    Ni4+2 0.065130 0.065140 0.130240 0.333414
Ni8   Ni    Ni4+2 0.934870 0.065140 0.869760 0.284859
C49   C     C_R   0.062314 0.554859 0.490807 -0.199825
C50   C     C_R   0.968244 0.553671 0.406416 -0.228207
C51   C     C_R   0.562313 0.054859 0.490811 -0.199816
C52   C     C_R   0.468242 0.053671 0.406423 -0.228211
C53   C     C_R   0.116688 0.507605 0.517969 -0.150264
C54   C     C_R   0.926424 0.506842 0.342456 -0.161445
C55   C     C_R   0.616688 0.007605 0.517971 -0.150265
C56   C     C_R   0.426424 0.006842 0.342461 -0.161430
C57   C     C_R   0.081003 0.465010 0.439262 0.692632
C58   C     C_R   0.985269 0.464674 0.351056 0.711641
C59   C     C_R   0.581003 0.965012 0.439263 0.692650
C60   C     C_R   0.485269 0.964675 0.351058 0.711612
C61   C     C_3   0.941899 0.590061 0.466794 0.755975
C62   C     C_3   0.046248 0.592958 0.559090 0.750221
C63   C     C_3   0.441898 0.090057 0.466806 0.755988
C64   C     C_3   0.546248 0.092955 0.559099 0.750187
C65   C     C_R   0.169384 0.675180 0.968020 -0.205774
C66   C     C_R   0.711496 0.723230 0.951479 -0.232266
C67   C     C_R   0.669382 0.175183 0.968007 -0.205776
C68   C     C_R   0.211532 0.223226 0.951509 -0.232256
H9    H     H_    0.134866 0.635938 0.939287 0.211575
H10   H     H_    0.713636 0.684449 0.917572 0.215164
H11   H     H_    0.634860 0.135942 0.939262 0.211573
H12   H     H_    0.213694 0.184442 0.917623 0.215127
C69   C     C_R   0.620590 0.220002 0.967455 0.866144
C70   C     C_R   0.262884 0.265904 0.953590 0.858473
C71   C     C_R   0.120591 0.719999 0.967470 0.866148
C72   C     C_R   0.762856 0.765904 0.953563 0.858486
C73   C     C_R   0.666742 0.270305 0.002486 -0.331097
C74   C     C_R   0.261204 0.315514 0.999060 -0.316791
C75   C     C_R   0.166737 0.770303 0.002486 -0.331090
C76   C     C_R   0.761205 0.815510 0.999063 -0.316788
C77   C     C_R   0.760722 0.276359 0.040252 0.815832
C78   C     C_R   0.209252 0.322587 0.043559 0.823173
C79   C     C_R   0.260713 0.776361 0.040234 0.815805
C80   C     C_R   0.709272 0.822584 0.043586 0.823172
C81   C     C_R   0.308986 0.731943 0.042023 -0.174095
C82   C     C_R   0.659187 0.778847 0.043768 -0.143237
C83   C     C_R   0.808995 0.231941 0.042045 -0.174111
C84   C     C_R   0.159173 0.278847 0.043742 -0.143249
H13   H     H_    0.381440 0.736762 0.069115 0.200713
H14   H     H_    0.619891 0.782917 0.079699 0.215572
H15   H     H_    0.881452 0.236758 0.069149 0.200731
H16   H     H_    0.119860 0.282917 0.079651 0.215558
C85   C     C_R   0.263242 0.681806 0.005826 0.020571
C86   C     C_R   0.660714 0.729784 0.997073 -0.019467
C87   C     C_R   0.763245 0.181806 0.005831 0.020562
C88   C     C_R   0.160729 0.229781 0.997076 -0.019415
C89   C     C_R   0.626744 0.547762 0.644780 0.677093
C90   C     C_R   0.629509 0.549590 0.553381 0.699352
C91   C     C_R   0.126690 0.047782 0.644755 0.677078
C92   C     C_R   0.129356 0.049642 0.553293 0.699423
C93   C     C_R   0.620110 0.501205 0.496273 -0.311798
C94   C     C_R   0.605394 0.498692 0.673600 -0.340876
C95   C     C_R   0.120083 0.001261 0.496243 -0.311679
C96   C     C_R   0.105375 0.998695 0.673565 -0.341066
C97   C     C_R   0.636781 0.451476 0.552796 0.162112
C98   C     C_R   0.626146 0.449777 0.640471 0.195146
C99   C     C_R   0.136899 0.951538 0.552811 0.161729
C100  C     C_R   0.126150 0.949794 0.640402 0.195493
F1    F     F_    0.242323 0.361441 0.805237 -0.571130
F2    F     F_    0.687215 0.328446 0.192844 -0.556497
F3    F     F_    0.742322 0.861441 0.805237 -0.571127
F4    F     F_    0.187214 0.828446 0.192846 -0.556481
F5    F     F_    0.904166 0.639347 0.413894 -0.587160
F6    F     F_    0.070335 0.571042 0.658299 -0.639323
F7    F     F_    0.404160 0.139343 0.413910 -0.587148
F8    F     F_    0.570339 0.071038 0.658308 -0.639344
N33   N     N_R   0.885211 0.563237 0.498409 0.235607
O1    O     O_R   0.904820 0.514105 0.538254 -0.319398
O2    O     O_R   0.814037 0.588623 0.486350 -0.189975
N34   N     N_R   0.085218 0.647680 0.572665 0.277469
O3    O     O_R   0.130397 0.660511 0.529677 -0.282300
O4    O     O_R   0.069023 0.685162 0.622179 -0.165603
N35   N     N_R   0.385215 0.063229 0.498424 0.235620
O5    O     O_R   0.404828 0.014095 0.538264 -0.319270
O6    O     O_R   0.314047 0.088613 0.486381 -0.190094
N36   N     N_R   0.585214 0.147679 0.572674 0.277478
O7    O     O_R   0.630389 0.160513 0.529683 -0.282276
O8    O     O_R   0.569017 0.185158 0.622190 -0.165604
F9    F     F_    0.529462 0.214801 0.932353 -0.570775
F10   F     F_    0.316503 0.258426 0.914608 -0.570828
F11   F     F_    0.029469 0.714795 0.932385 -0.570772
F12   F     F_    0.816456 0.758424 0.914557 -0.570793
F13   F     F_    0.804609 0.325571 0.072434 -0.588063
F14   F     F_    0.208646 0.371040 0.087712 -0.609550
F15   F     F_    0.304594 0.825574 0.072402 -0.588115
F16   F     F_    0.708692 0.871034 0.087765 -0.609562
F17   F     F_    0.644805 0.594157 0.703832 -0.545062
F18   F     F_    0.640165 0.599106 0.522660 -0.486725
F19   F     F_    0.144751 0.094167 0.703832 -0.545126
F20   F     F_    0.139741 0.099186 0.522427 -0.486801
N37   N     N_R   0.676620 0.406008 0.531617 0.273163
O9    O     O_R   0.640077 0.357606 0.513531 -0.212255
O10   O     O_R   0.744545 0.414071 0.519910 -0.262469
N38   N     N_R   0.648504 0.401036 0.703884 0.266585
O11   O     O_R   0.710724 0.402559 0.810254 -0.321338
O12   O     O_R   0.599307 0.356914 0.658276 -0.243403
N39   N     N_R   0.176997 0.906158 0.531756 0.273182
O13   O     O_R   0.141186 0.857609 0.514597 -0.211975
O14   O     O_R   0.244570 0.914394 0.519521 -0.262744
N40   N     N_R   0.148332 0.901009 0.703638 0.266718
O15   O     O_R   0.210630 0.902417 0.809994 -0.321260
O16   O     O_R   0.098855 0.856987 0.657905 -0.243498
F21   F     F_    0.439385 0.638125 0.198921 -0.587241
F22   F     F_    0.490677 0.672369 0.807908 -0.553140
F23   F     F_    0.939391 0.138124 0.198926 -0.587252
F24   F     F_    0.990700 0.172366 0.807903 -0.553113
F25   F     F_    0.599304 0.595466 0.342112 -0.513626
F26   F     F_    0.511781 0.596219 0.712534 -0.570860
F27   F     F_    0.099381 0.095463 0.342094 -0.513645
F28   F     F_    0.011699 0.096210 0.712448 -0.570790
F29   F     F_    0.236100 0.405487 0.651374 -0.515021
F30   F     F_    0.802522 0.404538 0.285665 -0.553271
F31   F     F_    0.736099 0.905487 0.651374 -0.515017
F32   F     F_    0.302522 0.904537 0.285667 -0.553246
F33   F     F_    0.246105 0.642245 0.806304 -0.620024
F34   F     F_    0.692819 0.670729 0.195959 -0.572338
F35   F     F_    0.746104 0.142244 0.806307 -0.620034
F36   F     F_    0.192824 0.170728 0.195957 -0.572320
N41   N     N_R   0.454447 0.344208 0.197881 0.246528
O17   O     O_R   0.410982 0.333309 0.243689 -0.281697
O18   O     O_R   0.538949 0.325406 0.241763 -0.269209
N42   N     N_R   0.491784 0.327169 0.799341 0.279944
O19   O     O_R   0.514504 0.286727 0.761988 -0.233701
O20   O     O_R   0.408700 0.348811 0.736078 -0.245774
N43   N     N_R   0.954460 0.844208 0.197889 0.246484
O21   O     O_R   0.910991 0.833291 0.243685 -0.281845
O22   O     O_R   0.038985 0.825435 0.241801 -0.269339
N44   N     N_R   0.991776 0.827166 0.799343 0.279978
O23   O     O_R   0.014487 0.786717 0.761997 -0.233647
O24   O     O_R   0.908698 0.848815 0.736075 -0.245745
F37   F     F_    0.135824 0.422720 0.449881 -0.528809
F38   F     F_    0.949690 0.421767 0.280079 -0.537486
F39   F     F_    0.635826 0.922722 0.449879 -0.528809
F40   F     F_    0.449690 0.921769 0.280079 -0.537518

loop_
_geom_bond_atom_site_label_1
_geom_bond_atom_site_label_2
_geom_bond_distance
_ccdc_geom_bond_type
C26   N26   1.333805 A    
C64   N36   1.465901 S    
N35   O5    1.302402 A    
C81   H13   1.084707 S    
N33   O1    1.302404 A    
C67   C69   1.384943 A    
C59   F39   1.354839 S    
C19   C43   1.387243 A    
C61   F5    1.387975 S    
N1    Ni1   1.856756 S    
C51   C55   1.401779 A    
N43   O21   1.300368 A    
C10   N10   1.339497 A    
C92   C95   1.408996 A    
C52   C56   1.395801 A    
C4    N4    1.328196 A    
N17   Ni5   1.855924 S    
C1    C33   1.377106 A    
C29   N41   1.430902 S    
N42   O20   1.300143 A    
C89   C90   1.382278 A    
C6    C38   1.362203 A    
C97   N37   1.437473 S    
N10   Ni1   1.855197 S    
C83   H15   1.084706 S    
N35   O6    1.300620 A    
N9    Ni2   1.848006 S    
C22   N22   1.343626 A    
C68   C70   1.365890 A    
C1    N1    1.329883 A    
N43   O22   1.300965 A    
C66   C86   1.392810 A    
N22   Ni2   1.869974 S    
C3    N3    1.329882 A    
C38   C86   1.412577 S    
N3    N31   1.377299 A    
C5    N5    1.329336 A    
C29   N29   1.332768 A    
C34   C73   1.415773 S    
C74   C78   1.399150 A    
C27   F35   1.351544 S    
N11   N19   1.395779 A    
C33   C74   1.419822 S    
C16   C48   1.375563 A    
C13   H5    1.077941 S    
C20   F28   1.348878 S    
C29   C33   1.382314 A    
C14   N14   1.324221 A    
N2    N30   1.377296 A    
C35   C76   1.419825 S    
C18   N18   1.336612 A    
N37   O10   1.301811 A    
C93   C97   1.417080 A    
N36   O7    1.302083 A    
C61   N33   1.468250 S    
C30   N42   1.433527 S    
N23   Ni3   1.872527 S    
C68   C88   1.392810 A    
C62   N34   1.465901 S    
C23   F31   1.352251 S    
N15   N23   1.396022 A    
N31   Ni4   1.869959 S    
C91   C92   1.382210 A    
C15   N15   1.322590 A    
C40   C88   1.412571 S    
C18   C42   1.399965 A    
N1    N29   1.377299 A    
C59   C60   1.404770 A    
C54   C58   1.407293 A    
N40   O15   1.301341 A    
N4    Ni4   1.849487 S    
C95   C99   1.416941 A    
C14   C46   1.375564 A    
C9    C41   1.391581 A    
C3    C35   1.377112 A    
C23   N23   1.346507 A    
C89   C94   1.400421 A    
C2    C34   1.362887 A    
C84   H16   1.083485 S    
C72   C76   1.397330 A    
N44   O24   1.300143 A    
C66   C72   1.365884 A    
C30   C34   1.371381 A    
N34   O4    1.300950 A    
N3    Ni3   1.856756 S    
N14   N22   1.396018 A    
N33   O2    1.300619 A    
C50   C61   1.505464 S    
C77   C83   1.365531 A    
C3    F3    1.351667 S    
C2    N2    1.328194 A    
C26   C38   1.364748 A    
C79   F15   1.359612 S    
C11   C43   1.391667 A    
C76   C80   1.399150 A    
C8    F24   1.355336 S    
N42   O19   1.300492 A    
C48   C56   1.449963 S    
C49   C50   1.372521 A    
C43   C95   1.492473 S    
C41   C93   1.492619 S    
C62   F6    1.387287 S    
C8    N8    1.328989 A    
C64   F8    1.387288 S    
C78   C84   1.384132 A    
N4    N32   1.377296 A    
C53   C57   1.412833 A    
N8    Ni8   1.870077 S    
C14   H6    1.074123 S    
C19   F27   1.351245 S    
C96   C100  1.417537 A    
C24   C48   1.389867 A    
C63   F7    1.387977 S    
C71   F11   1.357690 S    
C6    N6    1.328988 A    
C27   C39   1.376775 A    
N32   Ni3   1.872442 S    
C22   C46   1.389870 A    
N25   Ni6   1.848328 S    
C5    F21   1.353589 S    
C5    C37   1.374794 A    
C12   N12   1.339503 A    
N16   N24   1.396018 A    
N41   O17   1.300362 A    
C50   C54   1.395801 A    
N27   Ni8   1.848328 S    
C9    H1    1.068503 S    
C68   H12   1.084897 S    
N5    Ni5   1.872560 S    
C32   N32   1.337435 A    
N38   O12   1.300998 A    
C70   C74   1.397340 A    
C11   H3    1.068638 S    
N13   N21   1.396022 A    
C69   C73   1.398806 A    
C25   C37   1.376766 A    
C82   C86   1.393912 A    
C90   C93   1.409039 A    
C71   C75   1.398808 A    
C51   C52   1.372518 A    
C65   C71   1.384942 A    
C2    F2    1.355115 S    
C17   C41   1.387440 A    
C79   C81   1.365533 A    
N11   Ni4   1.848006 S    
C7    F23   1.353598 S    
C32   C36   1.371380 A    
C31   N43   1.430908 S    
C6    F22   1.355342 S    
C66   H10   1.084893 S    
C7    C39   1.374794 A    
C52   C63   1.505463 S    
C65   H9    1.083459 S    
C26   F34   1.355945 S    
N9    N17   1.395779 A    
N34   O3    1.302085 A    
C25   F33   1.351545 S    
C7    N7    1.329326 A    
C12   C44   1.393735 A    
C73   C77   1.395425 A    
N21   Ni1   1.872527 S    
C4    C36   1.362884 A    
C15   H7    1.077942 S    
C27   N27   1.332439 A    
C15   C47   1.366598 A    
C31   C35   1.382316 A    
N16   Ni7   1.872527 S    
C21   F29   1.352250 S    
N29   Ni2   1.869959 S    
C46   C54   1.449968 S    
C44   C96   1.488760 S    
C56   C60   1.407288 A    
C45   C53   1.457609 S    
C89   F17   1.355352 S    
C55   C59   1.412829 A    
C60   F40   1.356909 S    
N18   Ni6   1.848723 S    
C70   F10   1.359356 S    
C77   F13   1.359613 S    
N12   N20   1.395774 A    
C98   N38   1.434510 S    
N7    N27   1.377300 A    
N20   Ni8   1.848723 S    
C63   C64   1.519403 S    
C28   C40   1.364746 A    
C10   H2    1.067928 S    
C13   C45   1.366602 A    
C90   F18   1.350582 S    
C100  N40   1.434412 S    
N28   Ni7   1.855591 S    
C42   C94   1.488679 S    
C82   H14   1.083480 S    
C69   F9    1.357691 S    
C16   H8    1.074123 S    
C25   N25   1.332438 A    
C39   C87   1.415215 S    
N41   O18   1.300962 A    
N6    Ni6   1.870077 S    
C57   C58   1.404771 A    
C30   N30   1.337429 A    
C23   C47   1.388136 A    
C67   H11   1.083458 S    
N19   Ni7   1.855924 S    
C20   C44   1.400043 A    
C28   N28   1.333802 A    
C91   F19   1.355355 S    
N38   O11   1.301369 A    
C78   F14   1.357716 S    
C1    F1    1.351667 S    
C91   C96   1.400431 A    
C28   F36   1.355945 S    
C47   C55   1.457602 S    
C9    N9    1.341132 A    
C84   C88   1.393916 A    
N2    Ni2   1.849487 S    
C61   C62   1.519403 S    
C80   F16   1.357708 S    
N7    Ni7   1.872560 S    
C49   C62   1.512651 S    
C4    F4    1.355115 S    
C24   N24   1.343626 A    
C21   N21   1.346507 A    
C51   C64   1.512649 S    
C8    C40   1.362206 A    
N14   Ni5   1.872527 S    
C83   C87   1.393471 A    
C10   C42   1.393744 A    
N36   O8    1.300949 A    
C65   C85   1.394843 A    
N13   Ni6   1.869965 S    
C18   F26   1.348874 S    
N12   Ni3   1.855197 S    
C31   N31   1.332759 A    
C16   N16   1.324219 A    
C67   C87   1.394842 A    
C17   F25   1.351223 S    
N37   O9    1.300649 A    
C75   C79   1.395427 A    
N15   Ni8   1.869965 S    
C72   F12   1.359352 S    
C99   N39   1.437612 S    
N10   N18   1.395774 A    
C32   N44   1.433531 S    
N39   O13   1.300396 A    
N30   Ni1   1.872442 S    
C58   F38   1.356909 S    
C92   F20   1.350552 S    
N24   Ni4   1.869974 S    
N5    N25   1.377300 A    
C22   F30   1.351013 S    
C37   C85   1.415221 S    
C80   C82   1.384133 A    
N44   O23   1.300490 A    
C94   C98   1.417384 A    
N26   Ni5   1.855591 S    
C13   N13   1.322593 A    
C99   C100  1.413107 A    
C24   F32   1.351012 S    
C36   C75   1.415779 S    
C17   N17   1.335031 A    
N40   O16   1.300974 A    
C81   C85   1.393471 A    
N8    N28   1.377300 A    
C21   C45   1.388137 A    
C97   C98   1.413003 A    
C19   N19   1.334929 A    
C12   H4    1.067869 S    
C49   C53   1.401777 A    
C20   N20   1.336588 A    
C57   F37   1.354837 S    
C11   N11   1.341243 A    
N39   O14   1.301613 A    
C63   N35   1.468248 S    
N6    N26   1.377300 A    
