data_mof_unit_56253.cif
_audit_creation_date              2013-03-05T16:07:22-0500
_audit_creation_method            fapswitch 2.2
_symmetry_space_group_name_H-M    P1
_symmetry_Int_Tables_number       1
_space_group_crystal_system       triclinic
_cell_length_a                    9.623617
_cell_length_b                    10.759302
_cell_length_c                    16.917909
_cell_angle_alpha                 87.023451
_cell_angle_beta                  95.459038
_cell_angle_gamma                 89.830005
_cell_volume                      1741.38509583

loop_
_atom_site_label
_atom_site_type_symbol
_atom_site_description
_atom_site_fract_x
_atom_site_fract_y
_atom_site_fract_z
_atom_type_partial_charge
O1    O     O_R   0.618740 0.319660 0.500000 -0.602604
O2    O     O_R   0.381260 0.680340 0.500000 -0.602588
O3    O     O_R   0.381170 0.319630 0.500010 -0.527610
O4    O     O_R   0.618830 0.680370 0.499990 -0.527611
C1    C     C_R   0.500110 0.262694 0.501052 0.940199
C2    C     C_R   0.499890 0.737305 0.498948 0.940203
O5    O     O_R   0.631780 0.498870 0.613920 -0.571631
O6    O     O_R   0.368220 0.501130 0.386080 -0.571632
O7    O     O_R   0.394210 0.498840 0.613930 -0.554222
O8    O     O_R   0.605790 0.501160 0.386070 -0.554221
C3    C     C_R   0.519311 0.501859 0.651185 0.936751
C4    C     C_R   0.480689 0.498141 0.348815 0.936755
Cu1   Cu    Cu3+1 0.640660 0.500020 0.500000 1.076288
Cu2   Cu    Cu3+1 0.359340 0.499980 0.500000 1.076290
C5    C     C_R   0.534617 0.513198 0.738212 -0.279639
C6    C     C_R   0.465384 0.486801 0.261788 -0.279639
C7    C     C_R   0.445451 0.593607 0.774510 0.331123
C8    C     C_R   0.554549 0.406393 0.225490 0.331121
C9    C     C_R   0.456614 0.599141 0.857184 0.407347
C10   C     C_R   0.543387 0.400859 0.142816 0.407347
C11   C     C_R   0.555640 0.523106 0.904757 0.043764
C12   C     C_R   0.444361 0.476893 0.095243 0.043763
C13   C     C_R   0.650790 0.450016 0.868995 0.176571
C14   C     C_R   0.349210 0.549983 0.131005 0.176573
C15   C     C_R   0.641571 0.446099 0.785247 0.314882
C16   C     C_R   0.358430 0.553900 0.214753 0.314882
N1    N     N_2   0.557767 0.514869 0.988687 -0.140728
N2    N     N_2   0.442234 0.485130 0.011313 -0.140727
C17   C     C_R   0.444533 0.072669 0.432101 0.323718
C18   C     C_R   0.555467 0.927331 0.567898 0.323720
C19   C     C_R   0.444670 0.942136 0.430840 0.196649
C20   C     C_R   0.555331 0.057864 0.569160 0.196646
C21   C     C_R   0.500935 0.871436 0.498702 -0.215059
C22   C     C_R   0.499065 0.128564 0.501298 -0.215058
C23   C     C_R   0.082245 0.410307 0.542776 0.369868
C24   C     C_R   0.917755 0.589694 0.457225 0.369865
C25   C     C_R   0.935017 0.410192 0.543164 0.372017
C26   C     C_R   0.064984 0.589810 0.456838 0.372016
N3    N     N_R   0.852070 0.500030 0.499980 -0.339227
N4    N     N_R   0.147930 0.499970 0.500020 -0.339224
O9    O     O_3   0.650883 0.327823 0.268673 -0.595297
H1    H     H_    0.617822 0.305934 0.321193 0.337870
O10   O     O_3   0.349118 0.672177 0.731327 -0.595294
H2    H     H_    0.382178 0.694066 0.678807 0.337870
O11   O     O_3   0.629093 0.317522 0.110740 -0.566579
H3    H     H_    0.589117 0.300021 0.056388 0.372403
O12   O     O_3   0.370908 0.682478 0.889260 -0.566578
H4    H     H_    0.410884 0.699979 0.943612 0.372403
N5    N     N_R   0.750324 0.373260 0.918231 0.148858
O13   O     O_R   0.827114 0.420250 0.976638 -0.227023
O14   O     O_R   0.757254 0.254300 0.908455 -0.249160
N6    N     N_R   0.249677 0.626739 0.081769 0.148857
O15   O     O_R   0.172887 0.579749 0.023361 -0.227023
O16   O     O_R   0.242746 0.745698 0.091544 -0.249159
O17   O     O_3   0.733827 0.376101 0.747791 -0.622500
H5    H     H_    0.820440 0.360956 0.783471 0.391705
O18   O     O_3   0.266174 0.623899 0.252209 -0.622509
H6    H     H_    0.179560 0.639043 0.216528 0.391702
O19   O     O_3   0.396971 0.148862 0.366588 -0.705220
H7    H     H_    0.391787 0.101012 0.318066 0.386066
O20   O     O_3   0.603032 0.851137 0.633411 -0.705221
H8    H     H_    0.608226 0.898989 0.681934 0.386068
N7    N     N_R   0.389119 0.881367 0.361228 0.127144
O21   O     O_R   0.261814 0.904224 0.330669 -0.230254
O22   O     O_R   0.466308 0.803866 0.327802 -0.300964
N8    N     N_R   0.610884 0.118633 0.638772 0.127138
O23   O     O_R   0.738192 0.095780 0.669326 -0.230256
O24   O     O_R   0.533694 0.196132 0.672199 -0.300961
N9    N     N_R   0.161686 0.316158 0.589912 0.194917
O25   O     O_R   0.200755 0.335311 0.663970 -0.265755
O26   O     O_R   0.157021 0.202359 0.567318 -0.261567
N10   N     N_R   0.838315 0.683843 0.410089 0.194915
O27   O     O_R   0.842981 0.797642 0.432683 -0.261565
O28   O     O_R   0.799245 0.664691 0.336031 -0.265760
O29   O     O_3   0.880105 0.316138 0.588412 -0.602060
H9    H     H_    0.789699 0.344050 0.603115 0.408958
O30   O     O_3   0.119900 0.683867 0.411595 -0.602069
H10   H     H_    0.210292 0.655950 0.396880 0.408958

loop_
_geom_bond_atom_site_label_1
_geom_bond_atom_site_label_2
_geom_bond_distance
_ccdc_geom_bond_type
C14   N6    1.437164 S    
N8    O24   1.300828 A    
O17   H5    0.989427 S    
N7    O22   1.300816 A    
O9    H1    0.989279 S    
O10   H2    0.989280 S    
O30   H10   0.977931 S    
O5    C3    1.304505 A    
O1    C1    1.298546 A    
C26   N4    1.384330 A    
C14   C16   1.413988 A    
C9    O12   1.382043 S    
C13   N5    1.437165 S    
O4    Cu1   1.951148 S    
N9    O26   1.301138 A    
C3    C5    1.477094 S    
C4    C6    1.477094 S    
N5    O14   1.301372 A    
C19   C21   1.406597 A    
C10   O11   1.382044 S    
O20   H8    0.988779 S    
N8    O23   1.301234 A    
C11   N1    1.416281 S    
O19   H7    0.988775 S    
C12   N2    1.416279 S    
Cu1   Cu2   2.707316 S    
C17   C19   1.405713 A    
O2    C2    1.298545 A    
N6    O16   1.301373 A    
C6    C16   1.412060 A    
C19   N7    1.436145 S    
O4    C2    1.294850 A    
C8    O9    1.382088 S    
O7    Cu2   1.924138 S    
O11   H3    0.989992 S    
C17   C22   1.402005 A    
C20   C22   1.406597 A    
O29   H9    0.977952 S    
C7    O10   1.382088 S    
O12   H4    0.989993 S    
O6    C4    1.304505 A    
C1    C22   1.443005 S    
O7    C3    1.306025 A    
O3    Cu2   1.951150 S    
O8    C4    1.306025 A    
N10   O28   1.300480 A    
C10   C12   1.416422 A    
C11   C13   1.404821 A    
C12   C14   1.404821 A    
O1    Cu1   1.952602 S    
N6    O15   1.301265 A    
C23   C25   1.417516 A    
C20   N8    1.436144 S    
C5    C7    1.418774 A    
O6    Cu2   1.936690 S    
C18   C21   1.402004 A    
C9    C11   1.416421 A    
C24   N3    1.368070 A    
C15   O17   1.381902 S    
N10   O27   1.301137 A    
O3    C1    1.294849 A    
O8    Cu1   1.924138 S    
C26   O30   1.374394 S    
C2    C21   1.443005 S    
C24   C26   1.417519 A    
C23   N4    1.368068 A    
C25   N3    1.384338 A    
C18   C20   1.405714 A    
O18   H6    0.989427 S    
C7    C9    1.396957 A    
C8    C10   1.396955 A    
C13   C15   1.413988 A    
C25   O29   1.374400 S    
N9    O25   1.300479 A    
O2    Cu2   1.952602 S    
C16   O18   1.381902 S    
Cu1   N3    2.034562 S    
C5    C15   1.412060 A    
Cu2   N4    2.034562 S    
N7    O21   1.301230 A    
O5    Cu1   1.936687 S    
C23   N9    1.428990 S    
C6    C8    1.418775 A    
N5    O13   1.301265 A    
C18   O20   1.384512 S    
N1    N2    1.247176 D    
C17   O19   1.384511 S    
C24   N10   1.428988 S    
