data_mof_unit_51713.cif
_audit_creation_date              2012-12-11T17:38:26-0500
_audit_creation_method            fapswitch 2.2
_symmetry_space_group_name_H-M    P1
_symmetry_Int_Tables_number       1
_space_group_crystal_system       triclinic
_cell_length_a                    24.945066
_cell_length_b                    7.080412
_cell_length_c                    22.621546
_cell_angle_alpha                 90.00003
_cell_angle_beta                  96.229622
_cell_angle_gamma                 89.99989
_cell_volume                      3971.854734

loop_
_atom_site_label
_atom_site_type_symbol
_atom_type_description
_atom_site_fract_x
_atom_site_fract_y
_atom_site_fract_z
_atom_type_partial_charge
O1    O     O_R   0.551910 0.505710 0.449140 -0.539628
O2    O     O_R   0.448090 0.005710 0.550860 -0.539628
O3    O     O_R   0.442510 0.174130 0.436530 -0.531527
O4    O     O_R   0.557490 0.674130 0.563470 -0.531527
C1    C     C_R   0.423726 0.344851 0.421431 0.709341
C2    C     C_R   0.576274 0.844850 0.578568 0.709341
O5    O     O_R   0.551150 0.175880 0.442070 -0.541514
O6    O     O_R   0.448850 0.675880 0.557930 -0.541514
O7    O     O_R   0.557510 0.007410 0.556440 -0.529123
O8    O     O_R   0.442490 0.507410 0.443560 -0.529122
C3    C     C_R   0.568729 0.344820 0.428583 0.686785
C4    C     C_R   0.431271 0.844820 0.571417 0.686779
O9    O     O_3   0.501960 0.339800 0.537520 -0.369048
O10   O     O_3   0.498040 0.839800 0.462480 -0.369046
V1    V     V_3+5 0.499640 0.064240 0.493040 1.434862
V2    V     V_3+5 0.500360 0.564240 0.506960 1.434862
C5    C     C_R   0.166652 0.087562 0.817157 -0.216682
C6    C     C_R   0.833348 0.587562 0.182843 -0.216682
H1    H     H_    0.177880 0.213091 0.794107 0.183749
H2    H     H_    0.822120 0.713091 0.205894 0.183748
C7    C     C_R   0.127164 0.100542 0.856675 -0.165184
C8    C     C_R   0.872836 0.600542 0.143325 -0.165185
H3    H     H_    0.109117 0.236855 0.863453 0.148332
H4    H     H_    0.890883 0.736855 0.136547 0.148331
C9    C     C_R   0.110831 0.939198 0.886413 -0.118498
C10   C     C_R   0.889169 0.439198 0.113587 -0.118497
C11   C     C_R   0.135547 0.765077 0.875825 -0.254699
C12   C     C_R   0.864453 0.265077 0.124175 -0.254698
H5    H     H_    0.123193 0.637799 0.897150 0.135769
H6    H     H_    0.876807 0.137800 0.102849 0.135768
C13   C     C_R   0.176571 0.752582 0.837690 0.496702
C14   C     C_R   0.823429 0.252582 0.162310 0.496701
C15   C     C_R   0.191445 0.914357 0.807325 0.017582
C16   C     C_R   0.808554 0.414357 0.192675 0.017583
C17   C     C_1   0.232707 0.903351 0.766737 0.015641
C18   C     C_1   0.767292 0.403351 0.233263 0.015643
C19   C     C_1   0.267287 0.892570 0.733081 -0.050269
C20   C     C_1   0.732713 0.392570 0.266919 -0.050268
C21   C     C_R   0.329704 0.044072 0.669682 -0.141870
C22   C     C_R   0.670295 0.544072 0.330318 -0.141869
H7    H     H_    0.315200 0.181567 0.681718 0.108699
H8    H     H_    0.684799 0.681566 0.318282 0.108699
C23   C     C_R   0.369536 0.032561 0.630607 -0.162194
C24   C     C_R   0.630464 0.532561 0.369393 -0.162190
H9    H     H_    0.384673 0.162597 0.613467 0.123047
H10   H     H_    0.615326 0.662597 0.386532 0.123047
C25   C     C_R   0.389337 0.856002 0.613819 -0.051491
C26   C     C_R   0.610663 0.356001 0.386181 -0.051490
C27   C     C_R   0.368076 0.691428 0.637534 -0.169454
C28   C     C_R   0.631924 0.191428 0.362466 -0.169451
H11   H     H_    0.382080 0.553101 0.625762 0.121131
H12   H     H_    0.617921 0.053100 0.374238 0.121131
C29   C     C_R   0.328169 0.703421 0.676656 -0.128098
C30   C     C_R   0.671831 0.203421 0.323344 -0.128096
H13   H     H_    0.312412 0.574865 0.694175 0.115183
H14   H     H_    0.687589 0.074865 0.305825 0.115184
C31   C     C_R   0.308717 0.879775 0.692862 0.121043
C32   C     C_R   0.691283 0.379775 0.307138 0.121043
C33   C     C_3   0.751205 0.762440 0.810665 -0.431673
C34   C     C_3   0.248791 0.262419 0.189339 -0.431686
C35   C     C_3   0.762148 0.104790 0.784932 -0.415211
C36   C     C_3   0.237856 0.604779 0.215061 -0.415216
C37   C     C_3   0.712729 0.093172 0.735005 0.386773
C38   C     C_3   0.287278 0.593157 0.264983 0.386789
H15   H     H_    0.741711 0.795728 0.856140 0.147262
H16   H     H_    0.258277 0.295681 0.143859 0.147249
H17   H     H_    0.791974 0.215926 0.778111 0.147044
H18   H     H_    0.208033 0.715925 0.221884 0.147045
H19   H     H_    0.746932 0.142987 0.827824 0.111295
H20   H     H_    0.253068 0.642962 0.172166 0.111300
H21   H     H_    0.676285 0.119271 0.757920 0.099955
H22   H     H_    0.323719 0.619217 0.242059 0.100006
C39   C     C_1   0.621637 0.856808 0.624503 -0.150500
C40   C     C_1   0.378364 0.356809 0.375495 -0.150501
C41   C     C_3   0.791779 0.911873 0.792209 0.209301
C42   C     C_3   0.208221 0.411870 0.207791 0.209314
C43   C     C_3   0.700784 0.747848 0.761876 0.289343
C44   C     C_3   0.299218 0.247838 0.238123 0.289307
C45   C     C_3   0.706739 0.888403 0.709422 0.116030
C46   C     C_3   0.293262 0.388399 0.290575 0.116062
C47   C     C_3   0.759711 0.837612 0.682932 -0.435993
C48   C     C_3   0.240290 0.337622 0.317067 -0.436016
C49   C     C_3   0.809260 0.851741 0.731068 -0.352725
C50   C     C_3   0.190741 0.351768 0.268934 -0.352712
C51   C     C_1   0.659760 0.871007 0.662641 0.052690
C52   C     C_1   0.340242 0.371007 0.337357 0.052698
C53   C     C_1   0.839528 0.927321 0.837902 -0.048675
C54   C     C_1   0.160471 0.427318 0.162098 -0.048682
C55   C     C_1   0.878095 0.940698 0.875522 -0.197077
C56   C     C_1   0.121904 0.440696 0.124479 -0.197078
H23   H     H_    0.829930 0.712396 0.735418 0.146795
H24   H     H_    0.170062 0.212438 0.264590 0.146800
H25   H     H_    0.839040 0.954058 0.716692 0.150464
H26   H     H_    0.160967 0.454113 0.283310 0.150461
H27   H     H_    0.756758 0.693865 0.664102 0.140275
H28   H     H_    0.243241 0.193871 0.335894 0.140271
H29   H     H_    0.771569 0.622336 0.814744 0.129041
H30   H     H_    0.228425 0.122317 0.185271 0.129039
H31   H     H_    0.703132 0.603913 0.742731 0.137088
H32   H     H_    0.296879 0.103901 0.257269 0.137102
H33   H     H_    0.765286 0.927692 0.644013 0.179455
H34   H     H_    0.234719 0.427694 0.355988 0.179430
O11   O     O_R   0.057480 0.291690 0.056480 -0.532380
O12   O     O_R   0.942520 0.791690 0.943520 -0.532381
O13   O     O_R   0.948840 0.619880 0.057940 -0.542122
O14   O     O_R   0.051160 0.119880 0.942060 -0.542122
C57   C     C_R   0.931386 0.450782 0.071545 0.709114
C58   C     C_R   0.068614 0.950782 0.928455 0.709113
O15   O     O_R   0.057480 0.621520 0.063480 -0.535548
O16   O     O_R   0.942520 0.121520 0.936520 -0.535549
O17   O     O_R   0.051910 0.789880 0.949130 -0.537506
O18   O     O_R   0.948090 0.289880 0.050870 -0.537506
C59   C     C_R   0.076253 0.452463 0.078881 0.721670
C60   C     C_R   0.923747 0.952463 0.921119 0.721672
O19   O     O_3   0.998020 0.455790 0.962510 -0.370121
O20   O     O_3   0.001980 0.955790 0.037490 -0.370121
V3    V     V_3+5 0.000370 0.731410 0.006960 1.399794
V4    V     V_3+5 0.999630 0.231410 0.993040 1.399794
O21   O     O_3   0.709004 0.231243 0.688603 -0.548097
C61   C     C_3   0.758359 0.308837 0.675115 -0.257341
H35   H     H_    0.791025 0.204764 0.673703 0.136105
H36   H     H_    0.771903 0.420045 0.707664 0.122452
H37   H     H_    0.751792 0.374667 0.630445 0.157577
O22   O     O_3   0.291014 0.731260 0.311376 -0.548103
C62   C     C_3   0.241663 0.808850 0.324877 -0.257352
H38   H     H_    0.209001 0.704774 0.326304 0.136108
H39   H     H_    0.228109 0.920045 0.292328 0.122448
H40   H     H_    0.248242 0.874697 0.369545 0.157577
O23   O     O_3   0.199660 0.580256 0.826514 -0.560141
C63   C     C_3   0.231585 0.518776 0.878225 -0.300640
H41   H     H_    0.206094 0.472842 0.912945 0.136283
H42   H     H_    0.260742 0.629423 0.896053 0.135879
H43   H     H_    0.255408 0.394496 0.866592 0.171182
O24   O     O_3   0.800339 0.080257 0.173486 -0.560141
C64   C     C_3   0.768417 0.018773 0.121773 -0.300633
H44   H     H_    0.793909 0.972832 0.087056 0.136284
H45   H     H_    0.739260 0.129421 0.103942 0.135879
H46   H     H_    0.744593 0.894497 0.133407 0.171182
O25   O     O_3   0.647576 0.756146 0.779936 -0.547111
C65   C     C_3   0.643229 0.833587 0.836604 -0.232016
H47   H     H_    0.664995 0.969525 0.843841 0.112029
H48   H     H_    0.656528 0.729192 0.871824 0.138064
H49   H     H_    0.600059 0.863353 0.840223 0.163318
O26   O     O_3   0.352425 0.256187 0.220063 -0.547117
C66   C     C_3   0.356759 0.333439 0.163368 -0.232059
H50   H     H_    0.335005 0.469394 0.156107 0.112075
H51   H     H_    0.343440 0.228953 0.128183 0.138058
H52   H     H_    0.399928 0.363128 0.159721 0.163327

loop_
_geom_bond_atom_site_label_1
_geom_bond_atom_site_label_2
_ccdc_geom_bond_type
C64   H46   S    
C14   O24   S    
C11   H5    S    
C57   O18   A    
O1    C3    A    
C65   H49   S    
O2    C4    A    
C33   C43   S    
C2    O7    A    
C66   H50   S    
O15   V3    S    
C64   H44   S    
C25   C27   A    
C37   C45   S    
C35   C41   S    
O5    C3    A    
O13   C57   A    
C34   C44   S    
C28   C30   A    
C7    C9    A    
O11   C59   A    
C65   H48   S    
O12   V3    S    
C34   H30   S    
C47   H27   S    
C44   C46   S    
C35   H19   S    
C49   H25   S    
O20   V3    S    
C36   H20   S    
C56   C59   S    
C1    C40   S    
C35   C37   S    
C36   C38   S    
C66   H51   S    
C20   C32   S    
C61   H36   S    
C12   H6    S    
C27   H11   S    
C62   H40   S    
C28   H12   S    
C13   C15   A    
O10   V2    S    
O16   C60   A    
C16   C18   S    
C61   H37   S    
O15   C59   A    
C22   H8    S    
C34   H16   S    
O6    V2    S    
O14   V4    S    
C38   C46   S    
C42   C50   S    
C3    C26   S    
C5    C15   A    
C4    C25   S    
C47   C49   S    
C24   H10   S    
C29   H13   S    
O25   C65   S    
C30   H14   S    
C22   C32   A    
C11   C13   A    
C12   C14   A    
C48   H28   S    
C65   H47   S    
C46   C48   S    
C45   C47   S    
C29   C31   A    
O13   V3    S    
C21   C23   A    
O5    V1    S    
C38   O22   S    
C34   C42   S    
C5    C7    A    
C14   C16   A    
O4    V2    S    
C63   H42   S    
O2    V1    S    
C44   O26   S    
C37   O21   S    
C35   H17   S    
O6    C4    A    
O19   V4    S    
C48   H34   S    
C43   C45   S    
O1    V2    S    
C50   H26   S    
C40   C52   T    
O16   V4    S    
C6    C16   A    
C39   C51   T    
O12   C60   A    
O4    C2    A    
C54   C56   T    
C48   C50   S    
O9    V1    S    
C44   H32   S    
C62   H38   S    
C33   H29   S    
C8    H4    S    
C63   H43   S    
C5    H1    S    
C18   C20   T    
C33   C41   S    
C45   C51   S    
C66   H52   S    
O3    V1    S    
C61   H35   S    
C2    C39   S    
O23   C63   S    
C30   C32   A    
C41   C53   S    
C64   H45   S    
C42   C54   S    
C55   C60   S    
C36   C42   S    
C17   C19   T    
C6    C8    A    
C43   O25   S    
C37   H21   S    
O26   C66   S    
O3    C1    A    
C10   C57   S    
O21   C61   S    
O24   C64   S    
C9    C11   A    
C49   H23   S    
C10   C12   A    
C58   O17   A    
C36   H18   S    
O17   V3    S    
C7    H3    S    
C63   H41   S    
O7    V1    S    
C1    O8    A    
C13   O23   S    
O8    V2    S    
C33   H15   S    
O18   V4    S    
C41   C49   S    
O14   C58   A    
C27   C29   A    
C26   C28   A    
C15   C17   S    
C43   H31   S    
C6    H2    S    
C38   H22   S    
O11   V4    S    
C46   C52   S    
C22   C24   A    
C21   H7    S    
C8    C10   A    
O9    V2    S    
C62   H39   S    
C53   C55   T    
O10   V1    S    
C47   H33   S    
C50   H24   S    
C23   C25   A    
C23   H9    S    
C19   C31   S    
C24   C26   A    
C9    C58   S    
O22   C62   S    
C21   C31   A    
