data_mof_unit_30196.cif
_audit_creation_date              2012-12-11T15:06:42-0500
_audit_creation_method            fapswitch 2.2
_symmetry_space_group_name_H-M    P1
_symmetry_Int_Tables_number       1
_space_group_crystal_system       triclinic
_cell_length_a                    7.239829
_cell_length_b                    14.814152
_cell_length_c                    22.526179
_cell_angle_alpha                 89.989544
_cell_angle_beta                  90.013111
_cell_angle_gamma                 88.923984
_cell_volume                      2415.54997431

loop_
_atom_site_label
_atom_site_type_symbol
_atom_type_description
_atom_site_fract_x
_atom_site_fract_y
_atom_site_fract_z
_atom_type_partial_charge
O1    O     O_R   0.390810 0.844810 0.447340 -0.530621
O2    O     O_R   0.109190 0.155190 0.947340 -0.539715
O3    O     O_R   0.890810 0.655190 0.552660 -0.540736
O4    O     O_R   0.609190 0.344810 0.052660 -0.535236
O5    O     O_R   0.720550 0.655820 0.440420 -0.539602
O6    O     O_R   0.779450 0.344180 0.940420 -0.535290
O7    O     O_R   0.220550 0.844180 0.559580 -0.535964
O8    O     O_R   0.279450 0.155820 0.059580 -0.537397
C1    C     C_R   0.553610 0.626489 0.426222 0.688096
C2    C     C_R   0.946361 0.373536 0.926242 0.670718
C3    C     C_R   0.050784 0.873376 0.573734 0.676196
C4    C     C_R   0.449215 0.126653 0.073781 0.673723
O9    O     O_R   0.720530 0.844130 0.440420 -0.538182
O10   O     O_R   0.779470 0.155870 0.940420 -0.532718
O11   O     O_R   0.220530 0.655870 0.559580 -0.522966
O12   O     O_R   0.279470 0.344130 0.059580 -0.540133
O13   O     O_R   0.890830 0.844810 0.552660 -0.538586
O14   O     O_R   0.609170 0.155190 0.052660 -0.530075
O15   O     O_R   0.390830 0.655190 0.447340 -0.524904
O16   O     O_R   0.109170 0.344810 0.947340 -0.531775
C5    C     C_R   0.550844 0.873661 0.426454 0.670232
C6    C     C_R   0.949180 0.126358 0.926462 0.718511
C7    C     C_R   0.053719 0.626592 0.573838 0.714938
C8    C     C_R   0.446245 0.373602 0.073710 0.718368
O17   O     O_3   0.557310 0.749980 0.536820 -0.375852
O18   O     O_3   0.942690 0.250020 0.036820 -0.375138
O19   O     O_3   0.057310 0.750020 0.463180 -0.372981
O20   O     O_3   0.442690 0.249980 0.963180 -0.373411
V1    V     V_3+5 0.832160 0.749980 0.493170 1.426399
V2    V     V_3+5 0.667840 0.250020 0.993170 1.454690
V3    V     V_3+5 0.332160 0.750020 0.506830 1.460045
V4    V     V_3+5 0.167840 0.249980 0.006830 1.435118
C9    C     C_R   0.859257 0.601611 0.857473 -0.167763
C10   C     C_R   0.638807 0.398178 0.357558 -0.172808
C11   C     C_R   0.521081 0.893667 0.136722 -0.164998
C12   C     C_R   0.978787 0.106509 0.636287 -0.165679
H1    H     H_    0.830650 0.544692 0.944357 0.117395
H2    H     H_    0.667986 0.455101 0.444414 0.110726
H3    H     H_    0.493811 0.949978 0.049429 0.114329
H4    H     H_    0.006000 0.049935 0.549087 0.114836
H5    H     H_    0.829034 0.721643 0.770856 0.126033
H6    H     H_    0.667135 0.277877 0.271070 0.125480
H7    H     H_    0.584880 0.771062 0.219965 0.126547
H8    H     H_    0.916323 0.229505 0.719369 0.125772
H9    H     H_    0.803121 0.666512 0.871521 0.116491
H10   H     H_    0.694056 0.333125 0.371677 0.113656
H11   H     H_    0.543491 0.825938 0.119632 0.115756
H12   H     H_    0.956622 0.174207 0.619095 0.115026
C13   C     C_R   0.947340 0.447948 0.882707 -0.031667
C14   C     C_R   0.552498 0.552103 0.382668 -0.031209
C15   C     C_R   0.463759 0.052225 0.117042 -0.030793
C16   C     C_R   0.036119 0.947893 0.616867 -0.030915
C17   C     C_R   0.124029 0.465944 0.596611 0.206081
C18   C     C_R   0.378236 0.534645 0.096376 0.201570
C19   C     C_R   0.512521 0.039666 0.408618 0.204216
C20   C     C_R   0.988941 0.962042 0.908318 0.200361
C21   C     C_R   0.148401 0.395119 0.637078 -0.159465
C22   C     C_R   0.355776 0.605719 0.136719 -0.164307
C23   C     C_R   0.480206 0.111964 0.370093 -0.124245
C24   C     C_R   0.017991 0.888740 0.870093 -0.159400
C25   C     C_R   0.105575 0.406517 0.696842 -0.208870
C26   C     C_R   0.397183 0.594083 0.196568 -0.207456
C27   C     C_R   0.471696 0.099421 0.308988 -0.227126
C28   C     C_R   0.025230 0.900914 0.808876 -0.206075
C29   C     C_R   0.031413 0.488960 0.718494 0.083318
C30   C     C_R   0.469003 0.511256 0.218382 0.083313
C31   C     C_R   0.499830 0.013334 0.283402 0.081016
C32   C     C_R   0.998839 0.987102 0.783093 0.081838
C33   C     C_R   0.005326 0.561701 0.677250 0.025187
C34   C     C_R   0.493832 0.438333 0.177216 0.021149
C35   C     C_R   0.533325 0.938467 0.322413 0.037558
C36   C     C_R   0.966436 0.062219 0.821933 0.022176
C37   C     C_R   0.983780 0.501726 0.779821 0.085704
C38   C     C_R   0.515912 0.498361 0.279770 0.086579
C39   C     C_R   0.494696 0.999103 0.220376 0.087924
C40   C     C_R   0.004409 0.001216 0.720075 0.086904
C41   C     C_R   0.910627 0.586968 0.798122 0.141554
C42   C     C_R   0.587695 0.412894 0.298177 0.142240
C43   C     C_R   0.524136 0.910263 0.198081 0.139500
C44   C     C_R   0.975593 0.090075 0.697662 0.140355
C45   C     C_R   0.886630 0.656947 0.757064 -0.206830
C46   C     C_R   0.610622 0.342760 0.257193 -0.207004
C47   C     C_R   0.558615 0.838446 0.236970 -0.208700
C48   C     C_R   0.941762 0.162081 0.736456 -0.203281
C49   C     C_R   0.933962 0.644885 0.697797 -0.191085
C50   C     C_R   0.563587 0.354894 0.197893 -0.192268
C51   C     C_R   0.562087 0.851972 0.297972 -0.182500
C52   C     C_R   0.938360 0.148701 0.797473 -0.185765
C53   C     C_R   0.002584 0.432747 0.823646 -0.218048
C54   C     C_R   0.497747 0.567420 0.323555 -0.224483
C55   C     C_R   0.464270 0.069757 0.178384 -0.218258
C56   C     C_R   0.035134 0.930480 0.678214 -0.221561
C57   C     C_R   0.875703 0.532487 0.899145 -0.156416
C58   C     C_R   0.623181 0.467396 0.399177 -0.150239
C59   C     C_R   0.491979 0.964084 0.096629 -0.154500
C60   C     C_R   0.007824 0.035969 0.596309 -0.155692
C61   C     C_R   0.054237 0.550127 0.616404 -0.104232
C62   C     C_R   0.445661 0.450057 0.116294 -0.096689
C63   C     C_R   0.536649 0.951455 0.385165 -0.114761
C64   C     C_R   0.963817 0.049393 0.884596 -0.095149
H13   H     H_    0.053686 0.365886 0.813152 0.097081
H14   H     H_    0.447331 0.634391 0.313013 0.097099
H15   H     H_    0.444566 0.139161 0.191574 0.093753
H16   H     H_    0.055005 0.861122 0.691518 0.093657
H17   H     H_    0.133885 0.349346 0.725078 0.123976
H18   H     H_    0.369796 0.651404 0.224730 0.123627
H19   H     H_    0.441825 0.158844 0.283004 0.126051
H20   H     H_    0.052897 0.841203 0.782962 0.124515
H21   H     H_    0.203663 0.330423 0.622413 0.121731
H22   H     H_    0.302070 0.670653 0.121905 0.119052
H23   H     H_    0.459337 0.179320 0.387925 0.132918
H24   H     H_    0.038349 0.821331 0.887872 0.118618
H25   H     H_    0.912556 0.701493 0.668048 0.114280
H26   H     H_    0.584127 0.298160 0.168208 0.113370
H27   H     H_    0.589459 0.793747 0.325867 0.106965
H28   H     H_    0.911857 0.206968 0.825399 0.103794
N1    N     N_3   0.173340 0.453549 0.535236 -0.663558
H29   H     H_    0.231702 0.389284 0.528396 0.223782
H30   H     H_    0.051275 0.456450 0.510429 0.213107
N2    N     N_3   0.331120 0.547646 0.034890 -0.674676
H31   H     H_    0.312371 0.616377 0.025588 0.220336
H32   H     H_    0.203619 0.517523 0.027690 0.229530
N3    N     N_3   0.516817 0.058730 0.471320 -0.671877
H33   H     H_    0.630437 0.099584 0.479249 0.218920
H34   H     H_    0.537616 0.000817 0.496965 0.225347
N4    N     N_3   0.985539 0.948404 0.971542 -0.673381
H35   H     H_    0.989095 0.879473 0.981598 0.221413
H36   H     H_    0.106617 0.975202 0.988984 0.224464

loop_
_geom_bond_atom_site_label_1
_geom_bond_atom_site_label_2
_ccdc_geom_bond_type
O17   V3    S    
C47   C51   A    
C22   C26   A    
N4    H35   S    
C18   N2    S    
O19   V1    S    
C9    H9    S    
O3    C7    A    
H6    C46   S    
C44   C48   A    
C11   H11   S    
C36   C64   A    
C29   C37   A    
N3    H33   S    
O1    C5    A    
C8    C62   S    
C28   C32   A    
O9    V1    S    
O10   V2    S    
C19   C23   A    
N1    H30   S    
C18   C22   A    
O4    C8    A    
C17   N1    S    
N3    H34   S    
C30   C38   A    
H7    C47   S    
O1    V3    S    
O13   V1    S    
O2    V4    S    
C1    O15   A    
C11   C43   A    
O3    V1    S    
C12   C60   A    
C54   H14   S    
C3    C16   S    
C15   C55   A    
C14   C54   A    
C21   H21   S    
C2    O16   A    
O2    C6    A    
C23   H23   S    
C16   C60   A    
O14   V2    S    
C20   N4    S    
O8    C4    A    
C25   H17   S    
C51   H27   S    
C39   C55   A    
C53   H13   S    
O11   C7    A    
O15   V3    S    
O12   C8    A    
H4    C60   S    
C36   C52   A    
N2    H32   S    
C28   H20   S    
O5    V1    S    
C27   C31   A    
C6    C64   S    
C26   C30   A    
H1    C57   S    
O8    V4    S    
C10   C58   A    
O7    V3    S    
C12   C44   A    
C13   C53   A    
C17   C21   A    
O18   V4    S    
C14   C58   A    
C17   C61   A    
C46   C50   A    
C35   C63   A    
C20   C24   A    
C48   C52   A    
C52   H28   S    
O7    C3    A    
O5    C1    A    
C24   H24   S    
C42   C46   A    
C41   C45   A    
C32   C36   A    
H5    C45   S    
H2    C58   S    
C4    O14   A    
O9    C5    A    
O11   V3    S    
H3    C59   S    
C40   C56   A    
C10   H10   S    
C7    C61   S    
C35   C51   A    
C16   C56   A    
C32   C40   A    
C20   C64   A    
C27   H19   S    
C34   C50   A    
C19   N3    S    
C4    C15   S    
C33   C49   A    
N2    H31   S    
O16   V4    S    
C29   C33   A    
C3    O13   A    
N4    H36   S    
O6    V2    S    
C22   H22   S    
C1    C14   S    
C40   C44   A    
C55   H15   S    
H8    C48   S    
C9    C57   A    
O6    C2    A    
C21   C25   A    
C26   H18   S    
C11   C59   A    
O12   V4    S    
C23   C27   A    
C50   H26   S    
C24   C28   A    
O10   C6    A    
C49   H25   S    
C37   C53   A    
N1    H29   S    
C10   C42   A    
C43   C47   A    
C9    C41   A    
C30   C34   A    
C5    C63   S    
C38   C54   A    
O20   V2    S    
C12   H12   S    
C31   C35   A    
O4    V2    S    
C56   H16   S    
C25   C29   A    
C31   C39   A    
C38   C42   A    
C19   C63   A    
C37   C41   A    
C18   C62   A    
C13   C57   A    
C2    C13   S    
C39   C43   A    
C45   C49   A    
C34   C62   A    
C15   C59   A    
C33   C61   A    
