data_mof_unit_13413.cif
_audit_creation_date              2013-03-05T16:06:12-0500
_audit_creation_method            fapswitch 2.2
_symmetry_space_group_name_H-M    P1
_symmetry_Int_Tables_number       1
_space_group_crystal_system       triclinic
_cell_length_a                    6.919782
_cell_length_b                    28.815416
_cell_length_c                    32.156673
_cell_angle_alpha                 100.878718
_cell_angle_beta                  89.749835
_cell_angle_gamma                 90.389288
_cell_volume                      6296.51889689

loop_
_atom_site_label
_atom_site_type_symbol
_atom_site_description
_atom_site_fract_x
_atom_site_fract_y
_atom_site_fract_z
_atom_type_partial_charge
O1    O     O_R   0.494350 0.453170 0.452520 -0.601850
O2    O     O_R   0.820980 0.455850 0.538220 -0.598233
O3    O     O_R   0.994300 0.546830 0.547480 -0.586430
C1    C     C_R   0.651661 0.445900 0.551817 0.958237
O4    O     O_R   0.823860 0.447590 0.452270 -0.600613
O5    O     O_R   0.997200 0.538510 0.460920 -0.602849
C2    C     C_R   0.655036 0.434820 0.436595 0.915182
O6    O     O_R   0.491440 0.461490 0.539080 -0.598885
O7    O     O_3   0.661790 0.529840 0.502940 -0.244352
V1    V     V_3+5 0.935470 0.494460 0.499450 1.174598
O8    O     O_R   0.327090 0.544150 0.461780 -0.572732
C3    C     C_R   0.159169 0.553789 0.447782 0.978590
O9    O     O_R   0.324210 0.552410 0.547730 -0.566635
C4    C     C_R   0.155184 0.566055 0.562793 1.008428
V2    V     V_3+5 0.435840 0.505540 0.500550 1.202447
O10   O     O_3   0.159650 0.470160 0.497060 -0.286110
C5    C     C_R   0.218881 0.887430 0.875557 -0.146041
H1    H     H_    0.346274 0.908893 0.884786 0.127379
C6    C     C_R   0.229309 0.851541 0.839639 -0.144728
H2    H     H_    0.363874 0.847019 0.822105 0.105042
C7    C     C_R   0.067765 0.822690 0.826143 0.119750
C8    C     C_R   0.894872 0.831207 0.849611 -0.140632
H3    H     H_    0.768097 0.809403 0.840868 0.103485
C9    C     C_R   0.883772 0.867569 0.885250 -0.151145
H4    H     H_    0.748438 0.873018 0.902475 0.131307
C10   C     C_R   0.045907 0.896035 0.898778 -0.129939
C11   C     C_R   0.918186 0.771908 0.761325 -0.166080
H5    H     H_    0.782712 0.790427 0.767972 0.112124
C12   C     C_R   0.930349 0.736246 0.725206 -0.144555
H6    H     H_    0.804031 0.728088 0.705322 0.126141
C13   C     C_R   0.104936 0.712328 0.714175 0.136367
C14   C     C_R   0.266416 0.724453 0.740404 -0.157039
H7    H     H_    0.402243 0.706220 0.733020 0.116807
C15   C     C_R   0.253712 0.759628 0.776842 -0.156419
H8    H     H_    0.380297 0.767097 0.796686 0.108785
C16   C     C_R   0.079766 0.784208 0.787744 0.107578
C17   C     C_R   0.277822 0.674298 0.647661 -0.248010
H9    H     H_    0.388551 0.701387 0.654614 0.158401
C18   C     C_R   0.290210 0.640465 0.609930 0.368189
C19   C     C_R   0.144342 0.605140 0.600403 -0.315963
C20   C     C_R   0.986003 0.606438 0.628239 -0.077827
H10   H     H_    0.872223 0.580066 0.621926 0.145830
C21   C     C_R   0.972826 0.641155 0.664890 -0.087050
H11   H     H_    0.849254 0.640857 0.685630 0.115069
C22   C     C_R   0.119207 0.675219 0.675207 0.046517
C23   C     C_R   0.083419 0.656641 0.283024 0.463464
N1    N     N_R   0.092523 0.676157 0.325377 -0.182422
C24   C     C_R   0.086288 0.724269 0.338848 0.472889
C25   C     C_R   0.071832 0.754652 0.309392 -0.055703
C26   C     C_R   0.064406 0.735085 0.265847 -0.010627
C27   C     C_R   0.069636 0.685681 0.252449 -0.049987
C28   C     C_R   0.066401 0.804042 0.322392 -0.111702
C29   C     C_R   0.055054 0.833541 0.292588 -0.117214
C30   C     C_R   0.048998 0.814417 0.249009 -0.049275
C31   C     C_R   0.052857 0.765003 0.235619 -0.011015
C32   C     C_R   0.046422 0.745452 0.192061 -0.052617
C33   C     C_R   0.050271 0.696046 0.179080 -0.114300
C34   C     C_R   0.061669 0.666544 0.208887 -0.114847
C35   C     C_R   0.040398 0.843502 0.218395 0.464334
N2    N     N_R   0.036757 0.824047 0.175986 -0.181919
C36   C     C_R   0.038577 0.775903 0.162542 0.468073
O11   O     O_2   0.086652 0.609256 0.270479 -0.547912
O12   O     O_2   0.096565 0.742760 0.380576 -0.531501
H12   H     H_    0.071668 0.820112 0.355653 0.177143
H13   H     H_    0.052008 0.871404 0.303835 0.174795
O13   O     O_2   0.035174 0.890871 0.230973 -0.550183
O14   O     O_2   0.035786 0.757491 0.120738 -0.544649
H14   H     H_    0.045343 0.679981 0.145815 0.176790
H15   H     H_    0.065088 0.628684 0.197638 0.176628
C37   C     C_R   0.879457 0.855534 0.118183 -0.060952
H16   H     H_    0.754793 0.833194 0.120380 0.131399
C38   C     C_R   0.880890 0.885208 0.088385 -0.235953
H17   H     H_    0.756578 0.884567 0.067951 0.153670
C39   C     C_R   0.040177 0.914958 0.084598 -0.178734
C40   C     C_R   0.200545 0.914385 0.112273 0.265620
C41   C     C_R   0.196507 0.884106 0.141934 -0.097858
H18   H     H_    0.318111 0.883215 0.162886 0.126251
C42   C     C_R   0.037214 0.854710 0.145140 0.172751
C43   C     C_R   0.964998 0.642999 0.385639 -0.060750
H19   H     H_    0.835151 0.663756 0.385593 0.138178
C44   C     C_R   0.983826 0.613446 0.415229 -0.204168
H20   H     H_    0.867853 0.612594 0.437792 0.164775
C45   C     C_R   0.149954 0.585641 0.416143 -0.170758
C46   C     C_R   0.299576 0.588182 0.386066 0.260593
C47   C     C_R   0.278402 0.618318 0.356596 -0.086065
H21   H     H_    0.391682 0.620603 0.333683 0.126509
C48   C     C_R   0.111940 0.645683 0.356098 0.166263
C49   C     C_R   0.727600 0.210306 0.828757 0.499231
N3    N     N_R   0.579305 0.177962 0.826538 -0.181699
C50   C     C_R   0.440691 0.174675 0.795786 0.447664
C51   C     C_R   0.445477 0.204829 0.766175 -0.031087
C52   C     C_R   0.598580 0.237622 0.767280 -0.048712
C53   C     C_R   0.744723 0.240411 0.798471 -0.090520
C54   C     C_R   0.299876 0.202764 0.735474 -0.121795
C55   C     C_R   0.305837 0.232525 0.705950 -0.128524
C56   C     C_R   0.458017 0.265023 0.706200 -0.038996
C57   C     C_R   0.604401 0.267654 0.736985 -0.003929
C58   C     C_R   0.756178 0.300284 0.737390 -0.132550
C59   C     C_R   0.903046 0.302406 0.767549 -0.117294
C60   C     C_R   0.900450 0.273199 0.797977 0.252302
C61   C     C_R   0.467667 0.294983 0.676266 0.537279
N4    N     N_R   0.614930 0.327396 0.677640 -0.174937
C62   C     C_R   0.757793 0.330375 0.707515 0.549842
O15   O     O_2   0.855147 0.213671 0.860729 -0.553480
O16   O     O_2   0.298676 0.141975 0.793588 -0.565403
H22   H     H_    0.179832 0.178230 0.734253 0.170680
H23   H     H_    0.190551 0.229960 0.682936 0.167626
O17   O     O_2   0.331141 0.291634 0.645999 -0.562230
O18   O     O_2   0.900235 0.362746 0.708678 -0.462822
H24   H     H_    0.021544 0.327186 0.767494 0.194128
C63   C     C_R   0.475749 0.391926 0.644677 0.411137
C64   C     C_R   0.484677 0.419052 0.612531 -0.294737
H25   H     H_    0.373356 0.444888 0.610890 0.174388
C65   C     C_R   0.640463 0.415063 0.583930 -0.181085
C66   C     C_R   0.787332 0.382623 0.587199 -0.134882
H26   H     H_    0.909358 0.378815 0.565640 0.139639
C67   C     C_R   0.776733 0.354120 0.617857 -0.053883
H27   H     H_    0.889801 0.328630 0.619148 0.159799
C68   C     C_R   0.622193 0.358198 0.646828 0.049480
C69   C     C_R   0.725447 0.117702 0.862463 -0.058133
H28   H     H_    0.854379 0.117771 0.843262 0.146703
C70   C     C_R   0.716701 0.088151 0.892369 -0.183544
H29   H     H_    0.839809 0.066107 0.895608 0.134751
C71   C     C_R   0.549727 0.086440 0.917184 -0.138573
C72   C     C_R   0.392599 0.115434 0.911665 -0.121143
H30   H     H_    0.262228 0.115181 0.930384 0.162782
C73   C     C_R   0.402895 0.145644 0.882310 -0.063761
H31   H     H_    0.281260 0.168169 0.879161 0.157915
C74   C     C_R   0.569017 0.146936 0.857199 0.201015
C75   C     C_R   0.652382 0.096180 0.135843 -0.180129
H32   H     H_    0.724356 0.062732 0.135034 0.133669
C76   C     C_R   0.662189 0.130571 0.172795 -0.114739
H33   H     H_    0.740158 0.122223 0.199496 0.117037
C77   C     C_R   0.570382 0.174478 0.175437 0.077997
C78   C     C_R   0.465118 0.182386 0.140007 -0.234450
H34   H     H_    0.398268 0.216323 0.140537 0.161765
C79   C     C_R   0.451778 0.147752 0.102741 0.367288
C80   C     C_R   0.547015 0.103993 0.100664 -0.285248
C81   C     C_R   0.437339 0.244780 0.226691 -0.149715
H35   H     H_    0.304820 0.242719 0.208684 0.134011
C82   C     C_R   0.455125 0.280543 0.262517 -0.210638
H36   H     H_    0.338575 0.305630 0.270216 0.134062
C83   C     C_R   0.620507 0.284320 0.288183 0.048837
C84   C     C_R   0.769669 0.250563 0.277314 0.311623
C85   C     C_R   0.752733 0.215692 0.240325 -0.186853
H37   H     H_    0.871302 0.191482 0.231535 0.124228
C86   C     C_R   0.586843 0.212097 0.214614 0.083585
C87   C     C_R   0.789985 0.353868 0.333318 -0.120714
H38   H     H_    0.906444 0.351031 0.310457 0.115281
C88   C     C_R   0.799297 0.389575 0.369455 -0.154975
H39   H     H_    0.924998 0.412562 0.374052 0.126594
C89   C     C_R   0.645652 0.396458 0.398665 -0.125637
C90   C     C_R   0.482579 0.366743 0.390946 -0.155051
H40   H     H_    0.361544 0.371297 0.412780 0.132323
C91   C     C_R   0.475755 0.330166 0.355392 -0.158758
H41   H     H_    0.349844 0.307270 0.350657 0.122347
C92   C     C_R   0.630340 0.322948 0.326363 0.134666
O19   O     O_R   0.699170 0.038480 0.960880 -0.594411
O20   O     O_R   0.366800 0.052460 0.047690 -0.576018
O21   O     O_R   0.193520 0.961530 0.039110 -0.591202
C93   C     C_R   0.535813 0.065519 0.062993 1.027211
O22   O     O_R   0.369630 0.044100 0.961740 -0.587800
O23   O     O_R   0.196370 0.953120 0.952550 -0.599949
C94   C     C_R   0.538939 0.054290 0.948284 0.989217
O24   O     O_R   0.696320 0.046890 0.047450 -0.584923
O25   O     O_3   0.528890 0.970170 0.997080 -0.290057
V3    V     V_3+5 0.255190 0.005530 0.000540 1.191994
O26   O     O_R   0.866460 0.947530 0.952310 -0.603116
C95   C     C_R   0.035407 0.934623 0.936662 0.918366
O27   O     O_R   0.863630 0.955880 0.038270 -0.605224
C96   C     C_R   0.032187 0.946392 0.052448 0.951739
V4    V     V_3+5 0.754830 0.994440 0.999470 1.165024
O28   O     O_3   0.031000 0.029830 0.002920 -0.247913
N5    N     N_R   0.445168 0.644353 0.580854 0.238784
O29   O     O_R   0.615248 0.658639 0.595166 -0.410181
O30   O     O_R   0.408418 0.642308 0.540887 -0.382040
C97   C     C_3   0.374768 0.946144 0.112011 -0.956087
H42   H     H_    0.328791 0.983599 0.116284 0.240585
H43   H     H_    0.476668 0.943365 0.138021 0.240543
H44   H     H_    0.455367 0.936024 0.081796 0.261208
C98   C     C_3   0.479027 0.558352 0.383608 -0.947146
H45   H     H_    0.438613 0.520453 0.380120 0.237707
H46   H     H_    0.571373 0.562218 0.356103 0.244378
H47   H     H_    0.567017 0.569336 0.412567 0.263472
C99   C     C_3   0.067308 0.278216 0.828692 -0.807876
H48   H     H_    0.014572 0.291513 0.861386 0.276392
H49   H     H_    0.140380 0.243749 0.826804 0.258613
H50   H     H_    0.178556 0.303625 0.821604 0.217248
N6    N     N_R   0.321565 0.400174 0.675374 0.255452
O31   O     O_R   0.347648 0.393463 0.713847 -0.370087
O32   O     O_R   0.162184 0.419958 0.666552 -0.361301
N7    N     N_R   0.347723 0.158455 0.067090 0.237153
O33   O     O_R   0.412550 0.144640 0.028734 -0.412277
O34   O     O_R   0.200862 0.186942 0.073134 -0.375720
C100  C     C_3   0.943035 0.249425 0.305375 -1.033726
H51   H     H_    0.042684 0.279023 0.303071 0.239258
H52   H     H_    0.896063 0.251694 0.338755 0.262667
H53   H     H_    0.025749 0.216157 0.296030 0.257840

loop_
_geom_bond_atom_site_label_1
_geom_bond_atom_site_label_2
_geom_bond_distance
_ccdc_geom_bond_type
C31   C32   1.408407 A    
C40   C41   1.409000 A    
O25   V4    1.704492 S    
C61   N4    1.372807 A    
C100  H52   1.110342 S    
C37   C42   1.400021 A    
C20   H10   1.083342 S    
O2    C1    1.297856 A    
C55   C56   1.403470 A    
C1    O6    1.295748 A    
C25   C26   1.408369 A    
C43   C48   1.400184 A    
C57   C58   1.403340 A    
C33   C34   1.398855 A    
C78   H34   1.081824 S    
C7    C16   1.498256 S    
C29   C30   1.406392 A    
C28   C29   1.398675 A    
C77   C86   1.503075 S    
C81   C86   1.407020 A    
C17   H9    1.083460 S    
C23   O11   1.349096 S    
C45   C46   1.424659 A    
C5    C10   1.406440 A    
C8    C9    1.401507 A    
C1    C65   1.485476 S    
C46   C98   1.508324 S    
C6    C7    1.408719 A    
C41   C42   1.400873 A    
C67   C68   1.406055 A    
C35   O13   1.349135 S    
C85   H37   1.082156 S    
C99   H49   1.108843 S    
C11   C12   1.400682 A    
O27   C96   1.303477 A    
C58   C62   1.410348 A    
C58   C59   1.400889 A    
C98   H45   1.110560 S    
N3    C74   1.451794 S    
C32   C33   1.406362 A    
C63   C68   1.419724 A    
C15   H8    1.082254 S    
O21   V3    1.977251 S    
N6    O32   1.301593 A    
N5    O29   1.301174 A    
C49   O15   1.347046 S    
C7    C8    1.409697 A    
C30   C31   1.408018 A    
O8    V2    1.975223 S    
C99   H48   1.109853 S    
C13   C14   1.404893 A    
C10   C95   1.488207 S    
C76   H33   1.081630 S    
C97   H43   1.111017 S    
O20   C93   1.296425 A    
C9    H4    1.083092 S    
C83   C92   1.494956 S    
C37   H16   1.082896 S    
O1    V2    1.987387 S    
C90   C91   1.401851 A    
C29   H13   1.083004 S    
O7    V1    2.149337 S    
O19   C94   1.296683 A    
V3    O28   1.701860 S    
C100  H53   1.110903 S    
C25   C28   1.406299 A    
C61   O17   1.349251 S    
C47   C48   1.402188 A    
C35   N2    1.373404 A    
O9    C4    1.298711 A    
C12   C13   1.405579 A    
C20   C21   1.397623 A    
N6    O31   1.301263 A    
C18   N5    1.437256 S    
C40   C97   1.509581 S    
C64   C65   1.405109 A    
C64   H25   1.083245 S    
C44   C45   1.409268 A    
C69   C70   1.400526 A    
C52   C57   1.420193 A    
C65   C66   1.403071 A    
O22   C94   1.298035 A    
C30   C35   1.409868 A    
C98   H46   1.110975 S    
V2    O10   2.153312 S    
C85   C86   1.409385 A    
C69   C74   1.406343 A    
C46   C47   1.409691 A    
C38   C39   1.410669 A    
C28   H12   1.083001 S    
C51   C52   1.410906 A    
C43   C44   1.398557 A    
C49   C53   1.425334 A    
C84   C85   1.409493 A    
C24   O12   1.349047 S    
C100  H51   1.106249 S    
C66   C67   1.398584 A    
C47   H21   1.083618 S    
C59   H24   1.083865 S    
C23   C27   1.410115 A    
C44   H20   1.082779 S    
C43   H19   1.082923 S    
C3    C45   1.495136 S    
N2    C36   1.373106 A    
N7    O34   1.301435 A    
O23   V3    1.986280 S    
C21   H11   1.083121 S    
C73   C74   1.406235 A    
C12   H6    1.083264 S    
C79   N7    1.439282 S    
C36   O14   1.349006 S    
N1    C24   1.373124 A    
C66   H26   1.083095 S    
C81   H35   1.081947 S    
C97   H44   1.109332 S    
N2    C42   1.447515 S    
C56   C57   1.411091 A    
C5    H1    1.083170 S    
C69   H28   1.082980 S    
C54   C55   1.394639 A    
C26   C27   1.408056 A    
C27   C34   1.406457 A    
C41   H18   1.083710 S    
C91   C92   1.407086 A    
C21   C22   1.402152 A    
C53   C60   1.430315 A    
C39   C96   1.499018 S    
O3    C4    1.297002 A    
C55   H23   1.083169 S    
C87   C88   1.400585 A    
O26   C95   1.299379 A    
C63   N6    1.440450 S    
O6    V2    1.974524 S    
O9    V2    1.988222 S    
C75   C80   1.402722 A    
C72   H30   1.083080 S    
C84   C100  1.508522 S    
C88   C89   1.405618 A    
C33   H14   1.082997 S    
C17   C22   1.404657 A    
C73   H31   1.083031 S    
O2    V1    1.980581 S    
C39   C40   1.427641 A    
C18   C19   1.421196 A    
V4    O28   2.153363 S    
O4    C2    1.297499 A    
C98   H47   1.108685 S    
C78   C79   1.410269 A    
C23   N1    1.373403 A    
C54   H22   1.083155 S    
C63   C64   1.409655 A    
O1    C2    1.295749 A    
C8    H3    1.082278 S    
C50   O16   1.349628 S    
C9    C10   1.406368 A    
C38   H17   1.082689 S    
C99   H50   1.111057 S    
O5    V1    1.977469 S    
C37   C38   1.399438 A    
O8    C3    1.298498 A    
C34   H15   1.083002 S    
C70   H29   1.083117 S    
C77   C78   1.409983 A    
C11   C16   1.409509 A    
C79   C80   1.416963 A    
C67   H27   1.083052 S    
C26   C31   1.418594 A    
C88   H39   1.083284 S    
C59   C60   1.405872 A    
C62   O18   1.348218 S    
C75   C76   1.397829 A    
C14   H7    1.083278 S    
C6    H2    1.082261 S    
C82   C83   1.405456 A    
C60   C99   1.511084 S    
N3    C50   1.370630 A    
O4    V1    1.986177 S    
C17   C18   1.408433 A    
O3    V1    1.986409 S    
V1    O10   1.701785 S    
C82   H36   1.083025 S    
N7    O33   1.301237 A    
C51   C54   1.406779 A    
O5    C3    1.299181 A    
C2    C89   1.484822 S    
C81   C82   1.398489 A    
O19   V4    1.975830 S    
C50   C51   1.405100 A    
O25   V3    2.149227 S    
O27   V4    1.975089 S    
O24   V4    1.987789 S    
C24   C25   1.410226 A    
C52   C53   1.418617 A    
C5    C6    1.399346 A    
O21   C96   1.296285 A    
O20   V3    1.986491 S    
C75   H32   1.083798 S    
C80   C93   1.481629 S    
C15   C16   1.409811 A    
C87   C92   1.406341 A    
O7    V2    1.704897 S    
N4    C62   1.372432 A    
O23   C95   1.296090 A    
N5    O30   1.301498 A    
C4    C19   1.490951 S    
O22   V3    1.980370 S    
O26   V4    1.988431 S    
C49   N3    1.374495 A    
C76   C77   1.407642 A    
C97   H42   1.110533 S    
C13   C22   1.489293 S    
C91   H41   1.083049 S    
C72   C73   1.400945 A    
C32   C36   1.410482 A    
C19   C20   1.408024 A    
C89   C90   1.406127 A    
C71   C94   1.487314 S    
C90   H40   1.083152 S    
C56   C61   1.410186 A    
C70   C71   1.407204 A    
C87   H38   1.081478 S    
C93   O24   1.293662 A    
N4    C68   1.450148 S    
C83   C84   1.419802 A    
C14   C15   1.400002 A    
C71   C72   1.407743 A    
C11   H5    1.082248 S    
N1    C48   1.447504 S    
