data_mof_unit_18868.cif
_audit_creation_date              2012-10-26T19:51:34-0400
_audit_creation_method            fapswitch 2.2
_symmetry_space_group_name_H-M    P1
_symmetry_Int_Tables_number       1
_space_group_crystal_system       triclinic
_cell_length_a                    19.336571
_cell_length_b                    18.150206
_cell_length_c                    9.057275
_cell_angle_alpha                 89.99405
_cell_angle_beta                  89.873042
_cell_angle_gamma                 90.026804
_cell_volume                      3178.75794511

loop_
_atom_site_label
_atom_site_type_symbol
_atom_type_description
_atom_site_fract_x
_atom_site_fract_y
_atom_site_fract_z
_atom_type_partial_charge
C1    C     C_R   0.367817 0.499977 0.499792 0.640993
C2    C     C_R   0.529279 0.201357 0.381943 0.191941
C3    C     C_R   0.499996 0.838730 0.499929 0.077643
C4    C     C_R   0.500018 0.161296 0.500000 0.073554
C5    C     C_R   0.545177 0.961102 0.593139 0.263002
C6    C     C_R   0.453432 0.039071 0.410034 0.260313
C7    C     C_R   0.454831 0.961089 0.406760 0.263085
C8    C     C_R   0.546591 0.039085 0.589911 0.260458
C9    C     C_R   0.500014 0.078538 0.499983 0.026539
C10   C     C_R   0.500003 0.921557 0.499936 0.028931
C11   C     C_R   0.500037 0.500000 0.220437 0.615921
C12   C     C_R   0.632181 0.500021 0.499912 0.641413
C13   C     C_R   0.499969 0.499995 0.779564 0.610737
C14   C     C_1   0.500018 0.499994 0.065526 0.055979
C15   C     C_1   0.499992 0.499987 0.934473 0.052639
C16   C     C_R   0.745092 0.500016 0.628397 0.179004
C17   C     C_R   0.254674 0.499990 0.628327 0.176342
C18   C     C_R   0.258416 0.498900 0.358849 0.179004
C19   C     C_R   0.741831 0.500856 0.358915 0.175309
C20   C     C_R   0.817650 0.497088 0.624122 0.281638
C21   C     C_R   0.182124 0.502694 0.624119 0.282107
C22   C     C_R   0.185926 0.494969 0.354422 0.283948
C23   C     C_R   0.447031 0.721138 0.565283 0.066612
C24   C     C_R   0.814338 0.504695 0.354386 0.284681
C25   C     C_R   0.851834 0.500837 0.487028 0.057155
C26   C     C_R   0.148185 0.498806 0.487088 0.056358
C27   C     C_R   0.707488 0.500123 0.495825 -0.038533
C28   C     C_R   0.292518 0.499848 0.495724 -0.038633
C29   C     C_R   0.964334 0.567329 0.484297 0.213961
C30   C     C_R   0.035688 0.432280 0.485196 0.217193
C31   C     C_R   0.036669 0.566731 0.478667 0.213705
C32   C     C_R   0.963361 0.432861 0.479494 0.216874
C33   C     C_R   0.072293 0.499227 0.482727 0.019269
C34   C     C_R   0.470696 0.278792 0.614620 0.070195
C35   C     C_R   0.927732 0.500380 0.482624 0.019608
C36   C     C_3   0.853093 0.423922 0.816752 0.032697
C37   C     C_3   0.923243 0.404256 0.881957 -0.342984
C38   C     C_3   0.145843 0.576095 0.815840 0.035245
C39   C     C_3   0.075605 0.595097 0.881994 -0.342078
C40   C     C_3   0.157037 0.418880 0.161673 0.034951
C41   C     C_3   0.089338 0.396889 0.088300 -0.341520
C42   C     C_3   0.843232 0.580606 0.161013 0.037454
C43   C     C_3   0.910987 0.602902 0.087630 -0.339695
C44   C     C_3   0.561485 0.913052 0.821695 -0.009788
C45   C     C_R   0.552967 0.721184 0.434683 0.066010
C46   C     C_3   0.609605 0.865986 0.914776 -0.320969
C47   C     C_3   0.344518 0.084267 0.388365 0.012155
C48   C     C_3   0.297595 0.131761 0.293311 -0.324249
C49   C     C_3   0.438494 0.913098 0.178176 -0.010206
C50   C     C_3   0.390267 0.866197 0.084940 -0.319553
C51   C     C_3   0.655521 0.084329 0.611596 0.011878
C52   C     C_3   0.702562 0.131569 0.706959 -0.322789
C53   C     C_R   0.529313 0.278840 0.385380 0.070507
C54   C     C_R   0.445449 0.798622 0.565351 0.185592
C55   C     C_R   0.470746 0.201308 0.618057 0.191979
C56   C     C_R   0.554545 0.798670 0.434540 0.185462
Cl1   Cl    Cl    0.701532 0.505266 0.799594 -0.533668
Cl2   Cl    Cl    0.432910 0.156307 0.770366 -0.548798
Cl3   Cl    Cl    0.624793 0.843587 0.349439 -0.597258
Cl4   Cl    Cl    0.567128 0.156419 0.229635 -0.547102
Cl5   Cl    Cl    0.297925 0.495101 0.799518 -0.541132
Cl6   Cl    Cl    0.306258 0.504143 0.192888 -0.531284
Cl7   Cl    Cl    0.694245 0.495423 0.193081 -0.541650
Cl8   Cl    Cl    0.919683 0.652087 0.496151 -0.509030
Cl9   Cl    Cl    0.080318 0.347558 0.498008 -0.533730
Cl10  Cl    Cl    0.082639 0.650750 0.467131 -0.504699
Cl11  Cl    Cl    0.917396 0.348813 0.469180 -0.529074
Cl12  Cl    Cl    0.375196 0.843475 0.650405 -0.595259
Cu1   Cu    Cu3+1 0.500000 0.573360 0.500000 1.044809
Cu2   Cu    Cu3+1 0.500000 0.426640 0.500000 1.050354
H1    H     H_    0.405566 0.690870 0.617853 0.181205
H2    H     H_    0.159503 0.620351 0.735232 0.178754
H3    H     H_    0.184666 0.576999 0.905995 0.234995
H4    H     H_    0.063631 0.558093 0.976012 0.164609
H5    H     H_    0.076067 0.652722 0.923129 0.159809
H6    H     H_    0.034520 0.589579 0.797317 0.188551
H7    H     H_    0.169612 0.375821 0.245518 0.165966
H8    H     H_    0.198316 0.418344 0.076248 0.234520
H9    H     H_    0.079724 0.431684 0.989973 0.181518
H10   H     H_    0.092126 0.338538 0.051974 0.152747
H11   H     H_    0.045629 0.403055 0.166996 0.187474
H12   H     H_    0.447052 0.308972 0.704396 0.184447
H13   H     H_    0.830190 0.623737 0.244486 0.175907
H14   H     H_    0.802189 0.580722 0.075452 0.235253
H15   H     H_    0.920999 0.568041 0.989510 0.178906
H16   H     H_    0.907986 0.661188 0.050969 0.159533
H17   H     H_    0.954540 0.597090 0.166413 0.187425
H18   H     H_    0.511013 0.883857 0.813405 0.140564
H19   H     H_    0.553742 0.966830 0.878603 0.196523
H20   H     H_    0.660001 0.894439 0.929183 0.204329
H21   H     H_    0.586185 0.856202 0.024897 0.139414
H22   H     H_    0.618350 0.812015 0.860027 0.186331
H23   H     H_    0.594434 0.690949 0.382140 0.180061
H24   H     H_    0.349834 0.111545 0.497954 0.167055
H25   H     H_    0.319527 0.029473 0.403214 0.200605
H26   H     H_    0.290351 0.105675 0.183492 0.195702
H27   H     H_    0.246373 0.137863 0.347616 0.136156
H28   H     H_    0.320889 0.187229 0.278294 0.184190
H29   H     H_    0.488896 0.883810 0.186415 0.140627
H30   H     H_    0.446370 0.966908 0.121416 0.196439
H31   H     H_    0.339941 0.894752 0.070610 0.204811
H32   H     H_    0.413668 0.856472 0.974794 0.139409
H33   H     H_    0.381388 0.812193 0.139518 0.187657
H34   H     H_    0.552955 0.309058 0.295610 0.185442
H35   H     H_    0.650227 0.111828 0.502222 0.167440
H36   H     H_    0.680406 0.029534 0.596306 0.200390
H37   H     H_    0.709761 0.105262 0.816585 0.195947
H38   H     H_    0.753791 0.137692 0.652671 0.136088
H39   H     H_    0.679393 0.187043 0.722390 0.185710
H40   H     H_    0.838799 0.379573 0.736992 0.169433
H41   H     H_    0.814443 0.423793 0.907624 0.234572
H42   H     H_    0.935989 0.441664 0.974705 0.165668
H43   H     H_    0.922089 0.346915 0.924640 0.153737
H44   H     H_    0.964186 0.408573 0.796322 0.190664
N1    N     N_R   0.500000 0.683620 0.500000 -0.292745
N2    N     N_R   0.500000 0.316380 0.500000 -0.295882
O1    O     O_R   0.400190 0.561980 0.499980 -0.487745
O2    O     O_3   0.143341 0.504602 0.753081 -0.538583
O3    O     O_3   0.150909 0.490865 0.221149 -0.529313
O4    O     O_3   0.849613 0.508770 0.221078 -0.532027
O5    O     O_3   0.591518 0.923424 0.681162 -0.515275
O6    O     O_3   0.409207 0.076969 0.317496 -0.514008
O7    O     O_3   0.408477 0.923399 0.318732 -0.515077
O8    O     O_3   0.590828 0.076990 0.682461 -0.513940
O9    O     O_R   0.599810 0.438020 0.500020 -0.475635
O10   O     O_R   0.599810 0.561980 0.500020 -0.489035
O11   O     O_R   0.400190 0.438020 0.499980 -0.477287
O12   O     O_R   0.500000 0.561940 0.288400 -0.488194
O13   O     O_R   0.500000 0.438060 0.711600 -0.498789
O14   O     O_R   0.500000 0.561940 0.711600 -0.489418
O15   O     O_R   0.500000 0.438060 0.288400 -0.497753
O16   O     O_3   0.856231 0.495195 0.753025 -0.537403

loop_
_geom_bond_atom_site_label_1
_geom_bond_atom_site_label_2
_ccdc_geom_bond_type
Cu2   O11   S    
C8    C9    A    
C31   Cl10  S    
C21   C26   A    
C7    C10   A    
C45   H23   S    
C6    C9    A    
C48   H27   S    
C36   C37   S    
C20   O16   S    
C36   O16   S    
C38   C39   S    
C11   C14   S    
C2    Cl4   S    
C12   O10   A    
C20   C25   A    
C53   H34   S    
C34   N2    A    
C49   O7    S    
C5    O5    S    
C44   O5    S    
C39   H4    S    
C37   H42   S    
C17   Cl5   S    
C52   H37   S    
Cu1   O12   S    
C19   Cl7   S    
Cu1   O14   S    
C1    C28   S    
C13   O14   A    
C31   C33   A    
C39   H5    S    
C19   C27   A    
C53   N2    A    
C51   H35   S    
C16   C27   A    
C29   Cl8   S    
C50   H33   S    
C51   O8    S    
C17   C28   A    
C41   H10   S    
C44   C46   S    
C22   O3    S    
C38   H2    S    
C24   O4    S    
C12   C27   S    
C51   C52   S    
C43   H15   S    
C32   C35   A    
C23   H1    S    
C18   C28   A    
C24   C25   A    
C45   C56   A    
C18   Cl6   S    
C47   O6    S    
C37   H44   S    
Cu2   N2    S    
Cu2   O13   S    
C17   C21   A    
C2    C4    A    
C21   O2    S    
C49   H29   S    
C3    C56   A    
C45   N1    A    
C26   C33   S    
C47   C48   S    
C16   C20   A    
C54   Cl12  S    
C41   H11   S    
C36   H41   S    
C42   H14   S    
C1    O1    A    
C39   H6    S    
C25   C35   S    
C32   Cl11  S    
Cu2   O9    S    
C40   C41   S    
Cu1   O10   S    
C50   H32   S    
C13   C15   S    
C4    C55   A    
C36   H40   S    
C40   H8    S    
C42   C43   S    
C6    O6    S    
C23   C54   A    
Cu1   N1    S    
C47   H25   S    
C48   H26   S    
C30   C33   A    
C18   C22   A    
C43   H16   S    
C8    O8    S    
C42   H13   S    
C1    O11   A    
C7    O7    S    
C2    C53   A    
C11   O15   A    
C41   H9    S    
C5    C8    A    
C6    C7    A    
C46   H20   S    
C48   H28   S    
C29   C35   A    
C12   O9    A    
C56   Cl3   S    
C43   H17   S    
C11   O12   A    
C5    C10   A    
C29   C31   A    
C3    C10   S    
C49   H30   S    
C30   C32   A    
C42   O4    S    
C52   H39   S    
C51   H36   S    
Cu1   O1    S    
Cu2   O15   S    
C3    C54   A    
C47   H24   S    
C19   C24   A    
C16   Cl1   S    
C40   H7    S    
Cu1   Cu2   S    
C30   Cl9   S    
C23   N1    A    
C38   O2    S    
C34   C55   A    
C40   O3    S    
C46   H22   S    
C52   H38   S    
C50   H31   S    
C49   C50   S    
C22   C26   A    
C55   Cl2   S    
C13   O13   A    
C14   C15   T    
C37   H43   S    
C34   H12   S    
C4    C9    S    
C44   H18   S    
C46   H21   S    
C44   H19   S    
C38   H3    S    
