data_mof_unit_49508.cif
_audit_creation_date              2012-12-11T15:09:36-0500
_audit_creation_method            fapswitch 2.2
_symmetry_space_group_name_H-M    P1
_symmetry_Int_Tables_number       1
_space_group_crystal_system       triclinic
_cell_length_a                    20.915872
_cell_length_b                    7.12851
_cell_length_c                    14.023786
_cell_angle_alpha                 90.046562
_cell_angle_beta                  98.073551
_cell_angle_gamma                 89.933487
_cell_volume                      2070.20658813

loop_
_atom_site_label
_atom_site_type_symbol
_atom_type_description
_atom_site_fract_x
_atom_site_fract_y
_atom_site_fract_z
_atom_type_partial_charge
O1    O     O_R   0.447130 0.507140 0.597350 -0.537150
O2    O     O_R   0.552870 0.007140 0.402650 -0.537076
O3    O     O_R   0.578910 0.181280 0.586990 -0.537969
O4    O     O_R   0.421090 0.681280 0.413010 -0.537690
C1    C     C_R   0.604470 0.344455 0.607439 0.724899
C2    C     C_R   0.395531 0.844529 0.392555 0.726156
O5    O     O_R   0.449230 0.177860 0.608640 -0.541335
O6    O     O_R   0.550770 0.677860 0.391360 -0.540555
O7    O     O_R   0.422260 0.000770 0.424450 -0.535594
O8    O     O_R   0.577740 0.500770 0.575550 -0.535007
C3    C     C_R   0.433026 0.346539 0.634859 0.688289
C4    C     C_R   0.566984 0.846256 0.365146 0.687552
O9    O     O_3   0.491310 0.336980 0.439550 -0.374156
O10   O     O_3   0.508690 0.836980 0.560450 -0.374456
V1    V     V_3+5 0.501610 0.064760 0.511210 1.430766
V2    V     V_3+5 0.498390 0.564760 0.488790 1.432813
C5    C     C_R   0.618924 0.880409 0.120772 -0.162407
C6    C     C_R   0.380718 0.401475 0.878083 -0.136144
H1    H     H_    0.527783 0.875219 0.174211 0.106265
H2    H     H_    0.471879 0.397767 0.824668 0.105783
H3    H     H_    0.595311 0.892346 0.047308 0.116833
H4    H     H_    0.403887 0.424404 0.951153 0.148362
C7    C     C_R   0.607575 0.855041 0.288863 -0.026723
C8    C     C_R   0.392430 0.356752 0.711116 -0.022306
C9    C     C_R   0.920824 0.844437 0.305532 -0.162643
C10   C     C_R   0.079351 0.331941 0.695103 -0.167504
C11   C     C_R   0.883674 0.834637 0.379911 -0.119862
C12   C     C_R   0.116554 0.317040 0.620978 -0.120795
C13   C     C_R   0.816535 0.839400 0.360277 -0.141074
C14   C     C_R   0.183629 0.326491 0.640374 -0.142095
C15   C     C_R   0.784471 0.854412 0.264419 0.074040
C16   C     C_R   0.215562 0.351779 0.735704 0.073774
C17   C     C_R   0.822976 0.864781 0.188648 0.000936
C18   C     C_R   0.177006 0.368763 0.811150 0.029760
C19   C     C_R   0.715733 0.859425 0.241458 0.042199
C20   C     C_R   0.284223 0.360910 0.758410 0.024723
C21   C     C_R   0.686822 0.875178 0.143303 0.081212
C22   C     C_R   0.312962 0.389037 0.855816 0.122228
C23   C     C_R   0.726246 0.885513 0.069633 0.168675
C24   C     C_R   0.273902 0.405724 0.929403 0.180407
C25   C     C_R   0.793018 0.880154 0.092774 -0.171628
C26   C     C_R   0.206839 0.395359 0.906470 -0.233142
C27   C     C_R   0.674517 0.849391 0.313043 -0.194937
C28   C     C_R   0.325576 0.343693 0.687289 -0.196399
C29   C     C_R   0.579810 0.870556 0.193035 -0.168057
C30   C     C_R   0.419965 0.386179 0.806191 -0.195401
C31   C     C_R   0.891172 0.859453 0.210274 -0.056059
C32   C     C_R   0.108863 0.357880 0.789795 -0.054831
H5    H     H_    0.692526 0.837408 0.388572 0.093283
H6    H     H_    0.307720 0.321570 0.612320 0.094604
H7    H     H_    0.972994 0.840190 0.322244 0.099660
H8    H     H_    0.027245 0.322901 0.678656 0.100877
H9    H     H_    0.791523 0.831034 0.422123 0.106156
H10   H     H_    0.208709 0.313643 0.578763 0.106447
H11   H     H_    0.907087 0.823068 0.453600 0.118123
H12   H     H_    0.093240 0.297343 0.547708 0.118581
H13   H     H_    0.821407 0.888420 0.033990 0.142980
H14   H     H_    0.178013 0.407984 0.964520 0.121480
C33   C     C_1   0.166667 0.856993 0.168112 -0.194217
C34   C     C_1   0.833333 0.357214 0.831847 -0.180383
C35   C     C_1   0.219096 0.854739 0.219157 0.002399
C36   C     C_1   0.780919 0.354890 0.780797 0.018574
C37   C     C_1   0.280836 0.853399 0.279203 0.006133
C38   C     C_1   0.719175 0.353359 0.720761 0.008887
C39   C     C_1   0.333169 0.851168 0.330494 -0.194004
C40   C     C_1   0.666837 0.351007 0.669486 -0.196359
O11   O     O_R   0.922300 0.202240 0.924350 -0.532031
O12   O     O_R   0.077700 0.702240 0.075650 -0.534402
O13   O     O_R   0.050780 0.535130 0.891350 -0.540752
O14   O     O_R   0.949220 0.035130 0.108650 -0.540346
C41   C     C_R   0.067517 0.367839 0.865534 0.682194
C42   C     C_R   0.932489 0.868114 0.134482 0.679371
O15   O     O_R   0.921100 0.531560 0.912990 -0.537195
O16   O     O_R   0.078900 0.031560 0.087010 -0.538197
O17   O     O_R   0.947120 0.708470 0.097370 -0.537034
O18   O     O_R   0.052880 0.208470 0.902630 -0.537377
C43   C     C_R   0.895851 0.363600 0.893509 0.715150
C44   C     C_R   0.104155 0.863516 0.106475 0.715392
O19   O     O_3   0.008710 0.375800 0.060400 -0.374697
O20   O     O_3   0.991290 0.875800 0.939600 -0.373236
V3    V     V_3+5 0.998380 0.648080 0.988790 1.431851
V4    V     V_3+5 0.001620 0.148080 0.011210 1.431157
N1    N     N_3   0.699924 0.901663 0.969877 -0.669084
H15   H     H_    0.672096 0.023900 0.960369 0.229301
H16   H     H_    0.670471 0.785522 0.950422 0.229032
N2    N     N_3   0.302578 0.433282 0.027854 -0.675883
H17   H     H_    0.267362 0.466094 0.071298 0.235640
H18   H     H_    0.322997 0.305456 0.052862 0.225248

loop_
_geom_bond_atom_site_label_1
_geom_bond_atom_site_label_2
_ccdc_geom_bond_type
C22   C24   A    
C37   C39   T    
C7    C29   A    
C11   C13   A    
O11   C43   A    
O2    C4    A    
C26   H14   S    
C2    O7    A    
C12   H12   S    
C23   C25   A    
O5    C3    A    
C14   H10   S    
C4    C7    S    
O12   V3    S    
C16   C20   A    
C19   C21   A    
C5    C29   A    
C41   O18   A    
O20   V3    S    
C11   H11   S    
C3    C8    S    
C7    C27   A    
C34   C36   T    
C24   N2    S    
O13   C41   A    
C36   C38   S    
C2    C39   S    
C18   C26   A    
O1    C3    A    
C15   C17   A    
C19   C27   A    
C9    C31   A    
C10   C32   A    
C24   C26   A    
O6    V2    S    
O16   V4    S    
C42   O17   A    
C6    C30   A    
C33   C44   S    
O15   V3    S    
O12   C44   A    
C34   C43   S    
C33   C35   T    
O20   V4    S    
O18   V4    S    
O19   V3    S    
N2    H17   S    
C27   H5    S    
O5    V1    S    
C5    H3    S    
C16   C18   A    
O4    V2    S    
C9    H7    S    
C10   H8    S    
N1    H15   S    
O6    C4    A    
C35   C37   S    
O1    V2    S    
C5    C21   A    
O2    V1    S    
O4    C2    A    
N1    H16   S    
C17   C31   A    
C15   C19   A    
C20   C28   A    
C18   C32   A    
C32   C41   S    
O3    V1    S    
C28   H6    S    
C6    H4    S    
O17   V3    S    
C1    C40   S    
O3    C1    A    
O19   V4    S    
H1    C29   S    
C9    C11   A    
C10   C12   A    
C17   C25   A    
C12   C14   A    
C6    C22   A    
C25   H13   S    
C1    O8    A    
C21   C23   A    
O8    V2    S    
C14   C16   A    
C13   H9    S    
C8    C28   A    
C20   C22   A    
N2    H18   S    
O7    V1    S    
O14   V4    S    
C31   C42   S    
O13   V3    S    
C23   N1    S    
O11   V4    S    
C13   C15   A    
O16   C44   A    
O9    V2    S    
O15   C43   A    
O10   V1    S    
O14   C42   A    
H2    C30   S    
C38   C40   T    
C8    C30   A    
