data_mof_unit_50953.cif
_audit_creation_date              2013-03-05T16:04:28-0500
_audit_creation_method            fapswitch 2.2
_symmetry_space_group_name_H-M    P1
_symmetry_Int_Tables_number       1
_space_group_crystal_system       triclinic
_cell_length_a                    10.771063
_cell_length_b                    9.515283
_cell_length_c                    15.108686
_cell_angle_alpha                 90.384352
_cell_angle_beta                  89.937434
_cell_angle_gamma                 90.085105
_cell_volume                      1548.44743128

loop_
_atom_site_label
_atom_site_type_symbol
_atom_site_description
_atom_site_fract_x
_atom_site_fract_y
_atom_site_fract_z
_atom_type_partial_charge
O1    O     O_R   0.319640 0.618740 0.499990 -0.575692
O2    O     O_R   0.680360 0.381260 0.500010 -0.575694
O3    O     O_R   0.680360 0.618740 0.500010 -0.586312
O4    O     O_R   0.319640 0.381260 0.499990 -0.586313
C1    C     C_R   0.262611 0.499904 0.500426 0.822791
C2    C     C_R   0.737389 0.500095 0.499574 0.822790
O5    O     O_R   0.499970 0.618800 0.370260 -0.598207
O6    O     O_R   0.500030 0.381200 0.629740 -0.598208
O7    O     O_R   0.500030 0.618800 0.629740 -0.526640
O8    O     O_R   0.499970 0.381200 0.370260 -0.526642
C3    C     C_R   0.500444 0.499409 0.328620 0.824727
C4    C     C_R   0.499556 0.500591 0.671379 0.824727
Cu1   Cu    Cu3+1 0.500000 0.640660 0.500000 0.980349
Cu2   Cu    Cu3+1 0.500000 0.359340 0.500000 0.980348
C5    C     C_R   0.534307 0.380980 0.813290 -0.277378
C6    C     C_R   0.465693 0.619019 0.186710 -0.277377
C7    C     C_R   0.498645 0.501838 0.768162 -0.215456
C8    C     C_R   0.501355 0.498162 0.231838 -0.215455
C9    C     C_R   0.462434 0.622414 0.815196 0.612807
C10   C     C_R   0.537566 0.377585 0.184804 0.612805
C11   C     C_R   0.463084 0.622893 0.907936 -0.141419
C12   C     C_R   0.536915 0.377107 0.092064 -0.141419
C13   C     C_R   0.499680 0.500119 0.953489 -0.102766
C14   C     C_R   0.500320 0.499880 0.046511 -0.102766
C15   C     C_R   0.535270 0.377596 0.905882 0.066118
C16   C     C_R   0.464730 0.622404 0.094118 0.066118
C17   C     C_R   0.427730 0.743906 0.955616 0.638236
C18   C     C_R   0.572270 0.256094 0.044384 0.638236
C19   C     C_R   0.428790 0.745211 0.048333 0.031558
C20   C     C_R   0.571209 0.254789 0.951667 0.031558
H1    H     H_    0.562551 0.289991 0.775064 0.185331
H2    H     H_    0.437449 0.710009 0.224936 0.185331
C21   C     C_R   0.066280 0.473139 0.420204 0.125083
C22   C     C_R   0.933720 0.526865 0.579796 0.125082
C23   C     C_R   0.935680 0.473538 0.419245 0.116039
C24   C     C_R   0.064320 0.526460 0.580755 0.116039
C25   C     C_R   0.871402 0.500322 0.499230 -0.096662
C26   C     C_R   0.128598 0.499678 0.500769 -0.096661
C27   C     C_R   0.426393 0.073717 0.442696 0.040441
C28   C     C_R   0.573607 0.926283 0.557304 0.040441
C29   C     C_R   0.573615 0.075145 0.557301 -0.002336
C30   C     C_R   0.426384 0.924855 0.442699 -0.002336
H3    H     H_    0.367406 0.129278 0.396827 0.128043
H4    H     H_    0.632594 0.870722 0.603173 0.128042
H5    H     H_    0.632620 0.131837 0.603181 0.118648
H6    H     H_    0.367380 0.868162 0.396819 0.118648
N1    N     N_R   0.500000 0.852070 0.500000 -0.165468
N2    N     N_R   0.500000 0.147930 0.500000 -0.165468
F1    F     F_    0.424616 0.738170 0.770372 -0.610488
F2    F     F_    0.575384 0.261830 0.229628 -0.610490
F3    F     F_    0.391596 0.861427 0.911976 -0.629174
F4    F     F_    0.608404 0.138573 0.088023 -0.629174
C31   C     C_3   0.391550 0.878060 0.097293 -0.717152
H7    H     H_    0.368621 0.965971 0.052333 0.285503
H8    H     H_    0.308283 0.857348 0.138613 0.201956
H9    H     H_    0.469109 0.914055 0.140182 0.271314
C32   C     C_3   0.608449 0.121940 0.902707 -0.717151
H10   H     H_    0.631378 0.034029 0.947666 0.285503
H11   H     H_    0.530890 0.085945 0.859818 0.271314
H12   H     H_    0.691717 0.142652 0.861387 0.201955
C33   C     C_3   0.142100 0.446565 0.336541 -0.833061
H13   H     H_    0.200433 0.351551 0.345192 0.231698
H14   H     H_    0.086546 0.429346 0.275960 0.242129
H15   H     H_    0.203455 0.538180 0.323787 0.214422
C34   C     C_3   0.857900 0.553447 0.663458 -0.833058
H16   H     H_    0.799564 0.648458 0.654802 0.231698
H17   H     H_    0.796548 0.461831 0.676217 0.214422
H18   H     H_    0.913454 0.570678 0.724037 0.242129
C35   C     C_3   0.866313 0.447190 0.333089 -0.763839
H19   H     H_    0.764117 0.451177 0.339332 0.226963
H20   H     H_    0.892173 0.528494 0.283985 0.225727
H21   H     H_    0.889729 0.341200 0.306836 0.252171
C36   C     C_3   0.133687 0.552799 0.666912 -0.763835
H22   H     H_    0.235882 0.548793 0.660671 0.226952
H23   H     H_    0.110285 0.658793 0.693164 0.252172
H24   H     H_    0.107815 0.471500 0.716016 0.225729

loop_
_geom_bond_atom_site_label_1
_geom_bond_atom_site_label_2
_geom_bond_distance
_ccdc_geom_bond_type
C28   N1    1.366917 A    
C3    C8    1.462250 S    
C17   C19   1.400870 A    
C22   C25   1.411795 A    
C36   H22   1.105369 S    
O3    C2    1.286007 A    
C31   H7    1.109384 S    
O5    C3    1.294923 A    
O1    C1    1.286077 A    
C9    C11   1.401183 A    
C14   C16   1.418792 A    
C5    C15   1.399589 A    
C20   C32   1.514703 S    
C35   H20   1.110456 S    
C30   H6    1.081828 S    
C33   H14   1.105231 S    
O7    Cu1   1.972594 S    
C10   F2    1.360036 S    
C21   C23   1.406806 A    
C34   H17   1.110892 S    
C4    C7    1.462250 S    
C13   C14   1.405489 A    
C22   C24   1.406806 A    
C33   H13   1.110256 S    
O3    Cu1   1.954141 S    
C11   C17   1.406918 A    
C12   C18   1.406919 A    
C1    C26   1.443461 S    
C36   H23   1.110506 S    
O2    C2    1.286076 A    
C22   C34   1.524057 S    
C17   F3    1.359560 S    
C27   C30   1.416463 A    
C31   H8    1.110349 S    
C6    C16   1.399589 A    
C24   C36   1.520759 S    
Cu1   N1    2.011626 S    
C32   H12   1.110351 S    
Cu2   N2    2.011627 S    
C33   H15   1.110891 S    
C9    F1    1.360036 S    
C28   H4    1.081813 S    
O6    C4    1.294922 A    
C34   H18   1.105233 S    
C2    C25   1.443461 S    
C6    C8    1.395463 A    
C28   C29   1.416463 A    
C10   C12   1.401183 A    
C11   C13   1.416522 A    
O8    Cu2   1.972594 S    
C36   H24   1.110456 S    
C12   C14   1.416521 A    
O1    Cu1   1.953526 S    
C35   H21   1.110505 S    
C31   H9    1.110159 S    
C15   C20   1.416557 A    
C5    C7    1.395463 A    
O6    Cu2   1.969818 S    
C23   C25   1.413955 A    
O4    C1    1.286006 A    
C27   H3    1.081814 S    
C5    H1    1.081379 S    
C6    H2    1.081379 S    
C21   C26   1.411794 A    
C18   C20   1.400870 A    
C18   F4    1.359560 S    
C32   H10   1.109384 S    
C19   C31   1.514703 S    
C24   C26   1.413954 A    
C7    C9    1.401155 A    
C29   N2    1.367132 A    
C8    C10   1.401155 A    
C30   N1    1.367134 A    
C13   C15   1.418791 A    
O4    Cu2   1.954142 S    
C35   H19   1.105370 S    
O2    Cu2   1.953525 S    
O7    C4    1.292454 A    
C32   H11   1.110158 S    
O8    C3    1.292454 A    
O5    Cu1   1.969818 S    
C23   C35   1.520761 S    
C16   C19   1.416557 A    
C21   C33   1.524055 S    
C34   H16   1.110258 S    
C29   H5    1.081828 S    
Cu1   Cu2   2.676839 S    
C27   N2    1.366918 A    
