data_mof_unit_22115.cif
_audit_creation_date              2012-12-10T20:55:42-0500
_audit_creation_method            fapswitch 2.2
_symmetry_space_group_name_H-M    P1
_symmetry_Int_Tables_number       1
_space_group_crystal_system       triclinic
_cell_length_a                    15.857257
_cell_length_b                    15.034391
_cell_length_c                    10.349907
_cell_angle_alpha                 90.5074
_cell_angle_beta                  88.224367
_cell_angle_gamma                 89.635681
_cell_volume                      2466.1254976

loop_
_atom_site_label
_atom_site_type_symbol
_atom_type_description
_atom_site_fract_x
_atom_site_fract_y
_atom_site_fract_z
_atom_type_partial_charge
C1    C     C_1   0.250480 0.501386 0.496218 0.022768
C2    C     C_1   0.749365 0.499563 0.490140 0.035149
C3    C     C_R   0.465112 0.501924 0.882134 0.105628
C4    C     C_R   0.539864 0.498372 0.119883 0.110878
C5    C     C_R   0.500210 0.905052 0.499818 -0.469313
C6    C     C_R   0.499859 0.094940 0.500202 -0.475598
C7    C     C_R   0.473380 0.952600 0.391737 0.582111
C8    C     C_R   0.526715 0.047392 0.608268 0.575984
C9    C     C_R   0.526894 0.953482 0.608071 0.579790
C10   C     C_R   0.473206 0.046508 0.391931 0.584937
C11   C     C_R   0.952669 0.571058 0.547928 0.277946
C12   C     C_R   0.048131 0.452902 0.388340 0.284033
C13   C     C_R   0.039306 0.561630 0.567934 0.299093
C14   C     C_R   0.959953 0.442907 0.397878 0.297927
C15   C     C_R   0.338779 0.500292 0.499624 0.947870
C16   C     C_R   0.661159 0.499769 0.500000 0.920830
C17   C     C_R   0.518143 0.499499 0.259494 0.907703
C18   C     C_R   0.484690 0.500540 0.741929 0.924923
C19   C     C_R   0.913196 0.505588 0.473407 -0.247053
C20   C     C_R   0.086773 0.506135 0.482213 -0.242874
C21   C     C_1   0.500150 0.807219 0.499812 0.487852
C22   C     C_1   0.499866 0.192776 0.500223 0.495408
C23   C     C_1   0.824082 0.501262 0.480646 0.283344
C24   C     C_1   0.175793 0.503401 0.490865 0.276917
C25   C     C_R   0.571044 0.660907 0.096530 0.218376
C26   C     C_R   0.433696 0.339547 0.906448 0.197027
C27   C     C_R   0.445708 0.667191 0.910403 0.216691
C28   C     C_R   0.559388 0.333299 0.091831 0.219218
C29   C     C_R   0.542269 0.742366 0.050381 0.533601
C30   C     C_R   0.462152 0.258074 0.953083 0.516967
C31   C     C_R   0.477939 0.745501 0.963122 0.540860
C32   C     C_R   0.526632 0.254938 0.040148 0.553624
C33   C     C_R   0.479106 0.583097 0.948548 -0.218399
C34   C     C_R   0.526360 0.417329 0.053100 -0.210593
C35   C     C_R   0.532493 0.580395 0.054754 -0.208352
C36   C     C_R   0.472832 0.419947 0.947200 -0.213675
N1    N     N_1   0.500000 0.270550 0.500000 -0.049314
N2    N     N_1   0.500000 0.729450 0.500000 -0.055718
O1    O     O_R   0.378020 0.573650 0.500040 -0.578605
O2    O     O_R   0.621980 0.426350 0.499960 -0.576296
O3    O     O_R   0.621980 0.573650 0.499960 -0.579952
O4    O     O_R   0.378020 0.426350 0.500040 -0.575658
O5    O     O_R   0.499990 0.573670 0.316780 -0.613602
O6    O     O_R   0.500010 0.426330 0.683220 -0.611742
O7    O     O_R   0.500010 0.573670 0.683220 -0.611748
O8    O     O_R   0.499990 0.426330 0.316780 -0.612965
Zn1   Zn    Zn3+2 0.500000 0.598370 0.500000 1.119681
Zn2   Zn    Zn3+2 0.500000 0.401630 0.500000 1.124921
S1    S     S_3+6 0.088319 0.611698 0.703287 0.128417
O9    O     O_2   0.139179 0.690100 0.658051 -0.226608
O10   O     O_2   0.024941 0.641318 0.805999 -0.178641
O11   O     O_3   0.152777 0.536641 0.769180 -0.482580
H1    H     H_    0.162991 0.559672 0.857258 0.423035
S2    S     S_3+6 0.907922 0.352242 0.321616 0.133063
O12   O     O_2   0.877702 0.382176 0.192793 -0.173377
O13   O     O_2   0.966569 0.273995 0.302385 -0.183120
O14   O     O_3   0.824630 0.318828 0.413036 -0.533354
H2    H     H_    0.807849 0.261140 0.375090 0.404105
S3    S     S_3+6 0.893585 0.664957 0.608407 0.125193
O15   O     O_2   0.852258 0.641708 0.736263 -0.225996
O16   O     O_2   0.949750 0.744159 0.624899 -0.154489
O17   O     O_3   0.818501 0.692446 0.504190 -0.532257
H3    H     H_    0.781222 0.735294 0.552070 0.405524
S4    S     S_3+6 0.110669 0.402189 0.260666 0.133042
O18   O     O_2   0.144393 0.314733 0.306647 -0.206833
O19   O     O_2   0.059569 0.387121 0.142657 -0.149005
O20   O     O_3   0.192268 0.468003 0.218536 -0.567192
H4    H     H_    0.227263 0.432109 0.156344 0.404421
F1    F     F_    0.556729 0.174267 0.075700 -0.467183
F2    F     F_    0.447109 0.826196 0.929112 -0.460155
F3    F     F_    0.428040 0.180496 0.912268 -0.501301
F4    F     F_    0.575698 0.820007 0.092357 -0.473680
F5    F     F_    0.446806 0.090206 0.286160 -0.512695
F6    F     F_    0.553314 0.909780 0.713825 -0.516810
F7    F     F_    0.552957 0.091947 0.714218 -0.517531
F8    F     F_    0.447149 0.908046 0.285779 -0.516273
S5    S     S_3+6 0.664138 0.664959 0.186740 0.128390
O21   O     O_2   0.644406 0.706486 0.316660 -0.270814
O22   O     O_2   0.702679 0.574875 0.203161 -0.265457
O23   O     O_3   0.734557 0.729405 0.107537 -0.417543
H5    H     H_    0.783211 0.733232 0.165056 0.411264
S6    S     S_3+6 0.339741 0.336232 0.818310 0.120465
O24   O     O_2   0.303433 0.426917 0.798442 -0.238956
O25   O     O_2   0.357375 0.292306 0.689295 -0.279322
O26   O     O_3   0.267825 0.275968 0.901923 -0.437927
H6    H     H_    0.263121 0.219108 0.853709 0.420831
S7    S     S_3+6 0.352894 0.680338 0.821077 0.136425
O27   O     O_2   0.368753 0.746147 0.714833 -0.237804
O28   O     O_2   0.323222 0.594978 0.763934 -0.281888
O29   O     O_3   0.276920 0.721036 0.922470 -0.455783
H7    H     H_    0.231276 0.740857 0.866048 0.423492
S8    S     S_3+6 0.651567 0.320155 0.182420 0.132978
O30   O     O_2   0.686906 0.406709 0.226705 -0.247713
O31   O     O_2   0.631828 0.263162 0.297724 -0.289763
O32   O     O_3   0.724473 0.267765 0.087264 -0.425796
H8    H     H_    0.762026 0.236841 0.147223 0.406605

loop_
_geom_bond_atom_site_label_1
_geom_bond_atom_site_label_2
_ccdc_geom_bond_type
C7    C10   A    
S7    O27   D    
O32   H8    S    
C30   F3    S    
O29   H7    S    
S5    O21   D    
C27   C33   A    
C11   C19   A    
C25   S5    S    
C12   S4    S    
C10   F5    S    
C3    C33   A    
C6    C22   S    
C3    C18   S    
C31   F2    S    
C21   N2    T    
C20   C24   S    
C8    C9    A    
S1    O10   D    
C1    C15   S    
C2    C16   S    
C29   F4    S    
O7    Zn1   S    
C4    C35   A    
C28   C34   A    
S3    O15   D    
C26   S6    S    
C11   S3    S    
C4    C34   A    
S5    O22   D    
C25   C29   A    
S2    O13   D    
S3    O16   D    
C27   C31   A    
O20   H4    S    
S4    O20   S    
C28   C32   A    
C17   O8    A    
C5    C7    A    
C6    C8    A    
O26   H6    S    
C22   N1    T    
S6    O24   D    
C8    F7    S    
S4    O19   D    
C19   C23   S    
C17   O5    A    
C5    C9    A    
O17   H3    S    
C18   O6    A    
S1    O11   S    
C12   C20   A    
S8    O31   D    
O3    Zn1   S    
C28   S8    S    
O4    Zn2   S    
N1    Zn2   S    
C27   S7    S    
C15   O1    A    
N2    Zn1   S    
C32   F1    S    
C16   O2    A    
C13   S1    S    
C4    C17   S    
C26   C36   A    
C14   S2    S    
C25   C35   A    
C26   C30   A    
S6    O25   D    
S7    O28   D    
C9    F6    S    
C18   O7    A    
O11   H1    S    
O1    Zn1   S    
S5    O23   S    
O2    Zn2   S    
S2    O12   D    
S3    O17   S    
C13   C20   A    
C14   C19   A    
C15   O4    A    
C12   C14   A    
O23   H5    S    
C6    C10   A    
C7    F8    S    
S6    O26   S    
S4    O18   D    
C29   C31   A    
C30   C32   A    
C11   C13   A    
O14   H2    S    
C3    C36   A    
S8    O30   D    
C33   C35   A    
C34   C36   A    
S8    O32   S    
O8    Zn2   S    
C5    C21   S    
C1    C24   T    
S1    O9    D    
S7    O29   S    
C2    C23   T    
O5    Zn1   S    
C16   O3    A    
O6    Zn2   S    
S2    O14   S    
