data_mof_unit_42237.cif
_audit_creation_date              2012-12-10T20:25:44-0500
_audit_creation_method            fapswitch 2.2
_symmetry_space_group_name_H-M    P1
_symmetry_Int_Tables_number       1
_space_group_crystal_system       triclinic
_cell_length_a                    8.568525
_cell_length_b                    10.718963
_cell_length_c                    9.913445
_cell_angle_alpha                 88.124312
_cell_angle_beta                  97.671842
_cell_angle_gamma                 91.271546
_cell_volume                      901.727831185

loop_
_atom_site_label
_atom_site_type_symbol
_atom_type_description
_atom_site_fract_x
_atom_site_fract_y
_atom_site_fract_z
_atom_type_partial_charge
C1    C     C_R   0.506752 0.260350 0.502604 0.956900
C2    C     C_R   0.449333 0.396667 0.928359 0.113688
C3    C     C_3   0.290326 0.329944 0.917364 -0.164634
C4    C     C_R   0.201605 0.501343 0.464664 1.013958
C5    C     C_3   0.301341 0.328697 0.071687 0.425034
C6    C     C_R   0.508312 0.740232 0.498910 0.927103
C7    C     C_R   0.798131 0.506140 0.534439 0.945559
C8    C     C_2   0.036652 0.498406 0.445337 -0.353993
C9    C     C_2   0.962023 0.523625 0.549547 -0.358082
C10   C     C_R   0.522820 0.059008 0.626181 -0.104314
C11   C     C_R   0.537589 0.130144 0.509122 -0.060730
C12   C     C_R   0.588563 0.944052 0.391737 0.183105
C13   C     C_R   0.587951 0.073722 0.397334 -0.117904
C14   C     C_3   0.150019 0.403238 0.848609 -0.847263
C15   C     C_3   0.635794 0.887890 0.266737 -0.850795
C16   C     C_R   0.536441 0.872756 0.500969 -0.033503
C17   C     C_R   0.520636 0.932049 0.621368 -0.149132
C18   C     C_3   0.398893 0.917254 0.715901 0.501387
C19   C     C_3   0.402404 0.058369 0.721901 0.460656
C20   C     C_R   0.453011 0.396392 0.070676 0.119538
C21   C     C_R   0.568409 0.594699 0.075884 -0.136900
C22   C     C_R   0.567589 0.595318 0.932269 -0.100650
F1    F     F_    0.322903 0.209885 0.129254 -0.652950
F2    F     F_    0.257166 0.870062 0.651897 -0.602405
F3    F     F_    0.262570 0.111805 0.663554 -0.614609
H1    H     H_    0.977097 0.469482 0.347106 0.178043
H2    H     H_    0.171846 0.505500 0.855995 0.248955
H3    H     H_    0.126579 0.375049 0.741491 0.294711
H4    H     H_    0.042766 0.377694 0.895853 0.236589
H5    H     H_    0.724753 0.814911 0.296958 0.240729
H6    H     H_    0.529435 0.849191 0.204785 0.255112
H7    H     H_    0.689879 0.958475 0.201721 0.234248
H8    H     H_    0.620515 0.673286 0.881942 0.144122
H9    H     H_    0.291626 0.234598 0.879155 0.245579
H10   H     H_    0.211469 0.382973 0.114721 0.111048
H11   H     H_    0.020984 0.558068 0.645051 0.189881
H12   H     H_    0.616431 0.129966 0.310718 0.185515
H13   H     H_    0.442536 0.868787 0.814055 0.005369
H14   H     H_    0.451364 0.093001 0.823385 0.000181
H15   H     H_    0.624817 0.670521 0.132718 0.151458
N1    N     N_R   0.498950 0.499140 0.142680 -0.136030
N2    N     N_R   0.498950 0.499180 0.857030 -0.096122
O1    O     O_R   0.500020 0.316790 0.614690 -0.608227
O2    O     O_R   0.500000 0.316760 0.385350 -0.602460
O3    O     O_R   0.271760 0.500010 0.587850 -0.596081
O4    O     O_R   0.271740 0.499970 0.358500 -0.632217
O5    O     O_R   0.500000 0.683240 0.614650 -0.616533
O6    O     O_R   0.499980 0.683210 0.385310 -0.630649
O7    O     O_R   0.728260 0.500030 0.641500 -0.628781
O8    O     O_R   0.728240 0.499990 0.412150 -0.623493
Zn1   Zn    Zn3+2 0.500010 0.500020 0.653130 0.982915
Zn2   Zn    Zn3+2 0.499990 0.499980 0.346870 0.967073

loop_
_geom_bond_atom_site_label_1
_geom_bond_atom_site_label_2
_ccdc_geom_bond_type
C9    H11   S    
O8    Zn2   S    
C15   H6    S    
C21   H15   S    
C14   H2    S    
C8    H1    S    
C10   C19   S    
N1    Zn2   S    
C13   H12   S    
C5    F1    S    
C12   C15   S    
N2    Zn1   S    
C4    C8    S    
C1    O2    A    
O2    Zn2   S    
C2    C3    S    
C18   H13   S    
C3    C5    S    
C15   H7    S    
C5    C20   S    
C4    O4    A    
C21   C22   A    
C11   C13   A    
O1    Zn1   S    
C22   N2    A    
C3    C14   S    
C6    O6    A    
C2    N2    A    
C21   N1    A    
C5    H10   S    
C17   C18   S    
C4    O3    A    
C19   F3    S    
C18   F2    S    
C6    O5    A    
O3    Zn1   S    
C14   H4    S    
C2    C20   A    
O4    Zn2   S    
O6    Zn2   S    
C12   C13   A    
C7    O7    A    
C15   H5    S    
C19   H14   S    
C18   C19   S    
C10   C11   A    
C7    C9    S    
C22   H8    S    
C8    C9    D    
O5    Zn1   S    
C10   C17   A    
C3    H9    S    
C14   H3    S    
C6    C16   S    
C1    O1    A    
C12   C16   A    
C7    O8    A    
C20   N1    A    
C16   C17   A    
O7    Zn1   S    
C1    C11   S    
