data_mof_unit_29478.cif
_audit_creation_date              2012-12-10T17:46:58-0500
_audit_creation_method            fapswitch 2.2
_symmetry_space_group_name_H-M    P1
_symmetry_Int_Tables_number       1
_space_group_crystal_system       triclinic
_cell_length_a                    9.90013
_cell_length_b                    10.686696
_cell_length_c                    13.613277
_cell_angle_alpha                 91.266125
_cell_angle_beta                  83.16204
_cell_angle_gamma                 90.561086
_cell_volume                      1429.64905024

loop_
_atom_site_label
_atom_site_type_symbol
_atom_type_description
_atom_site_fract_x
_atom_site_fract_y
_atom_site_fract_z
_atom_type_partial_charge
C1    C     C_R   0.501425 0.739571 0.491600 0.885267
C2    C     C_R   0.617590 0.937316 0.507269 -0.242490
C3    C     C_R   0.613713 0.064434 0.520919 -0.222791
C4    C     C_R   0.475791 0.500022 0.685683 0.871957
C5    C     C_R   0.490755 0.126872 0.520239 -0.073933
C6    C     C_R   0.841867 0.669187 0.625105 -0.145411
C7    C     C_R   0.903466 0.752867 0.685926 -0.192770
C8    C     C_R   0.042971 0.751119 0.687015 -0.190809
C9    C     C_R   0.121707 0.666078 0.626930 -0.145382
C10   C     C_R   0.063279 0.582566 0.562046 0.191901
C11   C     C_R   0.918709 0.583257 0.561574 0.187390
C12   C     C_1   0.457577 0.496162 0.789424 -0.182979
C13   C     C_R   0.937267 0.420358 0.441110 -0.129570
C14   C     C_R   0.080462 0.420484 0.441060 -0.108010
C15   C     C_R   0.497055 0.260465 0.509357 0.868935
C16   C     C_R   0.524282 0.498614 0.314323 0.901266
C17   C     C_1   0.542939 0.492315 0.210501 -0.203196
C18   C     C_2   0.558990 0.482291 0.018694 -0.155992
C19   C     C_2   0.441785 0.486996 0.980945 -0.172332
C20   C     C_1   0.445731 0.491847 0.877141 0.000205
C21   C     C_1   0.555185 0.486757 0.122661 -0.000693
C22   C     C_3   0.373197 0.824267 0.274435 0.070700
C23   C     C_R   0.268615 0.886164 0.427140 0.402347
C24   C     C_3   0.326043 0.763099 0.181778 -0.318005
C25   C     C_3   0.419792 0.798019 0.089038 -0.961613
C26   C     C_3   0.018677 0.943131 0.313568 0.112208
C27   C     C_3   0.900047 0.035018 0.321910 -0.371680
C28   C     C_3   0.889725 0.098630 0.223902 -0.966440
C29   C     C_R   0.139737 0.941454 0.446618 0.488035
C30   C     C_R   0.123160 0.047876 0.507841 -0.341200
C31   C     C_R   0.236864 0.108722 0.537755 -0.248847
C32   C     C_R   0.368681 0.059513 0.511337 0.049813
C33   C     C_R   0.380212 0.937731 0.472638 -0.108207
C34   C     C_R   0.501776 0.873139 0.483521 -0.092875
H1    H     H_    0.344549 0.491421 0.027342 0.157756
H2    H     H_    0.219881 0.192308 0.583590 0.197476
H3    H     H_    0.707255 0.113602 0.531698 0.167123
H4    H     H_    0.890609 0.355353 0.393012 0.150282
H5    H     H_    0.477526 0.791625 0.282425 0.141382
H6    H     H_    0.376996 0.927759 0.263630 0.108321
H7    H     H_    0.323597 0.659800 0.189022 0.237012
H8    H     H_    0.221346 0.794447 0.173897 0.205734
H9    H     H_    0.421254 0.901051 0.079763 0.260621
H10   H     H_    0.382309 0.753238 0.022998 0.270155
H11   H     H_    0.524901 0.765462 0.094036 0.272897
H12   H     H_    0.734080 0.674462 0.630911 0.199697
H13   H     H_    0.997185 0.865980 0.261510 0.162138
H14   H     H_    0.113847 0.990308 0.279753 0.109209
H15   H     H_    0.803770 0.983485 0.343858 0.239528
H16   H     H_    0.913519 0.108020 0.379278 0.212158
H17   H     H_    0.983653 0.153630 0.201280 0.262709
H18   H     H_    0.801724 0.163253 0.232472 0.270742
H19   H     H_    0.874508 0.027712 0.165259 0.264535
H20   H     H_    0.842158 0.818375 0.733491 0.147608
H21   H     H_    0.090492 0.815126 0.735490 0.149176
H22   H     H_    0.227438 0.667754 0.634331 0.196554
H23   H     H_    0.141483 0.355392 0.393025 0.148828
H24   H     H_    0.656344 0.479483 0.972384 0.159054
H25   H     H_    0.711859 0.889773 0.514895 0.196451
H26   H     H_    0.023084 0.087198 0.527974 0.170381
N1    N     N_R   0.857120 0.501200 0.500900 -0.118224
N2    N     N_R   0.142720 0.501280 0.500940 -0.113089
O1    O     O_R   0.385310 0.683220 0.500000 -0.592486
O2    O     O_3   0.029192 0.889879 0.406818 -0.625402
O3    O     O_R   0.614640 0.683250 0.500010 -0.646986
O4    O     O_R   0.368830 0.499960 0.640340 -0.640664
O5    O     O_R   0.598160 0.499980 0.640350 -0.628815
O6    O     O_R   0.385360 0.316750 0.499990 -0.629625
O7    O     O_R   0.614690 0.316780 0.500000 -0.621285
O8    O     O_R   0.401840 0.500020 0.359650 -0.584801
O9    O     O_R   0.631170 0.500040 0.359660 -0.606024
O10   O     O_3   0.283843 0.788191 0.358323 -0.600408
Zn1   Zn    Zn3+2 0.346870 0.499980 0.499990 0.957853
Zn2   Zn    Zn3+2 0.653130 0.500020 0.500010 0.937630

loop_
_geom_bond_atom_site_label_1
_geom_bond_atom_site_label_2
_ccdc_geom_bond_type
C4    O5    A    
C1    O3    A    
C28   H19   S    
N2    Zn1   S    
C11   N1    A    
C29   C30   A    
C25   H11   S    
N1    Zn2   S    
O9    Zn2   S    
C18   C21   S    
C24   H8    S    
C9    C10   A    
C19   C20   S    
C31   C32   A    
C27   H16   S    
C26   H14   S    
C5    C32   A    
C22   H6    S    
C32   C33   A    
C25   H9    S    
O8    Zn1   S    
C33   C34   A    
C26   C27   S    
C29   O2    S    
C16   O8    A    
C7    C8    A    
C9    H22   S    
C19   H1    S    
C13   C14   A    
C4    O4    A    
C24   H7    S    
C28   H18   S    
C12   C20   T    
C13   H4    S    
C10   N2    A    
C16   O9    A    
C26   H13   S    
C27   C28   S    
C22   H5    S    
C23   C29   A    
C8    H21   S    
C22   O10   S    
C1    C34   S    
C2    C3    A    
C6    C7    A    
O6    Zn1   S    
C30   C31   A    
C15   O7    A    
C28   H17   S    
C22   C24   S    
C5    C15   S    
C4    C12   S    
C10   C11   A    
C15   O6    A    
C14   N2    A    
C1    O1    A    
O7    Zn2   S    
C13   N1    A    
C24   C25   S    
C25   H10   S    
C18   C19   D    
C6    C11   A    
O5    Zn2   S    
C14   H23   S    
C26   O2    S    
C31   H2    S    
C16   C17   S    
C6    H12   S    
C7    H20   S    
C3    C5    A    
C2    C34   A    
C2    H25   S    
O4    Zn1   S    
O1    Zn1   S    
C23   O10   S    
C18   H24   S    
C17   C21   T    
O3    Zn2   S    
C27   H15   S    
C3    H3    S    
C8    C9    A    
C23   C33   A    
C30   H26   S    
