data_mof_unit_58763.cif
_audit_creation_date              2012-12-10T18:13:32-0500
_audit_creation_method            fapswitch 2.2
_symmetry_space_group_name_H-M    P1
_symmetry_Int_Tables_number       1
_space_group_crystal_system       triclinic
_cell_length_a                    12.589443
_cell_length_b                    13.110254
_cell_length_c                    16.6869
_cell_angle_alpha                 90.857284
_cell_angle_beta                  98.024089
_cell_angle_gamma                 97.381076
_cell_volume                      2703.10462925

loop_
_atom_site_label
_atom_site_type_symbol
_atom_type_description
_atom_site_fract_x
_atom_site_fract_y
_atom_site_fract_z
_atom_type_partial_charge
C1    C     C_R   0.560575 0.691524 0.506259 0.930174
C2    C     C_R   0.598600 0.445548 0.231780 -0.212502
C3    C     C_R   0.555547 0.452198 0.871437 0.754471
C4    C     C_R   0.565905 0.471920 0.791346 -0.328772
C5    C     C_R   0.376429 0.497477 0.765236 0.664110
C6    C     C_R   0.366088 0.476544 0.845269 -0.324326
C7    C     C_R   0.454234 0.450691 0.897725 -0.013148
C8    C     C_2   0.483210 0.357289 0.023673 0.658068
C9    C     C_2   0.440789 0.432152 0.981625 -0.307318
C10   C     C_R   0.476178 0.492509 0.737084 -0.279878
C11   C     C_R   0.289265 0.056454 0.400564 -0.038837
C12   C     C_R   0.511048 0.491126 0.349091 0.823095
C13   C     C_R   0.404251 0.199099 0.475030 -0.331209
C14   C     C_R   0.700150 0.840621 0.552601 0.560517
C15   C     C_R   0.730033 0.946303 0.561883 0.542302
C16   C     C_R   0.656414 0.012875 0.533780 -0.308302
C17   C     C_R   0.552740 0.973823 0.492433 0.062946
C18   C     C_R   0.533267 0.869564 0.468615 -0.021252
C19   C     C_R   0.468683 0.034574 0.471871 -0.052186
C20   C     C_R   0.376415 0.996385 0.414331 -0.054724
C21   C     C_R   0.378561 0.902401 0.371260 0.120676
C22   C     C_R   0.452259 0.837284 0.403218 -0.152369
C23   C     C_R   0.439860 0.308445 0.490233 0.978431
C24   C     C_R   0.472680 0.131563 0.508591 0.515071
C25   C     C_R   0.310892 0.161905 0.421625 0.508121
C26   C     C_R   0.600055 0.801430 0.507200 -0.350421
C27   C     C_R   0.903861 0.365513 0.627791 -0.102932
C28   C     C_R   0.208302 0.626125 0.403241 -0.075806
C29   C     C_R   0.105308 0.653562 0.383366 0.562312
C30   C     C_R   0.021214 0.606379 0.421241 -0.235993
C31   C     C_R   0.039774 0.529904 0.478717 -0.035938
C32   C     C_R   0.146116 0.505006 0.496581 0.112247
C33   C     C_R   0.957746 0.478377 0.519522 -0.060414
C34   C     C_R   0.486307 0.501771 0.651188 0.958207
C35   C     C_R   0.984545 0.408150 0.581747 -0.089941
C36   C     C_R   0.090202 0.381823 0.594339 0.610782
C37   C     C_R   0.168239 0.429248 0.551897 -0.107904
C38   C     C_R   0.849308 0.494010 0.500456 -0.094597
C39   C     C_R   0.797584 0.383588 0.603522 0.731444
C40   C     C_R   0.504498 0.453271 0.265922 -0.053092
C41   C     C_R   0.403517 0.410305 0.224699 -0.179852
C42   C     C_R   0.394925 0.363978 0.147933 0.052312
C43   C     C_R   0.489553 0.365059 0.111245 0.013795
C44   C     C_R   0.590993 0.402042 0.154506 -0.133633
H1    H     H_    0.330966 0.411260 0.252720 0.181805
H2    H     H_    0.288762 0.479340 0.866218 0.195053
H3    H     H_    0.683760 0.094313 0.541810 0.236911
H4    H     H_    0.452271 0.763799 0.372698 0.133552
H5    H     H_    0.644291 0.470404 0.771923 0.238582
H6    H     H_    0.821242 0.543319 0.453363 0.156493
H7    H     H_    0.274077 0.662062 0.373950 0.142902
H8    H     H_    0.943536 0.632259 0.404850 0.165080
H9    H     H_    0.246234 0.404829 0.564039 0.227569
H10   H     H_    0.397667 0.485286 0.011205 0.123697
H11   H     H_    0.663620 0.403774 0.126214 0.194437
H12   H     H_    0.677514 0.475470 0.263951 0.164007
N1    N     N_R   0.774070 0.445420 0.541180 -0.162181
N2    N     N_R   0.226730 0.554050 0.459240 -0.139462
O1    O     O_R   0.631480 0.627510 0.519670 -0.558111
O2    O     O_R   0.455770 0.662400 0.493360 -0.616553
O3    O     O_R   0.598240 0.480510 0.398910 -0.635399
O4    O     O_R   0.422540 0.515400 0.372600 -0.632107
O5    O     O_R   0.544230 0.337600 0.506640 -0.542270
O6    O     O_R   0.368520 0.372490 0.480330 -0.600274
O7    O     O_R   0.577460 0.484600 0.627400 -0.557562
O8    O     O_R   0.401760 0.519490 0.601090 -0.584972
Zn1   Zn    Zn3+2 0.617320 0.476700 0.517570 1.042624
Zn2   Zn    Zn3+2 0.382680 0.523300 0.482430 0.983202
F1    F     F_    0.241059 0.227093 0.390972 -0.680715
C45   C     C_3   0.320866 0.877209 0.285279 -0.412489
C46   C     C_3   0.359697 0.958018 0.226606 -0.371578
C47   C     C_3   0.304271 0.932150 0.140088 -0.822118
H13   H     H_    0.321038 0.855544 0.119654 0.268852
H14   H     H_    0.215466 0.931872 0.136536 0.266833
H15   H     H_    0.335523 0.990760 0.098851 0.259394
H16   H     H_    0.341879 0.034921 0.245178 0.224988
H17   H     H_    0.448677 0.961674 0.228089 0.236839
H18   H     H_    0.338471 0.801276 0.263723 0.200670
H19   H     H_    0.232056 0.868602 0.280495 0.245998
C48   C     C_3   0.172858 0.008607 0.373792 -0.355699
C49   C     C_3   0.094150 0.040634 0.429534 -0.300977
C50   C     C_3   0.982814 0.976762 0.410217 -0.802327
H20   H     H_    0.948231 0.985874 0.346150 0.258494
H21   H     H_    0.988781 0.894075 0.420759 0.288214
H22   H     H_    0.927424 0.003208 0.450069 0.271569
H23   H     H_    0.126915 0.029751 0.493810 0.243650
H24   H     H_    0.083275 0.122763 0.422241 0.276823
H25   H     H_    0.146371 0.028973 0.310364 0.215494
H26   H     H_    0.167365 0.924045 0.378342 0.240021
F2    F     F_    0.541589 0.161887 0.577437 -0.616072
F3    F     F_    0.768819 0.777318 0.588177 -0.609066
F4    F     F_    0.829281 0.984157 0.600893 -0.664858
F5    F     F_    0.716805 0.341445 0.643507 -0.623884
F6    F     F_    0.119265 0.306154 0.644037 -0.677276
C51   C     C_3   0.927404 0.309681 0.706025 -0.340360
C52   C     C_3   0.909294 0.192807 0.690961 -0.217028
C53   C     C_3   0.940845 0.137038 0.768554 -0.742361
H27   H     H_    0.028097 0.159070 0.791469 0.262769
H28   H     H_    0.891892 0.156471 0.815724 0.255631
H29   H     H_    0.925892 0.052603 0.756128 0.294671
H30   H     H_    0.822399 0.167827 0.668386 0.268602
H31   H     H_    0.957718 0.170644 0.644279 0.282490
H32   H     H_    0.009813 0.336509 0.737890 0.256259
H33   H     H_    0.873111 0.330150 0.749232 0.226986
F7    F     F_    0.086744 0.725674 0.327584 -0.704912
F8    F     F_    0.288486 0.521131 0.715923 -0.645469
F9    F     F_    0.645118 0.438175 0.923447 -0.620573
F10   F     F_    0.535814 0.287591 0.989157 -0.603427
C54   C     C_3   0.284381 0.316183 0.106685 -0.453241
C55   C     C_3   0.244180 0.219596 0.150240 -0.328851
C56   C     C_3   0.134492 0.168318 0.108296 -0.823151
H34   H     H_    0.073241 0.222352 0.107285 0.271589
H35   H     H_    0.140505 0.143759 0.045265 0.266215
H36   H     H_    0.107670 0.099351 0.141783 0.248894
H37   H     H_    0.303733 0.164069 0.150589 0.231790
H38   H     H_    0.236602 0.239542 0.213983 0.257103
H39   H     H_    0.226537 0.373506 0.106922 0.213548
H40   H     H_    0.286247 0.293920 0.042509 0.211291

loop_
_geom_bond_atom_site_label_1
_geom_bond_atom_site_label_2
_ccdc_geom_bond_type
C22   H4    S    
C52   H31   S    
C45   H18   S    
C41   C42   A    
C27   C51   S    
C51   C52   S    
C18   C26   A    
C8    C43   S    
C32   N2    A    
C13   C25   A    
C34   O8    A    
C53   H27   S    
C54   H39   S    
C56   H35   S    
C28   C29   A    
O6    Zn2   S    
C36   C37   A    
C42   C54   S    
C3    C7    A    
C1    O1    A    
C5    C6    A    
C33   C35   A    
C28   H7    S    
O8    Zn2   S    
C11   C25   A    
C15   C16   A    
C39   N1    A    
C13   C23   S    
C48   H26   S    
C55   C56   S    
C39   F5    S    
O1    Zn1   S    
C15   F4    S    
C19   C20   A    
C2    C44   A    
C16   C17   A    
O7    Zn1   S    
C31   C33   A    
C45   C46   S    
C49   H23   S    
C47   H13   S    
C37   H9    S    
C23   O5    A    
C21   C22   A    
C29   F7    S    
N1    Zn1   S    
C47   H15   S    
C8    F10   S    
C34   O7    A    
C53   H28   S    
C51   H32   S    
C54   H40   S    
C49   C50   S    
C5    F8    S    
O5    Zn1   S    
C11   C20   A    
C47   H14   S    
C1    O2    A    
C27   C39   A    
C16   H3    S    
C8    C9    D    
C27   C35   A    
C13   C24   A    
C35   C36   A    
C12   C40   S    
C43   C44   A    
C29   C30   A    
C2    C40   A    
C38   N1    A    
C12   O4    A    
O3    Zn1   S    
C31   C32   A    
C30   C31   A    
C52   C53   S    
C17   C18   A    
C10   C34   S    
C32   C37   A    
C14   C26   A    
C49   H24   S    
N2    Zn2   S    
C40   C41   A    
C50   H21   S    
C1    C26   S    
C25   F1    S    
C42   C43   A    
C4    C10   A    
C3    C4    A    
C55   H38   S    
C46   H17   S    
C53   H29   S    
C51   H33   S    
C7    C9    S    
C30   H8    S    
C23   O6    A    
C6    H2    S    
C56   H34   S    
C45   H19   S    
C18   C22   A    
C48   C49   S    
C24   F2    S    
C6    C7    A    
C38   H6    S    
C28   N2    A    
C50   H22   S    
C4    H5    S    
C33   C38   A    
O4    Zn2   S    
C21   C45   S    
C3    F9    S    
C19   C24   A    
C5    C10   A    
C48   H25   S    
C2    H12   S    
C54   C55   S    
C12   O3    A    
C44   H11   S    
C46   H16   S    
C17   C19   A    
C56   H36   S    
C14   F3    S    
C11   C48   S    
C36   F6    S    
C46   C47   S    
C20   C21   A    
O2    Zn2   S    
C50   H20   S    
C41   H1    S    
C14   C15   A    
C9    H10   S    
C52   H30   S    
C55   H37   S    
