data_mof_unit_42974.cif
_audit_creation_date              2012-12-11T13:59:59-0500
_audit_creation_method            fapswitch 2.2
_symmetry_space_group_name_H-M    P1
_symmetry_Int_Tables_number       1
_space_group_crystal_system       triclinic
_cell_length_a                    11.319188
_cell_length_b                    11.251582
_cell_length_c                    18.725708
_cell_angle_alpha                 89.814524
_cell_angle_beta                  90.157778
_cell_angle_gamma                 120.282576
_cell_volume                      2059.45081206

loop_
_atom_site_label
_atom_site_type_symbol
_atom_type_description
_atom_site_fract_x
_atom_site_fract_y
_atom_site_fract_z
_atom_type_partial_charge
C1    C     C_R   0.543926 0.477441 0.853188 0.570566
C2    C     C_R   0.481177 0.540806 0.350046 0.543901
C3    C     C_R   0.064147 0.520235 0.351395 0.547196
C4    C     C_R   0.457243 0.938108 0.350762 0.538659
C5    C     C_2   0.970930 0.476781 0.573332 -0.087372
C6    C     C_2   0.567628 0.451906 0.563218 -0.114972
C7    C     C_2   0.487853 0.960800 0.593641 -0.103225
C8    C     C_2   0.483851 0.982003 0.423771 -0.080577
C9    C     C_2   0.505888 0.493768 0.417339 -0.098694
C10   C     C_2   0.999423 0.501650 0.419462 -0.108744
C11   C     C_2   0.926608 0.380989 0.452716 -0.017998
C12   C     C_R   0.520292 0.061187 0.852294 0.544632
C13   C     C_2   0.633670 0.538897 0.441120 -0.013057
C14   C     C_2   0.418622 0.887026 0.475189 -0.011398
C15   C     C_2   0.395568 0.935089 0.542687 -0.029588
C16   C     C_2   0.659331 0.551571 0.518965 -0.015105
C17   C     C_2   0.881236 0.385490 0.525118 -0.003381
C18   C     C_2   0.004935 0.503806 0.922495 -0.105437
C19   C     C_2   0.494713 0.498075 0.919987 -0.097349
C20   C     C_2   0.497069 0.991510 0.921541 -0.114973
C21   C     C_2   0.503330 0.005691 0.077625 -0.106414
C22   C     C_2   0.496658 0.494152 0.079789 -0.097416
C23   C     C_R   0.937947 0.458810 0.852688 0.558267
C24   C     C_2   0.991503 0.496817 0.078617 -0.116135
C25   C     C_2   0.994929 0.601577 0.040516 -0.004766
C26   C     C_2   0.391916 0.425802 0.033843 -0.026674
C27   C     C_2   0.604997 0.003908 0.040013 -0.005051
C28   C     C_2   0.601245 0.995558 0.959850 -0.005661
C29   C     C_2   0.423870 0.392749 0.965625 -0.028369
C30   C     C_2   0.002431 0.605498 0.960307 -0.006055
C31   C     C_3   0.886398 0.244012 0.417941 -0.353982
C32   C     C_3   0.753152 0.593835 0.390026 -0.357904
C33   C     C_3   0.364896 0.734580 0.467060 -0.344482
C34   C     C_R   0.477076 0.543545 0.146823 0.558353
C35   C     C_3   0.287354 0.975790 0.545802 -0.361349
C36   C     C_3   0.783062 0.682998 0.545624 -0.352066
C37   C     C_3   0.733255 0.286385 0.541618 -0.336038
C38   C     C_3   0.984935 0.715446 0.078505 -0.354612
C39   C     C_3   0.245781 0.390635 0.045099 -0.343777
C40   C     C_3   0.729740 0.017406 0.078437 -0.355353
C41   C     C_3   0.714615 0.985274 0.922194 -0.353314
C42   C     C_3   0.385448 0.244739 0.954279 -0.345424
C43   C     C_3   0.014162 0.730477 0.922072 -0.355034
C44   C     C_R   0.060892 0.520049 0.147792 0.543090
C45   C     C_R   0.458445 0.937927 0.147358 0.552647
C46   C     C_R   0.583022 0.450651 0.640716 0.566625
C47   C     C_R   0.516931 0.056244 0.651938 0.534179
C48   C     C_R   0.935921 0.456092 0.648064 0.538851
Cr1   Cr    Cr6+3 0.464030 0.233680 0.750360 0.998201
Cr2   Cr    Cr6+3 0.766320 0.230350 0.750360 1.000699
Cr3   Cr    Cr6+3 0.769650 0.535970 0.750360 0.989577
Cr4   Cr    Cr6+3 0.233680 0.464030 0.249640 0.995885
Cr5   Cr    Cr6+3 0.230350 0.766320 0.249640 1.000390
Cr6   Cr    Cr6+3 0.535970 0.769650 0.249640 0.994032
H1    H     H_    0.021582 0.596147 0.446413 0.075425
H2    H     H_    0.400853 0.965860 0.946294 0.079880
H3    H     H_    0.526167 0.603105 0.935539 0.087475
H4    H     H_    0.028113 0.431440 0.947748 0.074607
H5    H     H_    0.816944 0.155074 0.451680 0.114790
H6    H     H_    0.833502 0.234513 0.366418 0.136488
H7    H     H_    0.978350 0.234859 0.409093 0.159696
H8    H     H_    0.842434 0.603102 0.417707 0.121348
H9    H     H_    0.729266 0.522653 0.344250 0.129370
H10   H     H_    0.783123 0.698665 0.370923 0.158420
H11   H     H_    0.417482 0.701902 0.505806 0.117925
H12   H     H_    0.418688 0.446604 0.453144 0.082365
H13   H     H_    0.254301 0.677624 0.478876 0.115663
H14   H     H_    0.379759 0.704924 0.413051 0.172101
H15   H     H_    0.221495 0.939544 0.497420 0.126042
H16   H     H_    0.220561 0.927656 0.592976 0.148704
H17   H     H_    0.335689 0.089507 0.548077 0.144014
H18   H     H_    0.843032 0.753931 0.501658 0.105999
H19   H     H_    0.749888 0.741960 0.579187 0.159137
H20   H     H_    0.852749 0.658981 0.575770 0.158589
H21   H     H_    0.668324 0.289389 0.498022 0.107045
H22   H     H_    0.717214 0.181407 0.546041 0.139027
H23   H     H_    0.520015 0.089826 0.434231 0.065894
H24   H     H_    0.699906 0.311882 0.591608 0.149872
H25   H     H_    0.913310 0.739067 0.049764 0.105311
H26   H     H_    0.941169 0.684214 0.132942 0.143394
H27   H     H_    0.087328 0.809831 0.081461 0.149377
H28   H     H_    0.183175 0.343805 0.996373 0.104639
H29   H     H_    0.197987 0.314254 0.088833 0.163674
H30   H     H_    0.243603 0.486170 0.056402 0.155256
H31   H     H_    0.824702 0.090318 0.049572 0.104498
H32   H     H_    0.742393 0.062225 0.132591 0.143603
H33   H     H_    0.722607 0.915470 0.082113 0.150069
H34   H     H_    0.562806 0.928528 0.585222 0.094582
H35   H     H_    0.738274 0.913751 0.951372 0.105139
H36   H     H_    0.683642 0.940481 0.867923 0.147328
H37   H     H_    0.808323 0.088327 0.918931 0.149788
H38   H     H_    0.336451 0.181653 0.002712 0.104194
H39   H     H_    0.310555 0.198585 0.909991 0.164442
H40   H     H_    0.479290 0.239967 0.943795 0.153891
H41   H     H_    0.085995 0.826253 0.950900 0.104806
H42   H     H_    0.058695 0.743967 0.867852 0.146244
H43   H     H_    0.912248 0.722015 0.918630 0.149629
H44   H     H_    0.482276 0.359351 0.540833 0.071287
H45   H     H_    0.076255 0.549450 0.559442 0.062531
H46   H     H_    0.966088 0.400161 0.053755 0.079214
H47   H     H_    0.600579 0.523509 0.064388 0.086055
H48   H     H_    0.431069 0.028360 0.052215 0.075014
O1    O     O_R   0.434100 0.092480 0.829780 -0.534086
O2    O     O_R   0.362730 0.477510 0.175360 -0.500869
O3    O     O_R   0.114780 0.637270 0.175360 -0.492816
O4    O     O_R   0.522490 0.885220 0.175360 -0.497074
O5    O     O_R   0.432250 0.092620 0.670380 -0.523326
O6    O     O_R   0.907380 0.339630 0.670380 -0.501231
O7    O     O_R   0.660370 0.567750 0.670380 -0.517492
O8    O     O_R   0.092620 0.432250 0.329620 -0.518973
O9    O     O_R   0.339630 0.907380 0.329620 -0.510721
O10   O     O_R   0.567750 0.660370 0.329620 -0.519302
O11   O     O_R   0.475790 0.362860 0.676880 -0.495456
O12   O     O_R   0.907520 0.341620 0.829780 -0.518925
O13   O     O_R   0.637140 0.112930 0.676880 -0.517949
O14   O     O_R   0.887070 0.524210 0.676880 -0.531350
O15   O     O_R   0.362860 0.475790 0.323120 -0.506269
O16   O     O_R   0.112930 0.637140 0.323120 -0.508641
O17   O     O_R   0.524210 0.887070 0.323120 -0.506577
O18   O     O_3   0.666667 0.333333 0.749450 -0.270328
O19   O     O_3   0.333333 0.666667 0.250550 -0.247247
O20   O     O_R   0.658380 0.565900 0.829780 -0.521662
O21   O     O_R   0.092480 0.434100 0.170220 -0.536041
O22   O     O_R   0.341620 0.907520 0.170220 -0.522368
O23   O     O_R   0.565900 0.658380 0.170220 -0.527040
O24   O     O_R   0.477510 0.362730 0.824640 -0.494200
O25   O     O_R   0.637270 0.114780 0.824640 -0.491711
O26   O     O_R   0.885220 0.522490 0.824640 -0.496192

loop_
_geom_bond_atom_site_label_1
_geom_bond_atom_site_label_2
_ccdc_geom_bond_type
C40   H31   S    
C41   H35   S    
C29   C42   S    
C42   H39   S    
C31   H7    S    
C13   C32   S    
Cr1   O11   S    
C20   H2    S    
C14   C33   S    
C33   H11   S    
Cr1   O5    S    
C12   O25   A    
C44   O3    A    
C19   H3    S    
C47   O13   A    
Cr1   O24   S    
C2    O10   A    
C22   H47   S    
Cr2   O18   S    
Cr3   O26   S    
C6    H44   S    
C40   H33   S    
C39   H30   S    
Cr4   O21   S    
C26   C39   S    
Cr1   O18   S    
C5    C17   D    
C38   H25   S    
C3    O8    A    
C40   H32   S    
C28   C41   S    
Cr2   O13   S    
C31   H5    S    
C9    C13   D    
C9    H12   S    
C1    O20   A    
C18   H4    S    
C11   C17   S    
C5    H45   S    
C35   H16   S    
C43   H41   S    
C4    O17   A    
C18   C30   D    
C4    C8    S    
C48   O14   A    
Cr4   O15   S    
Cr5   O9    S    
C7    C15   D    
C41   H36   S    
C37   H21   S    
C11   C31   S    
Cr3   O7    S    
C24   H46   S    
Cr6   O17   S    
Cr2   O6    S    
C15   C35   S    
C5    C48   S    
C2    O15   A    
C43   H42   S    
C21   C45   S    
C45   O22   A    
C22   C34   S    
Cr6   O23   S    
C1    C19   S    
Cr6   O4    S    
C18   C23   S    
C1    O24   A    
C32   H10   S    
C12   O1    A    
C36   H19   S    
Cr5   O16   S    
C20   C28   D    
C34   O2    A    
Cr2   O12   S    
C7    C47   S    
C31   H6    S    
C3    O16   A    
C25   C38   S    
Cr4   O19   S    
C7    H34   S    
Cr4   O8    S    
C27   C40   S    
C12   C20   S    
Cr3   O18   S    
Cr6   O10   S    
C17   C37   S    
C24   C25   D    
C10   H1    S    
C36   H20   S    
C21   H48   S    
C41   H37   S    
Cr6   O19   S    
C47   O5    A    
C38   H27   S    
C8    H23   S    
C24   C44   S    
C30   C43   S    
C46   O7    A    
C19   C29   D    
C45   O4    A    
C33   H13   S    
C25   C30   S    
Cr4   O2    S    
C8    C14   D    
C6    C46   S    
C46   O11   A    
C42   H40   S    
C4    O9    A    
C43   H43   S    
C39   H28   S    
Cr5   O22   S    
Cr1   O1    S    
C32   H9    S    
C37   H24   S    
C44   O21   A    
Cr3   O14   S    
C39   H29   S    
C35   H17   S    
C3    C10   S    
Cr5   O19   S    
C16   C36   S    
C23   O12   A    
C48   O6    A    
C38   H26   S    
C34   O23   A    
C37   H22   S    
C42   H38   S    
C21   C27   D    
C10   C11   D    
C6    C16   D    
Cr5   O3    S    
C35   H15   S    
C26   C29   S    
C22   C26   D    
C13   C16   S    
C27   C28   S    
Cr3   O20   S    
C14   C15   S    
Cr2   O25   S    
C32   H8    S    
C2    C9    S    
C36   H18   S    
C33   H14   S    
C23   O26   A    
