data_mof_unit_62278.cif
_audit_creation_date              2012-12-10T19:30:28-0500
_audit_creation_method            fapswitch 2.2
_symmetry_space_group_name_H-M    P1
_symmetry_Int_Tables_number       1
_space_group_crystal_system       triclinic
_cell_length_a                    25.574778
_cell_length_b                    43.17977
_cell_length_c                    25.052477
_cell_angle_alpha                 90.000029
_cell_angle_beta                  120.628784
_cell_angle_gamma                 90.0
_cell_volume                      23806.0188551

loop_
_atom_site_label
_atom_site_type_symbol
_atom_type_description
_atom_site_fract_x
_atom_site_fract_y
_atom_site_fract_z
_atom_type_partial_charge
C1    C     C_R   0.641628 0.250040 0.999876 0.775766
C2    C     C_R   0.500014 0.967397 0.999969 0.147436
C3    C     C_R   0.383108 0.249479 0.764021 -0.187284
C4    C     C_R   0.793821 0.227052 0.533290 -0.409425
C5    C     C_R   0.199094 0.768935 0.466956 -0.406363
C6    C     C_R   0.206304 0.226987 0.466705 -0.409372
C7    C     C_R   0.800903 0.768938 0.533046 -0.406318
C8    C     C_R   0.293696 0.726987 0.533295 -0.409371
C9    C     C_R   0.699095 0.268937 0.466954 -0.406319
C10   C     C_R   0.706179 0.727052 0.466710 -0.409426
C11   C     C_R   0.300906 0.268935 0.533043 -0.406362
C12   C     C_R   0.760789 0.225784 0.468524 0.616952
C13   C     C_R   0.999985 0.532619 0.000028 0.148192
C14   C     C_R   0.229426 0.768812 0.531748 0.613161
C15   C     C_R   0.239345 0.225716 0.531469 0.617000
C16   C     C_R   0.770571 0.768811 0.468254 0.613166
C17   C     C_R   0.260655 0.725716 0.468531 0.617000
C18   C     C_R   0.729428 0.268810 0.531746 0.613167
C19   C     C_R   0.739212 0.725784 0.531475 0.616953
C20   C     C_R   0.270574 0.268812 0.468252 0.613159
C21   C     C_R   0.714733 0.247789 0.434860 -0.045186
C22   C     C_R   0.278969 0.748597 0.565398 -0.043480
C23   C     C_R   0.285332 0.247753 0.565136 -0.045244
C24   C     C_R   0.999986 0.467397 0.000031 0.147436
C25   C     C_R   0.720974 0.748627 0.434605 -0.043457
C26   C     C_R   0.214668 0.747752 0.434864 -0.045246
C27   C     C_R   0.779026 0.248627 0.565394 -0.043458
C28   C     C_R   0.785267 0.747789 0.565140 -0.045186
C29   C     C_R   0.221031 0.248597 0.434601 -0.043479
C30   C     C_R   0.488106 0.615363 0.041058 -0.187806
C31   C     C_R   0.512743 0.384656 0.959556 -0.186477
C32   C     C_R   0.511874 0.615363 0.958928 -0.187385
C33   C     C_R   0.487238 0.384656 0.040431 -0.186782
C34   C     C_R   0.988126 0.115363 0.041072 -0.187385
C35   C     C_3   0.246344 0.229155 0.958461 -0.131438
C36   C     C_R   0.012761 0.884656 0.959569 -0.186781
C37   C     C_R   0.011894 0.115363 0.958942 -0.187804
C38   C     C_R   0.987256 0.884656 0.040444 -0.186476
C39   C     C_R   0.488110 0.583094 0.041048 -0.181194
C40   C     C_R   0.512682 0.416927 0.959525 -0.180307
C41   C     C_R   0.511861 0.583094 0.958932 -0.181132
C42   C     C_R   0.487291 0.416927 0.040456 -0.180356
C43   C     C_R   0.988139 0.083094 0.041068 -0.181132
C44   C     C_R   0.012709 0.916927 0.959544 -0.180357
C45   C     C_R   0.011890 0.083094 0.958952 -0.181195
C46   C     C_3   0.724896 0.778293 0.984715 -0.185335
C47   C     C_R   0.987318 0.916927 0.040475 -0.180307
C48   C     C_R   0.499984 0.566688 0.999989 0.115407
C49   C     C_R   0.499985 0.433322 0.999990 0.111580
C50   C     C_R   0.000016 0.066688 0.000011 0.115407
C51   C     C_R   0.000015 0.933322 0.000010 0.111580
C52   C     C_R   0.499993 0.631775 0.999995 -0.002455
C53   C     C_R   0.499994 0.368238 0.999996 -0.006199
C54   C     C_R   0.000007 0.131775 0.000005 -0.002455
C55   C     C_R   0.000006 0.868238 0.000004 -0.006200
C56   C     C_R   0.472536 0.516125 0.943768 -0.180847
C57   C     C_3   0.724797 0.221658 0.984560 -0.181257
C58   C     C_R   0.527401 0.483858 0.056206 -0.180344
C59   C     C_R   0.527429 0.516126 0.056209 -0.180788
C60   C     C_R   0.472565 0.483858 0.943771 -0.180412
C61   C     C_R   0.972571 0.016126 0.943791 -0.180788
C62   C     C_R   0.027435 0.983858 0.056229 -0.180411
C63   C     C_R   0.027464 0.016126 0.056231 -0.180847
C64   C     C_R   0.972599 0.983858 0.943794 -0.180346
C65   C     C_R   0.499983 0.467463 0.999989 0.105473
C66   C     C_R   0.499983 0.532532 0.999988 0.105151
C67   C     C_R   0.000017 0.967463 0.000011 0.105473
C68   C     C_3   0.246252 0.770795 0.958308 -0.121724
C69   C     C_R   0.000017 0.032532 0.000011 0.105152
C70   C     C_R   0.499999 0.334170 0.999999 0.775727
C71   C     C_R   0.499998 0.665835 0.999999 0.800160
C72   C     C_R   0.000001 0.834170 0.000001 0.775727
C73   C     C_R   0.000001 0.165835 0.000001 0.800160
C74   C     C_R   0.500000 0.166011 0.999999 0.834052
C75   C     C_R   0.500001 0.833993 0.999999 0.831722
C76   C     C_R   1.000000 0.666011 0.000001 0.834052
C77   C     C_R   0.999999 0.333993 0.000001 0.831722
C78   C     C_R   0.452557 0.884103 0.999696 -0.283720
C79   C     C_3   0.775203 0.721658 0.015440 -0.181257
C80   C     C_R   0.527964 0.115913 0.056109 -0.286530
C81   C     C_R   0.547454 0.884096 0.000278 -0.283626
C82   C     C_R   0.472048 0.115919 0.943870 -0.287384
C83   C     C_R   0.952547 0.384096 0.999723 -0.283625
C84   C     C_R   0.027953 0.615919 0.056130 -0.287384
C85   C     C_R   0.047442 0.384103 0.000303 -0.283721
C86   C     C_R   0.972035 0.615913 0.943891 -0.286529
C87   C     C_R   0.453340 0.916482 0.002035 0.493140
C88   C     C_R   0.526212 0.083534 0.056553 0.492997
C89   C     C_R   0.546678 0.916475 0.997924 0.493362
C90   C     C_3   0.253748 0.270795 0.041692 -0.121725
C91   C     C_R   0.473809 0.083540 0.943412 0.493168
C92   C     C_R   0.953323 0.416475 0.002077 0.493363
C93   C     C_R   0.026192 0.583540 0.056588 0.493168
C94   C     C_R   0.046660 0.416482 0.997964 0.493142
C95   C     C_R   0.973787 0.583534 0.943447 0.492997
C96   C     C_R   0.500011 0.933057 0.999975 -0.149090
C97   C     C_R   0.500013 0.066958 0.999979 -0.149871
C98   C     C_R   0.999990 0.433057 0.000025 -0.149091
C99   C     C_R   0.999988 0.566958 0.000021 -0.149871
C100  C     C_R   0.500004 0.867878 0.999991 -0.136414
C101  C     C_3   0.253655 0.729155 0.041539 -0.131438
C102  C     C_R   0.500003 0.132133 0.999993 -0.138401
C103  C     C_R   0.999996 0.367878 0.000009 -0.136413
C104  C     C_R   0.999997 0.632133 0.000007 -0.138402
C105  C     C_R   0.553121 0.983866 0.040198 -0.152295
C106  C     C_R   0.446631 0.016149 0.960534 -0.153161
C107  C     C_R   0.446908 0.983867 0.959738 -0.152361
C108  C     C_R   0.553399 0.016149 0.039405 -0.153185
C109  C     C_R   0.053092 0.483867 0.040261 -0.152361
C110  C     C_R   0.946601 0.516149 0.960596 -0.153185
C111  C     C_R   0.946878 0.483866 0.959803 -0.152296
C112  C     C_R   0.358301 0.749976 0.999991 0.778221
C113  C     C_3   0.775104 0.278293 0.015285 -0.185334
C114  C     C_R   0.053369 0.516149 0.039465 -0.153161
C115  C     C_3   0.909596 0.174598 0.756174 -0.280123
C116  C     C_3   0.999881 0.720465 0.229951 -0.326624
C117  C     C_3   0.090538 0.174574 0.243776 -0.281097
C118  C     C_3   0.999939 0.720301 0.769965 -0.327651
C119  C     C_3   0.409463 0.674574 0.756224 -0.281096
C120  C     C_3   0.500061 0.220300 0.230033 -0.327651
C121  C     C_3   0.590406 0.674598 0.243825 -0.280127
C122  C     C_3   0.500119 0.220466 0.770048 -0.326626
C123  C     C_3   0.739982 0.177014 0.430314 -0.321924
C124  C     C_3   0.760887 0.742349 0.056823 -0.176022
C125  C     C_3   0.166729 0.774821 0.569917 -0.312128
C126  C     C_3   0.260319 0.176950 0.569688 -0.322188
C127  C     C_3   0.833299 0.774740 0.430103 -0.312227
C128  C     C_3   0.239681 0.676950 0.430311 -0.322190
C129  C     C_3   0.666699 0.274739 0.569897 -0.312228
C130  C     C_3   0.760020 0.677014 0.569685 -0.321925
C131  C     C_3   0.333270 0.274821 0.430083 -0.312126
C132  C     C_3   0.424474 0.935153 0.067528 -0.314156
C133  C     C_3   0.506885 0.064910 0.129212 -0.316595
C134  C     C_3   0.575558 0.935120 0.932426 -0.314585
C135  C     C_3   0.259806 0.278311 0.984728 -0.181741
C136  C     C_3   0.493141 0.064933 0.870746 -0.316894
C137  C     C_3   0.924445 0.435120 0.067578 -0.314584
C138  C     C_3   0.006862 0.564933 0.129256 -0.316895
C139  C     C_3   0.075523 0.435153 0.932469 -0.314157
C140  C     C_3   0.993112 0.564910 0.870787 -0.316595
C141  C     C_3   0.881013 0.308658 0.625992 -0.329036
C142  C     C_3   0.294461 0.781489 0.373906 -0.326107
C143  C     C_3   0.118912 0.308572 0.374062 -0.328916
C144  C     C_3   0.705633 0.781658 0.626165 -0.326464
C145  C     C_3   0.381086 0.808572 0.625938 -0.328916
C146  C     C_3   0.259714 0.721639 0.984573 -0.183312
C147  C     C_3   0.794366 0.281660 0.373836 -0.326466
C148  C     C_3   0.618985 0.808658 0.374007 -0.329034
C149  C     C_3   0.205538 0.281488 0.626095 -0.326104
C150  C     C_3   0.760797 0.257601 0.056671 -0.181289
C151  C     C_3   0.240286 0.221639 0.015426 -0.183312
C152  C     C_3   0.739203 0.757601 0.943329 -0.181289
C153  C     C_3   0.739113 0.242349 0.943177 -0.176022
C154  C     C_3   0.240194 0.778311 0.015272 -0.181741
C155  C     C_3   0.698898 0.749851 0.999826 0.055141
C156  C     C_R   0.358332 0.250002 0.000044 0.775830
C157  C     C_3   0.301000 0.249913 0.999941 0.055238
C158  C     C_3   0.300915 0.750039 0.999799 0.054065
C159  C     C_3   0.698813 0.250100 0.999683 0.054758
C160  C     C_3   0.199085 0.250039 0.000201 0.054065
C161  C     C_3   0.801187 0.750100 0.000317 0.054759
C162  C     C_3   0.801102 0.249851 0.000174 0.055142
C163  C     C_3   0.199000 0.749913 0.000059 0.055238
C164  C     C_3   0.712301 0.729139 0.958408 -0.128485
C165  C     C_3   0.295822 0.242375 0.056868 -0.171296
C166  C     C_3   0.295721 0.757575 0.056714 -0.184341
C167  C     C_R   0.641660 0.749937 0.999930 0.777686
C168  C     C_3   0.712205 0.270810 0.958255 -0.122917
C169  C     C_3   0.204279 0.257575 0.943286 -0.184341
C170  C     C_3   0.787795 0.770810 0.041745 -0.122917
C171  C     C_3   0.787699 0.229139 0.041592 -0.128486
C172  C     C_3   0.204178 0.742375 0.943132 -0.171296
C173  C     C_R   0.870261 0.277186 0.731457 -0.400523
C174  C     C_R   0.180493 0.748847 0.268718 -0.395366
C175  C     C_R   0.129700 0.277170 0.268555 -0.400558
C176  C     C_R   0.819489 0.748925 0.731301 -0.395260
C177  C     C_R   0.370299 0.777170 0.731445 -0.400556
C178  C     C_R   0.141668 0.750002 0.999955 0.775829
C179  C     C_R   0.680511 0.248926 0.268699 -0.395260
C180  C     C_R   0.629738 0.777186 0.268543 -0.400525
C181  C     C_R   0.319506 0.248847 0.731282 -0.395367
C182  C     C_R   0.839367 0.277220 0.666632 0.631101
C183  C     C_R   0.213133 0.749435 0.333569 0.629078
C184  C     C_R   0.160606 0.277195 0.333381 0.631118
C185  C     C_R   0.786837 0.749522 0.666450 0.629288
C186  C     C_R   0.339393 0.777195 0.666619 0.631118
C187  C     C_R   0.713163 0.249523 0.333550 0.629289
C188  C     C_R   0.660631 0.777220 0.333368 0.631103
C189  C     C_R   0.858340 0.249937 0.000070 0.777686
C190  C     C_R   0.286866 0.249434 0.666431 0.629078
C191  C     C_R   0.815032 0.249292 0.633936 -0.021913
C192  C     C_R   0.181692 0.748553 0.366320 -0.026130
C193  C     C_R   0.185008 0.249269 0.366060 -0.021968
C194  C     C_R   0.818260 0.748585 0.633683 -0.026222
C195  C     C_R   0.314992 0.749269 0.633940 -0.021968
C196  C     C_R   0.681740 0.248585 0.366317 -0.026224
C197  C     C_R   0.684968 0.749292 0.366064 -0.021913
C198  C     C_R   0.318308 0.248554 0.633679 -0.026130
C199  C     C_R   0.826106 0.221481 0.667021 -0.384466
C200  C     C_R   0.858372 0.750040 0.000124 0.775767
C201  C     C_R   0.117929 0.749098 0.333300 -0.379901
C202  C     C_R   0.173980 0.221467 0.332959 -0.384284
C203  C     C_R   0.882025 0.749061 0.666690 -0.379974
C204  C     C_R   0.326020 0.721467 0.667041 -0.384284
C205  C     C_R   0.617974 0.249060 0.333310 -0.379972
C206  C     C_R   0.673895 0.721481 0.332979 -0.384466
C207  C     C_R   0.382071 0.249098 0.666700 -0.379902
C208  C     C_R   0.861046 0.221163 0.731977 0.533861
C209  C     C_R   0.085331 0.749507 0.268434 0.549928
C210  C     C_R   0.139024 0.221155 0.268004 0.534344
C211  C     C_R   0.141699 0.249976 0.000008 0.778221
C212  C     C_R   0.914639 0.749455 0.731556 0.550347
C213  C     C_R   0.360976 0.721155 0.731996 0.534343
C214  C     C_R   0.585361 0.249454 0.268444 0.550345
C215  C     C_R   0.638955 0.721163 0.268023 0.533861
C216  C     C_R   0.414668 0.249507 0.731565 0.549929
C217  C     C_R   0.416124 0.249977 0.831932 0.855018
C218  C     C_R   0.584147 0.749840 0.168016 0.879040
C219  C     C_R   0.583877 0.249977 0.168067 0.853927
C220  C     C_R   0.415854 0.749840 0.831985 0.880552
C221  C     C_R   0.916123 0.749977 0.831933 0.853925
C222  C     C_R   0.500015 0.032619 0.999972 0.148192
C223  C     C_R   0.084146 0.249840 0.168015 0.880553
C224  C     C_R   0.083876 0.749977 0.168068 0.855019
C225  C     C_R   0.915853 0.249840 0.831984 0.879038
C226  C     C_R   0.881470 0.249358 0.764165 -0.176439
C227  C     C_R   0.116892 0.749479 0.235978 -0.187285
C228  C     C_R   0.118540 0.249351 0.235833 -0.176464
C229  C     C_R   0.883093 0.749487 0.764025 -0.186934
C230  C     C_R   0.381460 0.749351 0.764167 -0.176466
C231  C     C_R   0.616907 0.249487 0.235975 -0.186934
C232  C     C_R   0.618530 0.749358 0.235835 -0.176437
H1    H     H_    0.831077 0.211000 0.558523 0.187762
H2    H     H_    0.523308 0.429080 0.928404 0.134567
H3    H     H_    0.847528 0.791008 0.405599 0.204842
H4    H     H_    0.190255 0.682072 0.401028 0.151972
H5    H     H_    0.249997 0.667048 0.475702 0.150281
H6    H     H_    0.250907 0.659077 0.405917 0.204264
H7    H     H_    0.684748 0.253546 0.599037 0.157142
H8    H     H_    0.625693 0.269024 0.524469 0.149252
H9    H     H_    0.652470 0.291006 0.594401 0.204842
H10   H     H_    0.809464 0.682093 0.598957 0.151953
H11   H     H_    0.749655 0.667098 0.524289 0.150225
H12   H     H_    0.748741 0.659169 0.594086 0.204348
H13   H     H_    0.521880 0.570958 0.927348 0.131037
H14   H     H_    0.315265 0.253631 0.400929 0.157317
H15   H     H_    0.374295 0.269115 0.475502 0.149219
H16   H     H_    0.347455 0.291118 0.405585 0.204832
H17   H     H_    0.478712 0.627430 0.073164 0.155530
H18   H     H_    0.522870 0.372593 0.927982 0.163957
H19   H     H_    0.521271 0.627429 0.926824 0.155118
H20   H     H_    0.477114 0.372593 0.072007 0.164509
H21   H     H_    0.978729 0.127430 0.073176 0.155118
H22   H     H_    0.022886 0.872593 0.927993 0.164509
H23   H     H_    0.021288 0.127430 0.926836 0.155530
H24   H     H_    0.476662 0.429079 0.071576 0.134671
H25   H     H_    0.977129 0.872593 0.072018 0.163957
H26   H     H_    0.450276 0.528257 0.899801 0.131629
H27   H     H_    0.549601 0.471709 0.100157 0.132426
H28   H     H_    0.549690 0.528258 0.100176 0.131690
H29   H     H_    0.450365 0.471708 0.899821 0.132352
H30   H     H_    0.950310 0.028258 0.899824 0.131690
H31   H     H_    0.049635 0.971708 0.100179 0.132352
H32   H     H_    0.049724 0.028257 0.100199 0.131629
H33   H     H_    0.950399 0.971709 0.899843 0.132427
H34   H     H_    0.466854 0.949063 0.093466 0.164327
H35   H     H_    0.978120 0.070958 0.072652 0.131036
H36   H     H_    0.430076 0.912229 0.090179 0.157779
H37   H     H_    0.387908 0.947758 0.069877 0.193608
H38   H     H_    0.467634 0.051033 0.094134 0.163878
H39   H     H_    0.491159 0.087852 0.135884 0.156063
H40   H     H_    0.526994 0.052294 0.173954 0.193774
H41   H     H_    0.533174 0.949025 0.906464 0.164398
H42   H     H_    0.569969 0.912190 0.909802 0.157438
H43   H     H_    0.612124 0.947722 0.930071 0.193702
H44   H     H_    0.532395 0.051055 0.905818 0.163912
H45   H     H_    0.508863 0.087878 0.864084 0.155835
H46   H     H_    0.023337 0.929079 0.928424 0.134671
H47   H     H_    0.473036 0.052321 0.825998 0.193801
H48   H     H_    0.966829 0.449025 0.093537 0.164399
H49   H     H_    0.930035 0.412190 0.090202 0.157438
H50   H     H_    0.887879 0.447722 0.069934 0.193702
H51   H     H_    0.967608 0.551056 0.094184 0.163912
H52   H     H_    0.991142 0.587878 0.135919 0.155835
H53   H     H_    0.026968 0.552322 0.174004 0.193802
H54   H     H_    0.033143 0.449063 0.906531 0.164326
H55   H     H_    0.069921 0.412229 0.909819 0.157779
H56   H     H_    0.112088 0.447758 0.930119 0.193608
H57   H     H_    0.021912 0.070959 0.927370 0.131100
H58   H     H_    0.032362 0.551033 0.905864 0.163878
H59   H     H_    0.008839 0.587851 0.864114 0.156063
H60   H     H_    0.973002 0.552293 0.826045 0.193774
H61   H     H_    0.887198 0.298847 0.756280 0.185936
H62   H     H_    0.205001 0.748945 0.243940 0.189524
H63   H     H_    0.112714 0.298830 0.243744 0.185786
H64   H     H_    0.794993 0.749068 0.756091 0.188937
H65   H     H_    0.387285 0.798831 0.756256 0.185787
H66   H     H_    0.705007 0.249069 0.243909 0.188937
H67   H     H_    0.612800 0.798847 0.243720 0.185935
H68   H     H_    0.976692 0.929080 0.071596 0.134566
H69   H     H_    0.294998 0.248945 0.756060 0.189524
H70   H     H_    0.882626 0.289739 0.596665 0.161624
H71   H     H_    0.924892 0.310048 0.670811 0.150093
H72   H     H_    0.874949 0.330780 0.600972 0.199970
H73   H     H_    0.279560 0.793744 0.403004 0.162853
H74   H     H_    0.277470 0.793787 0.328971 0.151517
H75   H     H_    0.344829 0.782231 0.399039 0.198483
H76   H     H_    0.117358 0.289635 0.403390 0.161651
H77   H     H_    0.075020 0.309946 0.329253 0.150376
H78   H     H_    0.124931 0.330686 0.399092 0.199896
H79   H     H_    0.594466 0.971764 0.072362 0.176839
H80   H     H_    0.720577 0.793888 0.597077 0.162994
H81   H     H_    0.722677 0.793949 0.671116 0.151232
H82   H     H_    0.655269 0.782452 0.601039 0.198510
H83   H     H_    0.382640 0.789636 0.596609 0.161651
H84   H     H_    0.424978 0.809946 0.670746 0.150375
H85   H     H_    0.375067 0.830686 0.600908 0.199895
H86   H     H_    0.779422 0.293889 0.402925 0.162995
H87   H     H_    0.777322 0.293951 0.328886 0.151233
H88   H     H_    0.844730 0.282453 0.398962 0.198511
H89   H     H_    0.617371 0.789738 0.403334 0.161623
H90   H     H_    0.404603 0.028251 0.930326 0.175860
H91   H     H_    0.575106 0.810047 0.329188 0.150093
H92   H     H_    0.625047 0.830779 0.399027 0.199970
H93   H     H_    0.220440 0.293744 0.596997 0.162852
H94   H     H_    0.222529 0.293786 0.671031 0.151517
H95   H     H_    0.155171 0.282230 0.600962 0.198483
H96   H     H_    0.405563 0.971765 0.927575 0.176780
H97   H     H_    0.163089 0.785627 0.441708 0.194040
H98   H     H_    0.595426 0.028250 0.069615 0.175905
H99   H     H_    0.094438 0.471765 0.072423 0.176780
H100  H     H_    0.904573 0.528250 0.930387 0.175905
H101  H     H_    0.905533 0.471764 0.927640 0.176839
H102  H     H_    0.095397 0.528251 0.069672 0.175860
H103  H     H_    0.768674 0.736099 0.103308 0.139686
H104  H     H_    0.268918 0.301521 0.972173 0.135370
H105  H     H_    0.268826 0.698430 0.972016 0.136773
H106  H     H_    0.768561 0.263849 0.103149 0.134427
H107  H     H_    0.231174 0.198429 0.027984 0.136773
H108  H     H_    0.169094 0.210909 0.441471 0.187750
H109  H     H_    0.731439 0.763849 0.896851 0.134426
H110  H     H_    0.731326 0.236099 0.896691 0.139685
H111  H     H_    0.231081 0.801521 0.027827 0.135370
H112  H     H_    0.244191 0.212061 0.924294 0.150927
H113  H     H_    0.703179 0.801486 0.972128 0.134822
H114  H     H_    0.703060 0.198470 0.971953 0.133633
H115  H     H_    0.244097 0.787890 0.924142 0.153696
H116  H     H_    0.796940 0.698470 0.028047 0.133633
H117  H     H_    0.255903 0.287889 0.075858 0.153696
H118  H     H_    0.255809 0.712061 0.075706 0.150927
H119  H     H_    0.836959 0.785605 0.558294 0.194103
H120  H     H_    0.796821 0.301486 0.027872 0.134822
H121  H     H_    0.680427 0.712035 0.924204 0.146746
H122  H     H_    0.334440 0.236161 0.103379 0.135998
H123  H     H_    0.334317 0.763792 0.103231 0.132935
H124  H     H_    0.680314 0.287905 0.924040 0.156792
H125  H     H_    0.165683 0.263792 0.896768 0.132935
H126  H     H_    0.819685 0.787905 0.075960 0.156792
H127  H     H_    0.819573 0.212035 0.075796 0.146747
H128  H     H_    0.165560 0.736161 0.896621 0.135997
H129  H     H_    0.806892 0.200011 0.642348 0.176071
H130  H     H_    0.330906 0.710910 0.558529 0.187750
H131  H     H_    0.093225 0.748869 0.357863 0.180174
H132  H     H_    0.193240 0.199998 0.357616 0.176077
H133  H     H_    0.906716 0.748786 0.642114 0.180240
H134  H     H_    0.306760 0.699998 0.642383 0.176077
H135  H     H_    0.593283 0.248785 0.357886 0.180241
H136  H     H_    0.693110 0.700011 0.357651 0.176071
H137  H     H_    0.406775 0.248869 0.642137 0.180174
H138  H     H_    0.415852 0.871639 0.999850 0.174779
H139  H     H_    0.549379 0.128382 0.099739 0.174590
H140  H     H_    0.584156 0.871626 0.000129 0.174263
H141  H     H_    0.663039 0.285604 0.441706 0.194103
H142  H     H_    0.450629 0.128392 0.900245 0.174442
H143  H     H_    0.915845 0.371626 0.999873 0.174262
H144  H     H_    0.049372 0.628392 0.099755 0.174443
H145  H     H_    0.084147 0.371639 0.000148 0.174778
H146  H     H_    0.950619 0.628382 0.900261 0.174591
H147  H     H_    0.921840 0.154495 0.787937 0.187960
H148  H     H_    0.952600 0.186803 0.768110 0.164307
H149  H     H_    0.887384 0.165415 0.708050 0.149017
H150  H     H_    0.014428 0.705720 0.203354 0.141463
H151  H     H_    0.949507 0.721442 0.203254 0.192301
H152  H     H_    0.668924 0.710999 0.441477 0.187762
H153  H     H_    0.013908 0.709737 0.275721 0.156224
H154  H     H_    0.078334 0.154473 0.212013 0.187896
H155  H     H_    0.047511 0.186757 0.231830 0.163743
H156  H     H_    0.112755 0.165389 0.291899 0.149220
H157  H     H_    0.985413 0.705602 0.796639 0.142013
H158  H     H_    0.050315 0.721216 0.796552 0.187282
H159  H     H_    0.985765 0.709558 0.724172 0.156992
H160  H     H_    0.421667 0.654473 0.787986 0.187896
H161  H     H_    0.452490 0.686758 0.768170 0.163742
H162  H     H_    0.387246 0.665389 0.708100 0.149221
H163  H     H_    0.336910 0.285628 0.558292 0.194040
H164  H     H_    0.514588 0.205602 0.203359 0.142013
H165  H     H_    0.449685 0.221214 0.203447 0.187283
H166  H     H_    0.514236 0.209556 0.275826 0.156993
H167  H     H_    0.578163 0.654494 0.212063 0.187961
H168  H     H_    0.547402 0.686802 0.231889 0.164309
H169  H     H_    0.612619 0.665415 0.291949 0.149018
H170  H     H_    0.485571 0.205720 0.796644 0.141463
H171  H     H_    0.550493 0.221443 0.796745 0.192302
H172  H     H_    0.486093 0.209738 0.724277 0.156225
H173  H     H_    0.690537 0.182094 0.401042 0.151953
H174  H     H_    0.478088 0.570959 0.072630 0.131100
H175  H     H_    0.750346 0.167098 0.475709 0.150225
H176  H     H_    0.751261 0.159170 0.405913 0.204348
H177  H     H_    0.184734 0.753630 0.599071 0.157318
H178  H     H_    0.125705 0.769115 0.524497 0.149220
H179  H     H_    0.152544 0.791117 0.594415 0.204833
H180  H     H_    0.309745 0.182072 0.598971 0.151970
H181  H     H_    0.250003 0.167048 0.524297 0.150281
H182  H     H_    0.249094 0.159077 0.594082 0.204263
H183  H     H_    0.815251 0.753548 0.400962 0.157142
H184  H     H_    0.874306 0.769025 0.475530 0.149252
O1    O     O_3   0.500000 0.250030 0.000000 -0.489014
O2    O     O_R   0.864560 0.268140 0.963700 -0.638171
O3    O     O_R   0.864560 0.731860 0.963700 -0.642180
O4    O     O_R   0.135440 0.268140 0.036300 -0.645445
O5    O     O_R   0.461440 0.268210 0.861400 -0.598045
O6    O     O_R   0.538560 0.731790 0.138600 -0.627499
O7    O     O_R   0.538560 0.268210 0.138600 -0.597785
O8    O     O_R   0.461440 0.731790 0.861400 -0.627644
O9    O     O_R   0.961440 0.768210 0.861400 -0.597784
O10   O     O_R   0.038560 0.231790 0.138600 -0.627644
O11   O     O_R   0.038560 0.768210 0.138600 -0.598046
O12   O     O_3   0.500000 0.749970 0.000000 -0.485658
O13   O     O_R   0.961440 0.231790 0.861400 -0.627498
O14   O     O_R   0.512550 0.319330 0.963650 -0.646873
O15   O     O_R   0.487450 0.680670 0.036350 -0.642127
O16   O     O_R   0.487450 0.319330 0.036350 -0.646675
O17   O     O_R   0.512550 0.680670 0.963650 -0.642196
O18   O     O_R   0.012550 0.819330 0.963650 -0.646674
O19   O     O_R   0.987450 0.180670 0.036350 -0.642197
O20   O     O_R   0.987450 0.819330 0.036350 -0.646874
O21   O     O_R   0.012550 0.180670 0.963650 -0.642126
O22   O     O_R   0.548940 0.180730 0.036330 -0.639676
O23   O     O_3   0.000000 0.750030 0.000000 -0.489014
O24   O     O_R   0.451060 0.819270 0.963670 -0.641679
O25   O     O_R   0.451060 0.180730 0.963670 -0.639894
O26   O     O_R   0.548940 0.819270 0.036330 -0.641271
O27   O     O_R   0.048940 0.680730 0.036330 -0.639894
O28   O     O_R   0.951060 0.319270 0.963670 -0.641271
O29   O     O_R   0.951060 0.680730 0.963670 -0.639677
O30   O     O_R   0.048940 0.319270 0.036330 -0.641679
O31   O     O_R   0.399960 0.231880 0.861420 -0.650937
O32   O     O_R   0.600040 0.768120 0.138580 -0.640242
O33   O     O_R   0.600040 0.231880 0.138580 -0.650723
O34   O     O_3   1.000000 0.249970 0.000000 -0.485658
O35   O     O_R   0.399960 0.768120 0.861420 -0.640359
O36   O     O_R   0.899960 0.731880 0.861420 -0.650723
O37   O     O_R   0.100040 0.268120 0.138580 -0.640359
O38   O     O_R   0.100040 0.731880 0.138580 -0.650936
O39   O     O_R   0.899960 0.268120 0.861420 -0.640243
O40   O     O_R   0.599090 0.268200 0.963630 -0.638260
O41   O     O_R   0.400910 0.731800 0.036370 -0.647110
O42   O     O_R   0.400910 0.268200 0.036370 -0.630513
O43   O     O_R   0.599090 0.731800 0.963630 -0.653881
O44   O     O_R   0.099090 0.768200 0.963630 -0.630512
O45   O     O_R   0.635440 0.231860 0.036300 -0.642179
O46   O     O_R   0.900910 0.231800 0.036370 -0.653882
O47   O     O_R   0.900910 0.768200 0.036370 -0.638260
O48   O     O_R   0.099090 0.231800 0.963630 -0.647109
O49   O     O_3   0.869796 0.193879 0.764518 -0.603337
O50   O     O_3   0.022590 0.750864 0.236961 -0.580926
O51   O     O_3   0.130315 0.193881 0.235448 -0.602975
O52   O     O_3   0.977386 0.750731 0.763017 -0.580135
O53   O     O_3   0.369686 0.693881 0.764552 -0.602975
O54   O     O_3   0.522613 0.250730 0.236982 -0.580136
O55   O     O_3   0.630206 0.693879 0.235482 -0.603337
O56   O     O_R   0.364560 0.768140 0.963700 -0.645445
O57   O     O_3   0.477410 0.250864 0.763039 -0.580926
O58   O     O_3   0.775334 0.203580 0.438506 -0.555665
O59   O     O_3   0.211577 0.789308 0.561790 -0.555555
O60   O     O_3   0.224871 0.203477 0.561484 -0.555677
O61   O     O_3   0.788478 0.789273 0.438209 -0.555467
O62   O     O_3   0.275130 0.703477 0.438516 -0.555677
O63   O     O_3   0.711521 0.289272 0.561791 -0.555466
O64   O     O_3   0.724668 0.703579 0.561494 -0.555665
O65   O     O_3   0.288422 0.289308 0.438210 -0.555554
O66   O     O_3   0.407262 0.931777 0.004694 -0.606751
O67   O     O_R   0.364560 0.231860 0.963700 -0.649451
O68   O     O_3   0.551729 0.068237 0.112772 -0.606340
O69   O     O_3   0.592759 0.931763 0.995259 -0.606676
O70   O     O_3   0.448296 0.068250 0.887186 -0.606358
O71   O     O_3   0.907242 0.431763 0.004743 -0.606676
O72   O     O_3   0.051707 0.568250 0.112814 -0.606358
O73   O     O_3   0.092736 0.431777 0.995304 -0.606751
O74   O     O_3   0.948268 0.568237 0.887227 -0.606340
O75   O     O_3   0.831722 0.304849 0.635673 -0.556037
O76   O     O_3   0.275866 0.750253 0.364524 -0.558096
O77   O     O_3   0.168197 0.304814 0.364354 -0.556154
O78   O     O_R   0.635440 0.768140 0.036300 -0.638171
O79   O     O_3   0.724108 0.750404 0.635508 -0.558065
O80   O     O_3   0.331802 0.804814 0.635646 -0.556155
O81   O     O_3   0.775892 0.250405 0.364492 -0.558065
O82   O     O_3   0.668276 0.804849 0.364327 -0.556038
O83   O     O_3   0.224134 0.250252 0.635476 -0.558097
O84   O     O_R   0.135440 0.731860 0.036300 -0.649450
Zn1   Zn    Zn3+2 0.430120 0.224080 0.948100 0.960307
Zn2   Zn    Zn3+2 0.482040 0.724010 0.051930 0.976467
Zn3   Zn    Zn3+2 0.482040 0.275990 0.051930 0.987366
Zn4   Zn    Zn3+2 0.517960 0.724010 0.948070 0.974462
Zn5   Zn    Zn3+2 0.017960 0.775990 0.948070 0.987366
Zn6   Zn    Zn3+2 0.982040 0.224010 0.051930 0.974462
Zn7   Zn    Zn3+2 0.982040 0.775990 0.051930 0.984449
Zn8   Zn    Zn3+2 0.017960 0.224010 0.948070 0.976467
Zn9   Zn    Zn3+2 0.569880 0.775920 0.051900 0.973381
Zn10  Zn    Zn3+2 0.569880 0.224080 0.051900 0.962758
Zn11  Zn    Zn3+2 0.430120 0.775920 0.948100 0.971077
Zn12  Zn    Zn3+2 0.930120 0.724080 0.948100 0.962758
Zn13  Zn    Zn3+2 0.069880 0.275920 0.051900 0.971077
Zn14  Zn    Zn3+2 0.069880 0.724080 0.051900 0.960307
Zn15  Zn    Zn3+2 0.930120 0.275920 0.948100 0.973381
Zn16  Zn    Zn3+2 0.517960 0.275990 0.948070 0.984449

loop_
_geom_bond_atom_site_label_1
_geom_bond_atom_site_label_2
_ccdc_geom_bond_type
C128  H4    S    
C145  O80   S    
O27   Zn14  S    
C84   H144  S    
C87   O66   S    
C137  H48   S    
C46   C155  S    
C158  C166  S    
C76   O27   A    
C112  C158  S    
C182  O75   S    
C34   H21   S    
C24   C98   S    
C93   O72   S    
C118  O52   S    
C153  H110  S    
C200  O47   A    
C64   H33   S    
C59   C66   A    
C95   C99   A    
C133  H39   S    
C106  C107  A    
C72   O20   A    
C184  C193  A    
C110  C111  A    
C32   C52   A    
O15   Zn2   S    
C38   C55   A    
C155  C167  S    
C8    H130  S    
C138  H51   S    
C94   O73   S    
C74   O22   A    
C127  H183  S    
C4    C12   A    
C189  O46   A    
C88   C97   A    
C85   C103  A    
C36   C44   A    
C57   C159  S    
C106  H90   S    
O4    Zn13  S    
O30   Zn13  S    
C217  O5    A    
C197  C206  A    
C88   O68   S    
C79   C161  S    
C68   C158  S    
C214  C231  A    
C150  H106  S    
C81   H140  S    
O16   Zn3   S    
C112  O56   A    
C124  H103  S    
C5    H97   S    
O12   Zn9   S    
C150  C159  S    
C221  O36   A    
C1    C159  S    
C136  H47   S    
O84   Zn14  S    
O23   Zn12  S    
O37   Zn13  S    
C145  H85   S    
C128  H5    S    
O21   Zn8   S    
C82   C91   A    
C174  C227  A    
C35   C157  S    
C122  O57   S    
C9    H141  S    
C152  H109  S    
C154  C163  S    
C11   H163  S    
C32   H19   S    
C133  O68   S    
O12   Zn2   S    
C156  O42   A    
C163  C178  S    
C163  C172  S    
O1    Zn16  S    
C165  H122  S    
O8    Zn4   S    
C137  H50   S    
C34   C54   A    
C153  C168  S    
C59   H28   S    
C77   C103  S    
C120  O54   S    
C143  H78   S    
C68   H115  S    
C156  O67   A    
O25   Zn1   S    
C16   C25   A    
C141  H71   S    
C116  O50   S    
C17   O62   S    
C210  C228  A    
C149  H93   S    
C116  H151  S    
C62   H31   S    
C167  O43   A    
C1    O45   A    
C153  C162  S    
C127  H3    S    
C8    C17   A    
O5    Zn16  S    
C220  O35   A    
C89   C96   A    
C2    C96   S    
C47   H68   S    
C80   C88   A    
C36   C55   A    
C144  H82   S    
C140  H59   S    
C9    C21   A    
C112  O41   A    
C29   C193  S    
C12   C21   A    
C11   C23   A    
C207  C216  A    
C125  H177  S    
C139  H56   S    
C178  O84   A    
C84   C93   A    
C207  H137  S    
C21   C196  S    
C101  C166  S    
C123  H175  S    
C6    H108  S    
C131  H16   S    
C115  O49   S    
C1    O40   A    
C125  H179  S    
C120  H166  S    
C216  O57   S    
C128  O62   S    
C45   H57   S    
C108  H98   S    
C136  O70   S    
O7    Zn3   S    
C78   C87   A    
C168  H124  S    
O12   Zn11  S    
C135  C157  S    
C23   C198  S    
C35   H112  S    
C131  O65   S    
C80   H139  S    
C86   C104  A    
C63   H32   S    
C113  C168  S    
C123  H173  S    
C122  H171  S    
C31   C40   A    
O42   Zn3   S    
C142  H74   S    
C118  H157  S    
C83   C103  A    
C186  O80   S    
C33   C42   A    
C45   C50   A    
C119  O53   S    
C56   C66   A    
C14   O59   S    
C225  O13   A    
O12   Zn4   S    
C40   C49   A    
O11   Zn7   S    
C184  O77   S    
C108  C222  A    
O34   Zn15  S    
C85   C94   A    
O24   Zn11  S    
O9    Zn5   S    
C115  H148  S    
C208  C226  A    
C130  H12   S    
C44   H46   S    
O43   Zn4   S    
C63   C69   A    
C8    C22   A    
C32   C41   A    
C213  O53   S    
C152  C161  S    
C137  O71   S    
C126  H182  S    
C129  H7    S    
C134  H43   S    
C149  H95   S    
C201  C209  A    
C71   O15   A    
O23   Zn7   S    
C179  C231  A    
C127  O61   S    
C215  C232  A    
C86   H146  S    
C86   C95   A    
C192  C201  A    
C157  C165  S    
C177  C230  A    
C205  H135  S    
C151  C165  S    
C173  H61   S    
C36   H22   S    
C46   C170  S    
C139  H54   S    
C80   C102  A    
C154  H111  S    
C126  H180  S    
C13   C99   S    
C33   H20   S    
O23   Zn5   S    
C43   H35   S    
C131  H14   S    
C178  O44   A    
C121  H167  S    
C58   C65   A    
C187  O81   S    
C82   C102  A    
C51   C67   S    
C19   C28   A    
C218  C232  S    
C109  C114  A    
C77   O30   A    
C10   C25   A    
C200  O3    A    
O67   Zn1   S    
C84   C104  A    
O34   Zn8   S    
C22   C195  S    
C37   C54   A    
C121  O55   S    
C148  H89   S    
C109  H99   S    
C4    C27   A    
C117  H156  S    
C220  O8    A    
C188  O82   S    
C161  C200  S    
C198  C207  A    
C113  C150  S    
C34   C43   A    
C119  H160  S    
C219  C231  S    
C144  H80   S    
C43   C50   A    
C85   H145  S    
C146  C158  S    
C79   C124  S    
C30   H17   S    
C74   C102  S    
C147  H88   S    
O34   Zn13  S    
C14   C22   A    
C142  O76   S    
C190  O83   S    
C116  H150  S    
C105  H79   S    
C224  O38   A    
C212  C229  A    
C130  H10   S    
C133  H38   S    
C176  C229  A    
C180  H67   S    
C199  C208  A    
C126  O60   S    
C30   C39   A    
O29   Zn12  S    
C199  H129  S    
C217  O31   A    
C107  H96   S    
C140  H58   S    
C9    C18   A    
C124  C155  S    
C138  H52   S    
C134  H41   S    
C39   C48   A    
C48   C66   S    
O45   Zn10  S    
C144  O79   S    
C166  H123  S    
C206  C215  A    
C76   C104  S    
C187  C196  A    
C79   C164  S    
C149  O83   S    
C183  C192  A    
C176  C185  A    
C185  O79   S    
C18   O63   S    
C138  H53   S    
C79   H116  S    
C35   C151  S    
C132  O66   S    
O14   Zn16  S    
O20   Zn7   S    
C121  H169  S    
O17   Zn4   S    
C179  C187  A    
C94   C98   A    
C145  H84   S    
C128  H6    S    
C73   O21   A    
C97   C222  S    
C160  C211  S    
C206  H136  S    
C180  C188  A    
C185  C194  A    
C19   O64   S    
C160  C169  S    
O34   Zn6   S    
C211  O48   A    
C7    H119  S    
C93   C99   A    
C148  H91   S    
C13   C114  A    
C115  H149  S    
C223  O37   A    
C81   C89   A    
C71   O17   A    
C138  O72   S    
C172  H128  S    
C137  H49   S    
C177  H65   S    
C151  H107  S    
C183  O76   S    
C53   C70   S    
C143  H77   S    
O1    Zn10  S    
O13   Zn8   S    
C141  H70   S    
C11   C20   A    
C119  H161  S    
C201  H131  S    
C116  H153  S    
C147  H86   S    
C73   O19   A    
C177  C186  A    
C40   H2    S    
C210  O51   S    
C132  H37   S    
O19   Zn6   S    
C26   C192  S    
C133  H40   S    
C47   C51   A    
C195  C204  A    
C89   O69   S    
C3    C216  A    
C70   O16   A    
C218  O6    A    
C193  C202  A    
C56   C60   A    
C61   C64   A    
O1    Zn1   S    
C62   C63   A    
C117  H154  S    
C140  H60   S    
C54   C73   S    
C205  C214  A    
C150  C171  S    
C101  C163  S    
C10   C19   A    
C129  O63   S    
O23   Zn14  S    
C139  H55   S    
C91   C97   A    
C3    C181  A    
C39   H174  S    
C5    C14   A    
C131  H15   S    
O44   Zn5   S    
C110  H100  S    
C7    C16   A    
O2    Zn15  S    
O56   Zn11  S    
C78   C100  A    
O31   Zn1   S    
C58   C59   A    
C182  C191  A    
C147  O81   S    
C224  C227  S    
C125  O59   S    
C190  C198  A    
C117  O51   S    
C134  O69   S    
C83   H143  S    
C57   C153  S    
C174  H62   S    
C164  H121  S    
C41   H13   S    
C123  O58   S    
C167  O78   A    
C24   C109  A    
C114  H102  S    
C191  C199  A    
C174  C183  A    
C139  O73   S    
C113  H120  S    
C120  H164  S    
C81   C100  A    
C122  H172  S    
C225  O39   A    
C142  H75   S    
C118  H158  S    
C220  C230  S    
C58   H27   S    
C144  H81   S    
C15   O60   S    
C52   C71   S    
C143  H76   S    
C151  C160  S    
C148  O82   S    
C68   C172  S    
C30   C52   A    
C188  C197  A    
C10   H152  S    
C75   O24   A    
C12   O58   S    
C135  C169  S    
C90   C160  S    
O46   Zn6   S    
C115  H147  S    
C57   H114  S    
C7    C28   A    
C91   O70   S    
C132  H34   S    
C5    C26   A    
C6    C29   A    
C175  C228  A    
O32   Zn9   S    
C221  C229  S    
C154  C166  S    
C209  C227  A    
C162  C189  S    
C213  C230  A    
C175  C184  A    
C224  O11   A    
C141  H72   S    
C46   C152  S    
C90   C135  S    
C146  C172  S    
C175  H63   S    
C4    H1    S    
C111  H101  S    
C176  H64   S    
C149  H94   S    
C141  O75   S    
C212  O52   S    
C209  O50   S    
C92   C98   A    
C78   H138  S    
C159  C168  S    
C83   C92   A    
C70   O14   A    
O10   Zn6   S    
C49   C65   S    
C62   C67   A    
C17   C26   A    
C156  C157  S    
C50   C69   S    
C169  H125  S    
C61   H30   S    
O1    Zn3   S    
C68   C154  S    
C173  C226  A    
O48   Zn8   S    
C171  H127  S    
C75   O26   A    
C173  C182  A    
C82   H142  S    
C202  H132  S    
C189  O2    A    
C2    C107  A    
C125  H178  S    
O28   Zn15  S    
C90   H117  S    
C204  H134  S    
C181  C190  A    
C126  H181  S    
C219  O7    A    
C196  C205  A    
C123  H176  S    
C6    C15   A    
C119  H162  S    
C120  H165  S    
C135  H104  S    
C37   H23   S    
C101  H118  S    
C214  O54   S    
C55   C72   S    
C118  H159  S    
C130  O64   S    
C113  C162  S    
C129  H9    S    
O39   Zn15  S    
C136  H44   S    
C24   C111  A    
C27   C191  S    
C202  C210  A    
C76   O29   A    
O40   Zn16  S    
C20   C29   A    
C122  H170  S    
C33   C53   A    
C117  H155  S    
C105  C108  A    
O3    Zn12  S    
C101  C146  S    
C142  H73   S    
O78   Zn9   S    
O6    Zn2   S    
C64   C67   A    
C186  C195  A    
C146  H105  S    
O26   Zn9   S    
C77   O28   A    
C223  C228  S    
C204  C213  A    
C31   H18   S    
C147  H87   S    
O35   Zn11  S    
C13   C110  A    
C132  H36   S    
O22   Zn10  S    
C130  H11   S    
C143  O77   S    
C28   C194  S    
C127  H184  S    
C42   H24   S    
C3    C217  S    
C87   C96   A    
C225  C226  S    
C181  H69   S    
C46   H113  S    
C31   C53   A    
C38   C47   A    
C152  C164  S    
C161  C170  S    
C170  H126  S    
C44   C51   A    
C129  H8    S    
C134  H42   S    
C223  O10   A    
C203  C212  A    
C203  H133  S    
C38   H25   S    
O38   Zn14  S    
C61   C69   A    
C215  O55   S    
C180  C232  A    
O41   Zn2   S    
C72   O18   A    
C60   H29   S    
C179  H66   S    
C56   H26   S    
C18   C27   A    
C208  O49   S    
C60   C65   A    
C211  O4    A    
C95   O74   S    
C155  C164  S    
O36   Zn12  S    
C2    C105  A    
C74   O25   A    
O33   Zn10  S    
C136  H45   S    
C90   C165  S    
C218  O32   A    
C140  O74   S    
C121  H168  S    
C221  O9    A    
C16   O61   S    
C106  C222  A    
O18   Zn5   S    
O47   Zn7   S    
C145  H83   S    
C35   C169  S    
C194  C203  A    
C15   C23   A    
C75   C100  S    
C41   C48   A    
C219  O33   A    
C25   C197  S    
C20   O65   S    
C42   C49   A    
C162  C171  S    
C124  C170  S    
C92   O71   S    
C37   C45   A    
C148  H92   S    
C57   C171  S    
