data_mof_unit_49789.cif
_audit_creation_date              2012-12-10T21:25:16-0500
_audit_creation_method            fapswitch 2.2
_symmetry_space_group_name_H-M    P1
_symmetry_Int_Tables_number       1
_space_group_crystal_system       triclinic
_cell_length_a                    10.702945
_cell_length_b                    17.428768
_cell_length_c                    16.756169
_cell_angle_alpha                 90.266755
_cell_angle_beta                  90.539824
_cell_angle_gamma                 90.406262
_cell_volume                      3125.42928563

loop_
_atom_site_label
_atom_site_type_symbol
_atom_type_description
_atom_site_fract_x
_atom_site_fract_y
_atom_site_fract_z
_atom_type_partial_charge
C1    C     C_R   0.502125 0.353008 0.499821 0.866839
C2    C     C_R   0.502270 0.647148 0.500222 0.867376
C3    C     C_R   0.872457 0.497989 0.501591 -0.091103
C4    C     C_R   0.127531 0.501844 0.498357 -0.091325
C5    C     C_R   0.939672 0.461087 0.562788 0.004351
C6    C     C_R   0.060338 0.538780 0.437164 0.004497
C7    C     C_R   0.550913 0.847414 0.577708 0.032472
C8    C     C_R   0.598576 0.157452 0.432108 0.027617
C9    C     C_R   0.522214 0.769313 0.574576 -0.259261
C10   C     C_R   0.573371 0.235771 0.432161 -0.262041
C11   C     C_R   0.521150 0.729835 0.501431 -0.049371
C12   C     C_R   0.520313 0.270694 0.499216 -0.045217
C13   C     C_R   0.548652 0.768668 0.430687 -0.222976
C14   C     C_R   0.493113 0.227561 0.567091 -0.232021
C15   C     C_R   0.576777 0.846329 0.433002 -0.185135
C16   C     C_R   0.517818 0.149697 0.567740 -0.186660
C17   C     C_R   0.577917 0.885454 0.505842 0.110908
C18   C     C_R   0.569971 0.114823 0.500792 0.112569
C19   C     C_1   0.587227 0.966323 0.503928 -0.065203
C20   C     C_1   0.584801 0.034392 0.502552 -0.058167
C21   C     C_R   0.463587 0.434548 0.831885 -0.299903
C22   C     C_R   0.537452 0.565243 0.168124 -0.301398
C23   C     C_R   0.259750 0.501285 0.499449 0.880402
C24   C     C_R   0.740247 0.498620 0.500547 0.879365
C25   C     C_R   0.464820 0.435633 0.747733 0.026534
C26   C     C_R   0.536304 0.564134 0.252275 0.026551
C27   C     C_R   0.532991 0.564822 0.748786 -0.010749
C28   C     C_R   0.465979 0.435375 0.251215 -0.011912
C29   C     C_R   0.530993 0.566423 0.832926 -0.301369
C30   C     C_R   0.467816 0.433795 0.167067 -0.300935
C31   C     C_R   0.497343 0.500457 0.875657 0.172310
C32   C     C_R   0.502503 0.499567 0.124342 0.172327
C33   C     C_1   0.499027 0.500155 0.963449 -0.033812
C34   C     C_1   0.500856 0.499878 0.036549 -0.033585
C35   C     C_R   0.252682 0.678896 0.317771 -0.153925
C36   C     C_R   0.750596 0.320767 0.684000 -0.152889
C37   C     C_R   0.193225 0.642955 0.381128 -0.118598
C38   C     C_R   0.808543 0.356682 0.620045 -0.121117
C39   C     C_R   0.120258 0.576906 0.367999 0.076545
C40   C     C_R   0.879978 0.423483 0.632315 0.075304
C41   C     C_R   0.105204 0.547177 0.289492 -0.019169
C42   C     C_R   0.894693 0.454143 0.710464 -0.017005
C43   C     C_R   0.166824 0.583747 0.225083 0.030178
C44   C     C_R   0.834149 0.417778 0.775401 0.030515
C45   C     C_R   0.240080 0.649555 0.240579 -0.180423
C46   C     C_R   0.762601 0.351105 0.760804 -0.184105
C47   C     C_R   0.932122 0.536943 0.440192 -0.216151
C48   C     C_R   0.067874 0.462866 0.559724 -0.218917
H1    H     H_    0.289627 0.677769 0.192751 0.132185
H2    H     H_    0.714079 0.322876 0.809048 0.133233
H3    H     H_    0.594984 0.876331 0.377720 0.140020
H4    H     H_    0.495232 0.116417 0.620264 0.150306
H5    H     H_    0.436476 0.382510 0.862465 0.130840
H6    H     H_    0.565497 0.617101 0.137554 0.130710
H7    H     H_    0.437663 0.384511 0.715007 0.118585
H8    H     H_    0.564492 0.615030 0.285013 0.117043
H9    H     H_    0.561038 0.615788 0.716921 0.123275
H10   H     H_    0.437295 0.384542 0.283103 0.126262
H11   H     H_    0.557566 0.618552 0.864364 0.137622
H12   H     H_    0.440394 0.381834 0.135618 0.136579
H13   H     H_    0.309724 0.729459 0.328617 0.134276
H14   H     H_    0.695413 0.269328 0.674026 0.144795
H15   H     H_    0.204822 0.666227 0.440833 0.114031
H16   H     H_    0.797463 0.332593 0.560647 0.119717
H17   H     H_    0.878651 0.566432 0.394460 0.156588
H18   H     H_    0.121345 0.433487 0.605536 0.155437
H19   H     H_    0.502457 0.739208 0.629547 0.149763
H20   H     H_    0.596249 0.269529 0.380016 0.155831
H21   H     H_    0.549333 0.739066 0.373729 0.143985
H22   H     H_    0.452994 0.254023 0.619479 0.144088
N1    N     N_R   0.500030 0.500030 0.707230 -0.078049
N2    N     N_R   0.499970 0.499970 0.292770 -0.077865
O1    O     O_R   0.500000 0.389130 0.566570 -0.625709
O2    O     O_R   0.500000 0.610870 0.433430 -0.626236
O3    O     O_R   0.499990 0.389100 0.433480 -0.632018
O4    O     O_R   0.500010 0.610900 0.566520 -0.630897
O5    O     O_R   0.316760 0.500020 0.566540 -0.613453
O6    O     O_R   0.683240 0.499980 0.433460 -0.614562
O7    O     O_R   0.316760 0.499990 0.433460 -0.613218
O8    O     O_R   0.683240 0.500010 0.566540 -0.613885
Zn1   Zn    Zn3+2 0.500010 0.500020 0.588860 0.944581
Zn2   Zn    Zn3+2 0.499990 0.499980 0.411140 0.943839
C49   C     C_R   0.021836 0.480016 0.275463 0.101337
C50   C     C_R   0.054329 0.407351 0.304755 -0.146115
C51   C     C_R   0.973208 0.344889 0.293679 -0.150058
C52   C     C_R   0.859187 0.354664 0.253766 -0.122309
C53   C     C_R   0.826118 0.426922 0.225022 -0.125078
C54   C     C_R   0.906895 0.489518 0.235997 -0.154157
H23   H     H_    0.142331 0.399262 0.335936 0.133479
H24   H     H_    0.998722 0.288957 0.316083 0.121095
H25   H     H_    0.796358 0.306347 0.245183 0.126080
H26   H     H_    0.737938 0.434426 0.194215 0.144386
H27   H     H_    0.879413 0.545611 0.214928 0.113018
C55   C     C_R   0.977181 0.521857 0.723602 0.100520
C56   C     C_R   0.943809 0.593964 0.693258 -0.149008
C57   C     C_R   0.024442 0.656829 0.703112 -0.143271
C58   C     C_R   0.138755 0.648046 0.742965 -0.114866
C59   C     C_R   0.172616 0.576356 0.772885 -0.125637
C60   C     C_R   0.092388 0.513335 0.763025 -0.154127
H28   H     H_    0.855611 0.601286 0.662081 0.135793
H29   H     H_    0.998427 0.712303 0.679719 0.126808
H30   H     H_    0.201222 0.696712 0.750480 0.115020
H31   H     H_    0.261077 0.569580 0.803592 0.142933
H32   H     H_    0.120557 0.457637 0.784837 0.113111
C61   C     C_R   0.160073 0.553630 0.141787 0.115588
C62   C     C_R   0.138418 0.603755 0.077581 -0.195809
C63   C     C_R   0.139344 0.576409 0.998990 -0.118465
C64   C     C_R   0.161442 0.498880 0.983741 -0.069056
C65   C     C_R   0.181920 0.448491 0.046846 -0.153974
C66   C     C_R   0.181694 0.475623 0.125382 -0.114540
H33   H     H_    0.121006 0.664037 0.088300 0.121401
H34   H     H_    0.122778 0.615316 0.949926 0.134716
H35   H     H_    0.162758 0.477629 0.923176 0.121621
H36   H     H_    0.199671 0.388500 0.034867 0.118681
H37   H     H_    0.202183 0.435941 0.173023 0.129934
C67   C     C_R   0.840584 0.448846 0.858342 0.115306
C68   C     C_R   0.817941 0.526913 0.873826 -0.114093
C69   C     C_R   0.817643 0.554931 0.952028 -0.153957
C70   C     C_R   0.839020 0.505374 0.015726 -0.070161
C71   C     C_R   0.862059 0.427792 0.001395 -0.117272
C72   C     C_R   0.863128 0.399571 0.923142 -0.195679
H38   H     H_    0.796752 0.565952 0.825729 0.130571
H39   H     H_    0.799142 0.614959 0.963291 0.119629
H40   H     H_    0.837702 0.527319 0.076032 0.121521
H41   H     H_    0.879361 0.389521 0.050895 0.136208
H42   H     H_    0.881409 0.339277 0.913158 0.121147
C73   C     C_R   0.549570 0.887927 0.655957 0.114071
C74   C     C_R   0.652025 0.933327 0.680845 -0.147938
C75   C     C_R   0.650040 0.971483 0.754394 -0.149517
C76   C     C_R   0.546422 0.964235 0.803956 -0.119353
C77   C     C_R   0.444677 0.918683 0.780128 -0.142114
C78   C     C_R   0.446111 0.880543 0.706553 -0.167726
H43   H     H_    0.733652 0.938856 0.643545 0.127085
H44   H     H_    0.729035 0.006517 0.773064 0.124388
H45   H     H_    0.545088 0.993777 0.860898 0.117003
H46   H     H_    0.364532 0.913017 0.818625 0.121439
H47   H     H_    0.366106 0.845890 0.688728 0.120732
C79   C     C_R   0.655698 0.122420 0.360456 0.121212
C80   C     C_R   0.596192 0.061404 0.319786 -0.149418
C81   C     C_R   0.650480 0.029390 0.251868 -0.152243
C82   C     C_R   0.763740 0.058419 0.223644 -0.106481
C83   C     C_R   0.822902 0.119555 0.263270 -0.144526
C84   C     C_R   0.769174 0.151525 0.331369 -0.175129
H48   H     H_    0.507489 0.039031 0.340238 0.125827
H49   H     H_    0.604448 0.982271 0.220923 0.119396
H50   H     H_    0.805478 0.033682 0.170959 0.115596
H51   H     H_    0.910427 0.142185 0.241254 0.122109
H52   H     H_    0.816251 0.198653 0.361738 0.123396

loop_
_geom_bond_atom_site_label_1
_geom_bond_atom_site_label_2
_ccdc_geom_bond_type
C38   C40   A    
C53   C54   A    
C27   C29   A    
C26   N2    A    
C63   H34   S    
C56   C57   A    
C61   C66   A    
C74   C75   A    
C58   C59   A    
C27   N1    A    
C22   H6    S    
C51   C52   A    
C64   C65   A    
C21   C31   A    
C22   C32   A    
C35   C37   A    
C52   H25   S    
C62   C63   A    
C59   H31   S    
C41   C49   S    
C67   C68   A    
C8    C79   S    
C43   C61   S    
C69   C70   A    
C23   O7    A    
C73   C78   A    
C24   O8    A    
C76   H45   S    
C7    C17   A    
C30   H12   S    
C63   C64   A    
C31   C33   S    
C36   C46   A    
C25   N1    A    
C15   H3    S    
C58   H30   S    
C2    O2    A    
C23   O5    A    
C40   C42   A    
C60   H32   S    
C42   C55   S    
C57   H29   S    
C29   C31   A    
C41   C43   A    
C3    C24   S    
C28   N2    A    
C1    C12   S    
C42   C44   A    
O2    Zn2   S    
C36   H14   S    
C2    C11   S    
O1    Zn1   S    
C37   H15   S    
C44   C46   A    
C38   H16   S    
C62   H33   S    
C84   H52   S    
C5    C48   A    
C6    C47   A    
C1    O3    A    
C25   H7    S    
C81   C82   A    
C4    C6    A    
C77   H46   S    
C27   H9    S    
C53   H26   S    
C4    C23   S    
C52   C53   A    
C78   H47   S    
C70   H40   S    
C8    C18   A    
C32   C34   S    
C64   H35   S    
C81   H49   S    
C68   H38   S    
C9    H19   S    
C74   H43   S    
C21   H5    S    
C43   C45   A    
C80   H48   S    
O6    Zn2   S    
C49   C50   A    
C45   H1    S    
C70   C71   A    
C57   C58   A    
C33   C34   T    
C35   H13   S    
C16   C18   A    
C50   C51   A    
C9    C11   A    
C10   C12   A    
C82   H50   S    
C65   H36   S    
C24   O6    A    
C12   C14   A    
C59   C60   A    
C28   H10   S    
C13   C15   A    
C14   C16   A    
C51   H24   S    
C50   H23   S    
C77   C78   A    
C35   C45   A    
C2    O4    A    
C71   C72   A    
C75   C76   A    
C4    C48   A    
C7    C9    A    
C21   C25   A    
C54   H27   S    
C56   H28   S    
C83   H51   S    
C16   H4    S    
O8    Zn1   S    
C3    C5    A    
C26   H8    S    
O4    Zn1   S    
O7    Zn2   S    
C80   C81   A    
O3    Zn2   S    
C15   C17   A    
C10   H20   S    
C39   C41   A    
C61   C62   A    
C46   H2    S    
C79   C84   A    
C7    C73   S    
C19   C20   T    
C28   C30   A    
C76   C77   A    
C1    O1    A    
C72   H42   S    
C37   C39   A    
C82   C83   A    
C36   C38   A    
C30   C32   A    
C11   C13   A    
C13   H21   S    
C55   C60   A    
C3    C47   A    
C17   C19   S    
C49   C54   A    
C18   C20   S    
C69   H39   S    
C71   H41   S    
C55   C56   A    
C14   H22   S    
C79   C80   A    
C75   H44   S    
C44   C67   S    
C8    C10   A    
O5    Zn1   S    
C22   C26   A    
C5    C40   S    
C65   C66   A    
C83   C84   A    
C29   H11   S    
C6    C39   S    
C67   C72   A    
C48   H18   S    
C68   C69   A    
C66   H37   S    
C47   H17   S    
N2    Zn2   S    
C73   C74   A    
N1    Zn1   S    
