data_mof_unit_40687.cif
_audit_creation_date              2012-12-10T20:21:41-0500
_audit_creation_method            fapswitch 2.2
_symmetry_space_group_name_H-M    P1
_symmetry_Int_Tables_number       1
_space_group_crystal_system       triclinic
_cell_length_a                    19.29679
_cell_length_b                    18.477893
_cell_length_c                    8.917261
_cell_angle_alpha                 90.018225
_cell_angle_beta                  90.119579
_cell_angle_gamma                 90.00762
_cell_volume                      3179.56732326

loop_
_atom_site_label
_atom_site_type_symbol
_atom_type_description
_atom_site_fract_x
_atom_site_fract_y
_atom_site_fract_z
_atom_type_partial_charge
C1    C     C_R   0.365582 0.499994 0.499642 0.919016
C2    C     C_R   0.634431 0.500004 0.500321 0.928723
C3    C     C_R   0.547518 0.725997 0.583968 0.046823
C4    C     C_R   0.452458 0.274012 0.416073 0.040250
C5    C     C_R   0.452465 0.725947 0.416051 0.038468
C6    C     C_R   0.547526 0.274043 0.583952 0.048048
C7    C     C_R   0.548407 0.801959 0.585639 -0.249494
C8    C     C_R   0.451545 0.198051 0.414423 -0.251285
C9    C     C_R   0.451551 0.801908 0.414400 -0.251982
C10   C     C_R   0.548416 0.198081 0.585625 -0.249853
C11   C     C_R   0.499974 0.841352 0.500024 0.103737
C12   C     C_R   0.499976 0.158648 0.500026 0.106794
C13   C     C_R   0.484553 0.961971 0.368745 -0.158064
C14   C     C_R   0.515377 0.038029 0.631314 -0.159271
C15   C     C_R   0.515376 0.962016 0.631315 -0.160468
C16   C     C_R   0.484553 0.037984 0.368745 -0.159001
C17   C     C_R   0.499967 0.077301 0.500029 0.121643
C18   C     C_R   0.499966 0.922699 0.500029 0.121560
C19   C     C_R   0.499967 0.499993 0.218436 0.943256
C20   C     C_R   0.500031 0.500007 0.781564 0.943174
C21   C     C_1   0.499986 0.499990 0.065320 -0.183090
C22   C     C_1   0.500010 0.500010 0.934680 -0.183195
C23   C     C_R   0.745832 0.434334 0.503015 -0.244463
C24   C     C_R   0.254243 0.565317 0.484331 -0.276331
C25   C     C_R   0.254210 0.434606 0.511746 -0.277507
C26   C     C_R   0.745828 0.565718 0.499879 -0.244619
C27   C     C_R   0.817789 0.433593 0.503445 0.423172
C28   C     C_R   0.182287 0.566103 0.484091 0.370332
C29   C     C_R   0.182257 0.433803 0.510654 0.368302
C30   C     C_R   0.817784 0.566489 0.500012 0.423128
C31   C     C_R   0.853748 0.500047 0.501612 -0.229404
C32   C     C_R   0.146307 0.499961 0.497330 -0.184472
C33   C     C_R   0.709792 0.500018 0.501050 -0.197070
C34   C     C_R   0.290245 0.499977 0.498642 -0.149993
C35   C     C_R   0.964730 0.501861 0.636495 -0.022925
C36   C     C_R   0.035328 0.498243 0.362382 -0.031788
C37   C     C_R   0.036471 0.501834 0.635386 -0.033441
C38   C     C_R   0.963584 0.498243 0.363500 -0.024285
C39   C     C_R   0.071422 0.500026 0.498337 0.156379
C40   C     C_R   0.928636 0.500053 0.500548 0.162687
H1    H     H_    0.717806 0.383596 0.504128 0.220633
H2    H     H_    0.282319 0.615723 0.473030 0.197981
H3    H     H_    0.282248 0.384194 0.523446 0.201259
H4    H     H_    0.717799 0.616444 0.498635 0.220947
H5    H     H_    0.937267 0.503265 0.742302 0.155520
H6    H     H_    0.062789 0.496742 0.256578 0.154043
H7    H     H_    0.064821 0.503303 0.740343 0.153935
H8    H     H_    0.935229 0.496842 0.258546 0.155445
H9    H     H_    0.585026 0.696139 0.649702 0.138091
H10   H     H_    0.414948 0.303877 0.350361 0.130954
H11   H     H_    0.414960 0.696050 0.350322 0.137713
H12   H     H_    0.585040 0.303931 0.649671 0.137952
H13   H     H_    0.587401 0.829509 0.651825 0.152135
H14   H     H_    0.412536 0.170509 0.348266 0.149756
H15   H     H_    0.412547 0.829418 0.348226 0.155046
H16   H     H_    0.587414 0.170562 0.651798 0.152016
H17   H     H_    0.473605 0.933950 0.264738 0.137774
H18   H     H_    0.526327 0.066051 0.735320 0.137468
H19   H     H_    0.526325 0.934030 0.735322 0.137273
H20   H     H_    0.473604 0.065971 0.264738 0.137575
N1    N     N_R   0.500000 0.689440 0.500000 -0.102041
N2    N     N_R   0.500000 0.310560 0.500000 -0.100727
O1    O     O_R   0.398180 0.560840 0.499960 -0.630107
O2    O     O_R   0.601820 0.439160 0.500040 -0.627771
O3    O     O_R   0.601820 0.560840 0.500040 -0.627532
O4    O     O_R   0.398180 0.439160 0.499960 -0.629621
O5    O     O_R   0.500000 0.560800 0.285330 -0.616872
O6    O     O_R   0.500000 0.439200 0.714670 -0.617460
O7    O     O_R   0.500000 0.560800 0.714670 -0.618463
O8    O     O_R   0.500000 0.439200 0.285330 -0.617337
Zn1   Zn    Zn3+2 0.500000 0.581210 0.500000 0.960041
Zn2   Zn    Zn3+2 0.500000 0.418790 0.500000 0.961157
S1    S     S_3+6 0.861272 0.349025 0.505791 0.060073
O9    O     O_2   0.904244 0.341768 0.366230 -0.245313
O10   O     O_2   0.907923 0.345270 0.640734 -0.243569
O11   O     O_3   0.803957 0.280504 0.512862 -0.557573
H21   H     H_    0.832575 0.236006 0.513695 0.404898
S2    S     S_3+6 0.138838 0.650310 0.466392 0.073117
O12   O     O_2   0.099987 0.651788 0.320242 -0.214077
O13   O     O_2   0.087993 0.659557 0.592438 -0.243255
O14   O     O_3   0.195450 0.719560 0.469012 -0.514263
H22   H     H_    0.210804 0.723349 0.574805 0.358679
S3    S     S_3+6 0.138792 0.349569 0.527492 0.074174
O15   O     O_2   0.100925 0.347444 0.674465 -0.212318
O16   O     O_2   0.087100 0.340952 0.402416 -0.244404
O17   O     O_3   0.195303 0.280293 0.522166 -0.509819
H23   H     H_    0.210513 0.277521 0.416274 0.354618
S4    S     S_3+6 0.861261 0.651071 0.498018 0.059975
O18   O     O_2   0.905195 0.657854 0.636665 -0.247078
O19   O     O_2   0.906976 0.655299 0.362055 -0.242041
O20   O     O_3   0.803920 0.719609 0.493339 -0.556992
H24   H     H_    0.832545 0.764108 0.491735 0.404892

loop_
_geom_bond_atom_site_label_1
_geom_bond_atom_site_label_2
_ccdc_geom_bond_type
C15   C18   A    
C11   C18   S    
C24   H2    S    
S1    O9    D    
C4    C8    A    
C2    O3    A    
C25   H3    S    
O14   H22   S    
C3    H9    S    
C26   H4    S    
C7    C11   A    
C13   C18   A    
C19   C21   S    
C29   S3    S    
C29   C32   A    
C3    C7    A    
C30   C31   A    
S2    O13   D    
C13   H17   S    
C4    N2    A    
C31   C40   S    
C16   H20   S    
C32   C39   S    
O7    Zn1   S    
O4    Zn2   S    
C16   C17   A    
C23   C33   A    
C12   C17   S    
C36   H6    S    
C9    H15   S    
C23   C27   A    
C37   H7    S    
C28   S2    S    
C38   H8    S    
O6    Zn2   S    
C25   C34   A    
N1    Zn1   S    
C21   C22   T    
S1    O10   D    
C14   C17   A    
C1    O1    A    
C2    O2    A    
C1    C34   S    
C3    N1    A    
C25   C29   A    
C14   H18   S    
C27   C31   A    
C28   C32   A    
O11   H21   S    
C8    H14   S    
O20   H24   S    
O17   H23   S    
O3    Zn1   S    
C24   C34   A    
C4    H10   S    
C5    C9    A    
C26   C33   A    
S3    O15   D    
S4    O20   S    
C8    C12   A    
C1    O4    A    
N2    Zn2   S    
C19   O5    A    
C9    C11   A    
O1    Zn1   S    
C10   C12   A    
C2    C33   S    
S3    O16   D    
C20   C22   S    
C26   C30   A    
S1    O11   S    
C20   O7    A    
C7    H13   S    
C30   S4    S    
C35   H5    S    
C10   H16   S    
C35   C37   A    
S2    O12   D    
C15   H19   S    
C20   O6    A    
C36   C39   A    
C24   C28   A    
S4    O19   D    
C6    C10   A    
C23   H1    S    
C6    N2    A    
C36   C38   A    
C35   C40   A    
C37   C39   A    
C38   C40   A    
S2    O14   S    
O5    Zn1   S    
O2    Zn2   S    
S3    O17   S    
S4    O18   D    
C13   C16   A    
C14   C15   A    
C5    H11   S    
C19   O8    A    
O8    Zn2   S    
C6    H12   S    
C27   S1    S    
C5    N1    A    
