data_mof_unit_25792.cif
_audit_creation_date              2012-12-10T19:46:54-0500
_audit_creation_method            fapswitch 2.2
_symmetry_space_group_name_H-M    P1
_symmetry_Int_Tables_number       1
_space_group_crystal_system       triclinic
_cell_length_a                    10.894138
_cell_length_b                    10.890381
_cell_length_c                    13.11337
_cell_angle_alpha                 90.373316
_cell_angle_beta                  90.101869
_cell_angle_gamma                 90.229297
_cell_volume                      1555.73942714

loop_
_atom_site_label
_atom_site_type_symbol
_atom_type_description
_atom_site_fract_x
_atom_site_fract_y
_atom_site_fract_z
_atom_type_partial_charge
C1    C     C_R   0.493254 0.259588 0.499399 0.820671
C2    C     C_R   0.507563 0.740380 0.500517 0.832404
C3    C     C_R   0.872831 0.490469 0.501044 -0.098398
C4    C     C_R   0.127014 0.506510 0.498854 -0.095571
C5    C     C_R   0.939867 0.454861 0.588275 -0.002430
C6    C     C_R   0.059994 0.541334 0.411513 -0.002622
C7    C     C_R   0.266808 0.216429 0.214329 -0.113948
C8    C     C_R   0.741372 0.769134 0.773156 -0.113567
C9    C     C_R   0.308411 0.165606 0.305562 -0.203230
C10   C     C_R   0.694939 0.821976 0.684562 -0.196308
C11   C     C_R   0.427112 0.116465 0.312020 0.020854
C12   C     C_R   0.582175 0.884116 0.686202 0.019525
C13   C     C_R   0.505003 0.120452 0.226292 0.536701
C14   C     C_R   0.517669 0.896720 0.779003 0.528583
C15   C     C_R   0.461377 0.169984 0.134441 -0.238275
C16   C     C_R   0.564014 0.839363 0.867218 -0.225076
C17   C     C_R   0.342970 0.218275 0.128810 -0.197709
C18   C     C_R   0.675612 0.776816 0.864101 -0.184616
C19   C     C_R   0.477707 0.932767 0.411009 -0.192748
C20   C     C_R   0.525313 0.067407 0.588364 -0.192994
C21   C     C_R   0.509046 0.873047 0.501414 -0.119999
C22   C     C_R   0.493472 0.127021 0.498169 -0.121471
C23   C     C_R   0.259613 0.506424 0.499693 0.827826
C24   C     C_R   0.740248 0.492014 0.500300 0.815482
C25   C     C_R   0.535714 0.940812 0.591003 0.059521
C26   C     C_R   0.468390 0.059361 0.408374 0.047427
C27   C     C_1   0.500106 0.500021 0.173558 0.156690
C28   C     C_1   0.500054 0.499900 0.826445 0.158934
C29   C     C_1   0.500158 0.499962 0.050686 -0.097965
C30   C     C_1   0.500130 0.499889 0.949317 -0.099946
C31   C     C_R   0.236233 0.750043 0.233011 -0.127637
C32   C     C_R   0.762547 0.245203 0.765713 -0.126619
C33   C     C_R   0.183145 0.702954 0.321688 -0.107967
C34   C     C_R   0.813373 0.294347 0.676849 -0.101100
C35   C     C_R   0.118073 0.591265 0.318259 0.129665
C36   C     C_R   0.882118 0.403818 0.681438 0.127217
C37   C     C_R   0.105805 0.528434 0.224880 -0.149310
C38   C     C_R   0.900504 0.461890 0.776300 -0.156626
C39   C     C_R   0.160302 0.575100 0.136717 -0.138282
C40   C     C_R   0.847669 0.413604 0.864544 -0.140206
C41   C     C_R   0.225472 0.685824 0.140782 -0.106722
C42   C     C_R   0.778658 0.305359 0.859243 -0.114798
C43   C     C_R   0.933206 0.531495 0.413521 -0.244986
C44   C     C_R   0.066748 0.464849 0.586184 -0.236392
Cu1   Cu    Cu3+1 0.499990 0.499990 0.592680 0.985460
Cu2   Cu    Cu3+1 0.500010 0.500010 0.407320 0.974598
H1    H     H_    0.267203 0.722116 0.072390 0.130224
H2    H     H_    0.738559 0.267507 0.927733 0.119185
H3    H     H_    0.519392 0.170953 0.067489 0.137214
H4    H     H_    0.513434 0.841996 0.938113 0.144752
H5    H     H_    0.457624 0.880471 0.342379 0.156534
H6    H     H_    0.545669 0.120062 0.656619 0.153703
H7    H     H_    0.285210 0.836595 0.235515 0.122785
H8    H     H_    0.711604 0.159897 0.762527 0.114128
H9    H     H_    0.192297 0.753460 0.392753 0.108178
H10   H     H_    0.800206 0.246734 0.604846 0.100969
H11   H     H_    0.054543 0.443175 0.220616 0.109394
H12   H     H_    0.955704 0.544547 0.781800 0.117024
H13   H     H_    0.151602 0.525661 0.065174 0.124914
H14   H     H_    0.861083 0.459581 0.937167 0.123901
H15   H     H_    0.881151 0.560022 0.347214 0.159853
H16   H     H_    0.119044 0.436053 0.652276 0.157722
H17   H     H_    0.310151 0.256906 0.058016 0.146433
H18   H     H_    0.710941 0.733808 0.932251 0.154354
H19   H     H_    0.174945 0.253211 0.209636 0.130264
H20   H     H_    0.828373 0.721976 0.771119 0.138508
H21   H     H_    0.247930 0.163627 0.371018 0.136001
H22   H     H_    0.746808 0.814437 0.614397 0.134686
N1    N     N_1   0.500030 0.500030 0.268070 -0.134316
N2    N     N_1   0.499970 0.499970 0.731930 -0.130925
O1    O     O_R   0.499980 0.319630 0.578260 -0.584378
O2    O     O_R   0.500020 0.680370 0.421740 -0.582612
O3    O     O_R   0.500000 0.319650 0.421740 -0.582067
O4    O     O_R   0.500000 0.680350 0.578260 -0.564655
O5    O     O_R   0.319630 0.500000 0.578260 -0.584841
O6    O     O_R   0.680370 0.500000 0.421740 -0.593344
O7    O     O_R   0.319650 0.500020 0.421740 -0.565099
O8    O     O_R   0.680350 0.499980 0.578260 -0.565411
O9    O     O_3   0.621082 0.070008 0.231016 -0.590964
C45   C     C_3   0.707605 0.166176 0.239741 -0.326307
H23   H     H_    0.691223 0.222738 0.309392 0.174258
H24   H     H_    0.707738 0.225132 0.170736 0.149404
H25   H     H_    0.800417 0.125571 0.246869 0.187935
O10   O     O_3   0.405275 0.956273 0.779359 -0.578671
C46   C     C_3   0.404282 0.049812 0.854482 -0.355274
H26   H     H_    0.490766 0.104914 0.855111 0.141421
H27   H     H_    0.386167 0.010909 0.931098 0.172172
H28   H     H_    0.328188 0.113769 0.837084 0.198908

loop_
_geom_bond_atom_site_label_1
_geom_bond_atom_site_label_2
_ccdc_geom_bond_type
C33   H9    S    
C13   O9    S    
C34   H10   S    
C40   H14   S    
Cu1   O1    S    
C14   O10   S    
Cu2   O6    S    
C39   C41   A    
Cu1   Cu2   S    
C8    H20   S    
C3    C43   A    
C1    O1    A    
C19   C21   A    
C16   H4    S    
C27   C29   S    
C20   C25   A    
C5    C36   S    
C6    C35   S    
C7    C9    A    
C19   C26   A    
Cu2   N1    S    
C38   H12   S    
C7    C17   A    
C31   C33   A    
Cu1   O8    S    
Cu2   O2    S    
C27   N1    T    
C40   C42   A    
C1    C22   S    
C3    C24   S    
C45   H25   S    
C2    O2    A    
C32   H8    S    
C46   H27   S    
O10   C46   S    
C45   H24   S    
C23   O5    A    
C4    C23   S    
C24   O6    A    
C4    C44   A    
C11   C26   S    
C44   H16   S    
C46   H26   S    
C31   H7    S    
Cu1   O4    S    
C32   C34   A    
C9    H21   S    
C29   C30   T    
C7    H19   S    
C39   H13   S    
C2    C21   S    
C41   H1    S    
C16   C18   A    
C42   H2    S    
C23   O7    A    
C9    C11   A    
C10   C12   A    
C4    C6    A    
C5    C44   A    
C20   C22   A    
C6    C43   A    
C13   C15   A    
C14   C16   A    
C43   H15   S    
C46   H28   S    
C24   O8    A    
C15   C17   A    
C21   C25   A    
C31   C41   A    
C35   C37   A    
Cu1   N2    S    
C8    C10   A    
C28   N2    T    
C12   C14   A    
C45   H23   S    
C3    C5    A    
C2    O4    A    
Cu2   O7    S    
C10   H22   S    
C12   C25   S    
Cu1   O5    S    
C1    O3    A    
C28   C30   S    
C37   C39   A    
C17   H17   S    
C38   C40   A    
C11   C13   A    
C18   H18   S    
C36   C38   A    
C33   C35   A    
C34   C36   A    
C15   H3    S    
C8    C18   A    
O9    C45   S    
C19   H5    S    
C20   H6    S    
C22   C26   A    
C32   C42   A    
Cu2   O3    S    
C37   H11   S    
