data_mof_unit_49698.cif
_audit_creation_date              2012-12-10T17:33:51-0500
_audit_creation_method            fapswitch 2.2
_symmetry_space_group_name_H-M    P1
_symmetry_Int_Tables_number       1
_space_group_crystal_system       triclinic
_cell_length_a                    10.807517
_cell_length_b                    12.01685
_cell_length_c                    12.77742
_cell_angle_alpha                 94.562285
_cell_angle_beta                  90.647334
_cell_angle_gamma                 87.512441
_cell_volume                      1652.56500682

loop_
_atom_site_label
_atom_site_type_symbol
_atom_type_description
_atom_site_fract_x
_atom_site_fract_y
_atom_site_fract_z
_atom_type_partial_charge
C1    C     C_R   0.495325 0.523176 0.700371 0.858449
C2    C     C_3   0.122277 0.501789 0.525932 0.009596
C3    C     C_3   0.072274 0.463478 0.415602 -0.417791
C4    C     C_3   0.064601 0.623915 0.566940 -0.026743
C5    C     C_R   0.520767 0.461817 0.188256 -0.083569
C6    C     C_R   0.487586 0.539061 0.812339 -0.057130
C7    C     C_R   0.383312 0.609148 0.971376 -0.214481
C8    C     C_R   0.397438 0.612096 0.863515 0.189024
C9    C     C_R   0.564356 0.468624 0.867907 -0.340321
C10   C     C_R   0.550754 0.466565 0.974484 0.155977
C11   C     C_R   0.458029 0.535433 0.026091 0.138880
C12   C     C_R   0.741553 0.502436 0.510464 0.829599
C13   C     C_R   0.441814 0.530315 0.132032 -0.308355
C14   C     C_R   0.616837 0.393933 0.137968 0.091010
C15   C     C_R   0.628620 0.396166 0.029712 -0.235817
C16   C     C_R   0.476642 0.936210 0.360410 -0.002665
C17   C     C_R   0.464896 0.825094 0.381863 -0.035188
C18   C     C_R   0.497145 0.867253 0.563560 -0.096464
C19   C     C_R   0.508251 0.981024 0.548001 0.047649
C20   C     C_R   0.490531 0.018299 0.446460 0.043965
C21   C     C_R   0.483590 0.135909 0.437588 0.266714
C22   C     C_R   0.552167 0.169407 0.614362 -0.043565
C23   C     C_R   0.508391 0.476989 0.299917 0.891771
C24   C     C_R   0.538373 0.057463 0.631679 -0.342057
C25   C     C_R   0.259275 0.501377 0.514748 0.880690
C26   C     C_3   0.930601 0.421368 0.613535 0.179000
C27   C     C_3   0.079623 0.417176 0.607996 -0.111431
C28   C     C_3   0.931556 0.458507 0.415393 -0.442993
C29   C     C_3   0.921743 0.633687 0.542757 0.315798
C30   C     C_3   0.878266 0.504849 0.523877 -0.002759
H1    H     H_    0.891357 0.503765 0.349726 0.168693
H2    H     H_    0.101270 0.520989 0.357294 0.174448
H3    H     H_    0.369698 0.582813 0.171985 0.142346
H4    H     H_    0.313178 0.662749 0.012399 0.136381
H5    H     H_    0.701007 0.345449 0.988761 0.144222
H6    H     H_    0.632687 0.412788 0.827185 0.153422
H7    H     H_    0.577434 0.226827 0.679601 0.142360
H8    H     H_    0.550257 0.031195 0.710332 0.158256
H9    H     H_    0.454618 0.763525 0.316992 0.158113
H10   H     H_    0.509876 0.837603 0.640777 0.140251
H11   H     H_    0.113873 0.455926 0.683873 0.127045
H12   H     H_    0.904213 0.373903 0.390537 0.172146
H13   H     H_    0.112586 0.379396 0.388809 0.167546
H14   H     H_    0.077418 0.627066 0.652872 0.099558
N1    N     N_R   0.523380 0.207800 0.519350 -0.099342
N2    N     N_R   0.476620 0.792180 0.480650 -0.115315
O1    O     O_R   0.506240 0.421700 0.658830 -0.661550
O2    O     O_R   0.491240 0.609310 0.646410 -0.622552
O3    O     O_R   0.692710 0.406190 0.506230 -0.636176
O4    O     O_R   0.677700 0.593810 0.493810 -0.615488
O5    O     O_R   0.508760 0.390690 0.353590 -0.621106
O6    O     O_R   0.493760 0.578300 0.341170 -0.631595
O7    O     O_R   0.322300 0.406190 0.506190 -0.646071
O8    O     O_R   0.307290 0.593810 0.493770 -0.608751
Zn1   Zn    Zn3+2 0.510020 0.374730 0.508290 0.895368
Zn2   Zn    Zn3+2 0.489980 0.625270 0.491710 0.915132
C31   C     C_3   0.872668 0.299477 0.607467 -0.288564
C32   C     C_3   0.882885 0.219778 0.505785 -0.360594
C33   C     C_3   0.875680 0.097205 0.528358 -0.974475
H15   H     H_    0.955944 0.071153 0.577049 0.258238
H16   H     H_    0.789030 0.083896 0.570111 0.285778
H17   H     H_    0.877028 0.043596 0.453427 0.261366
H18   H     H_    0.805370 0.237566 0.451615 0.254182
H19   H     H_    0.971155 0.227761 0.464442 0.216047
H20   H     H_    0.911270 0.251911 0.671759 0.176106
H21   H     H_    0.774832 0.305487 0.632912 0.202659
C34   C     C_3   0.130461 0.732781 0.544909 -0.819596
H22   H     H_    0.149241 0.736822 0.460043 0.258883
H23   H     H_    0.075329 0.808325 0.572425 0.215710
H24   H     H_    0.216979 0.742529 0.591781 0.253641
C35   C     C_3   0.713374 0.325282 0.195296 -0.438711
C36   C     C_3   0.711737 0.200893 0.156649 -0.324537
C37   C     C_3   0.778993 0.127069 0.232792 -0.928997
H25   H     H_    0.874185 0.155588 0.249251 0.264743
H26   H     H_    0.726785 0.129323 0.307255 0.266678
H27   H     H_    0.785102 0.039356 0.198027 0.250364
H28   H     H_    0.614789 0.174975 0.146329 0.218763
H29   H     H_    0.757698 0.187138 0.079063 0.212977
H30   H     H_    0.806398 0.356444 0.180211 0.181695
H31   H     H_    0.702124 0.335097 0.281390 0.229766
C38   C     C_3   0.311365 0.687064 0.804574 -0.929233
H32   H     H_    0.240666 0.731725 0.856672 0.230268
H33   H     H_    0.364712 0.750689 0.768420 0.252479
H34   H     H_    0.262390 0.635723 0.742826 0.222968
C39   C     C_3   0.404930 0.182432 0.351981 -0.861617
H35   H     H_    0.462173 0.205648 0.286583 0.247100
H36   H     H_    0.335738 0.122569 0.322047 0.207134
H37   H     H_    0.347980 0.255344 0.382524 0.272589
C40   C     C_3   0.892057 0.473025 0.727077 -0.518914
C41   C     C_3   0.918348 0.400578 0.820543 -0.359832
C42   C     C_3   0.918050 0.471563 0.925310 -0.894122
H38   H     H_    0.996293 0.528776 0.928977 0.258494
H39   H     H_    0.829622 0.521716 0.935179 0.274562
H40   H     H_    0.928750 0.416421 0.990857 0.245225
H41   H     H_    0.009653 0.355335 0.811950 0.234043
H42   H     H_    0.845921 0.338231 0.824201 0.201025
H43   H     H_    0.944291 0.547403 0.747405 0.206339
H44   H     H_    0.791767 0.496985 0.727780 0.186482
C43   C     C_3   0.499576 0.954944 0.246120 -0.430527
C44   C     C_3   0.386368 0.931281 0.174897 -0.342871
C45   C     C_3   0.409278 0.961863 0.063267 -0.882827
H45   H     H_    0.424880 0.052616 0.063000 0.256738
H46   H     H_    0.491318 0.913389 0.029596 0.265123
H47   H     H_    0.327326 0.941955 0.013123 0.248628
H48   H     H_    0.366742 0.841075 0.171513 0.207579
H49   H     H_    0.302685 0.978921 0.205846 0.219910
H50   H     H_    0.532860 0.038490 0.236897 0.224719
H51   H     H_    0.577627 0.897328 0.217770 0.197860
C46   C     C_3   0.146527 0.296326 0.602692 -0.382223
C47   C     C_3   0.244346 0.279880 0.690284 -0.361113
C48   C     C_3   0.260400 0.157592 0.715060 -0.907361
H52   H     H_    0.174602 0.130262 0.750669 0.252483
H53   H     H_    0.280498 0.103442 0.642223 0.278692
H54   H     H_    0.337805 0.148018 0.771958 0.257883
H55   H     H_    0.334315 0.307097 0.665587 0.285245
H56   H     H_    0.219136 0.329368 0.764603 0.209340
H57   H     H_    0.084689 0.229147 0.611110 0.230951
H58   H     H_    0.184822 0.270443 0.524221 0.211227
C49   C     C_3   0.901289 0.698909 0.439740 -0.802899
H59   H     H_    0.966452 0.669233 0.376503 0.214112
H60   H     H_    0.807344 0.695381 0.405518 0.245249
H61   H     H_    0.919302 0.788814 0.451576 0.212942
C50   C     C_3   0.852618 0.703739 0.638928 -0.402083
C51   C     C_3   0.814748 0.827835 0.629612 -0.311924
C52   C     C_3   0.768064 0.882899 0.734750 -0.934431
H62   H     H_    0.680849 0.846045 0.757395 0.261891
H63   H     H_    0.838315 0.872152 0.797684 0.260706
H64   H     H_    0.752684 0.973915 0.728890 0.250402
H65   H     H_    0.894239 0.875824 0.608599 0.218583
H66   H     H_    0.742090 0.835547 0.568519 0.246151
H67   H     H_    0.767724 0.663051 0.660511 0.201546
H68   H     H_    0.911880 0.707530 0.709885 0.179052

loop_
_geom_bond_atom_site_label_1
_geom_bond_atom_site_label_2
_ccdc_geom_bond_type
C45   H45   S    
C50   H68   S    
C14   C35   S    
C19   C20   A    
C31   H21   S    
C6    C9    A    
C35   H30   S    
C12   O3    A    
C23   O6    A    
C46   H57   S    
C50   C51   S    
C39   H35   S    
C26   C40   S    
C7    C11   A    
C43   H51   S    
C29   C49   S    
C3    H13   S    
C44   H48   S    
C36   H28   S    
C3    C28   S    
C25   O7    A    
C10   C15   A    
C17   H9    S    
C39   H37   S    
C18   C19   A    
C37   H25   S    
C18   H10   S    
C47   C48   S    
C36   H29   S    
C48   H52   S    
C16   C17   A    
C9    H6    S    
C24   H8    S    
C2    C27   S    
C2    C25   S    
C9    C10   A    
C5    C13   A    
C4    C29   S    
C50   H67   S    
C39   H36   S    
C33   H15   S    
C45   H46   S    
C37   H26   S    
C18   N2    A    
C15   H5    S    
C35   H31   S    
C38   H33   S    
C46   H58   S    
C38   H32   S    
C21   N1    A    
O7    Zn1   S    
C32   H19   S    
O8    Zn2   S    
C33   H16   S    
C34   H22   S    
C7    C8    A    
C25   O8    A    
C42   H38   S    
C1    O1    A    
C6    C8    A    
C4    H14   S    
C32   C33   S    
O3    Zn1   S    
C22   H7    S    
C21   C39   S    
O4    Zn2   S    
C8    C38   S    
C40   H43   S    
C34   H23   S    
C2    C4    S    
C13   H3    S    
C29   C30   S    
C42   H39   S    
C27   H11   S    
C23   O5    A    
C43   C44   S    
C5    C23   S    
C16   C20   A    
C26   C27   S    
C51   H66   S    
C48   H53   S    
C17   N2    A    
C27   C46   S    
C5    C14   A    
C49   H60   S    
C26   C30   S    
C45   H47   S    
C1    O2    A    
C52   H62   S    
C37   H27   S    
C22   C24   A    
C41   C42   S    
C47   H56   S    
C38   H34   S    
O1    Zn1   S    
C49   H61   S    
C32   H18   S    
O2    Zn2   S    
C33   H17   S    
C12   C30   S    
C28   H1    S    
C31   H20   S    
C36   C37   S    
C41   H41   S    
C4    C34   S    
C12   O4    A    
C49   H59   S    
C16   C43   S    
C41   H42   S    
C43   H50   S    
C44   H49   S    
C40   H44   S    
C34   H24   S    
C28   C30   S    
C19   C24   A    
C35   C36   S    
C46   C47   S    
C42   H40   S    
C11   C13   A    
C31   C32   S    
C52   H64   S    
C29   C50   S    
C28   H12   S    
C44   C45   S    
C7    H4    S    
C51   H65   S    
C2    C3    S    
C48   H54   S    
O5    Zn1   S    
C3    H2    S    
C26   C31   S    
C10   C11   A    
C22   N1    A    
C20   C21   A    
N1    Zn1   S    
N2    Zn2   S    
C1    C6    S    
C52   H63   S    
C14   C15   A    
C40   C41   S    
C47   H55   S    
O6    Zn2   S    
C51   C52   S    
