data_mof_unit_22405.cif
_audit_creation_date              2012-12-10T18:45:10-0500
_audit_creation_method            fapswitch 2.2
_symmetry_space_group_name_H-M    P1
_symmetry_Int_Tables_number       1
_space_group_crystal_system       triclinic
_cell_length_a                    10.733391
_cell_length_b                    10.109474
_cell_length_c                    10.719612
_cell_angle_alpha                 89.735074
_cell_angle_beta                  94.175321
_cell_angle_gamma                 89.431075
_cell_volume                      1160.01270033

loop_
_atom_site_label
_atom_site_type_symbol
_atom_type_description
_atom_site_fract_x
_atom_site_fract_y
_atom_site_fract_z
_atom_type_partial_charge
C1    C     C_R   0.260669 0.500712 0.498399 0.823215
C2    C     C_R   0.484193 0.500032 0.738274 0.893693
C3    C     C_R   0.597340 0.725434 0.106636 -0.047635
C4    C     C_R   0.448288 0.743830 0.885521 -0.038378
C5    C     C_R   0.602647 0.839948 0.032859 -0.017549
C6    C     C_R   0.514527 0.854791 0.928280 0.024779
C7    C     C_R   0.476784 0.620130 0.938813 0.012066
C8    C     C_R   0.528713 0.616232 0.061089 0.033087
C9    C     C_R   0.525596 0.497747 0.127430 -0.179813
C10   C     C_R   0.461578 0.501237 0.872225 -0.182782
C11   C     C_R   0.514451 0.377749 0.062027 0.075508
C12   C     C_R   0.739313 0.499718 0.499621 0.872743
C13   C     C_R   0.460699 0.381135 0.939060 0.038501
C14   C     C_R   0.069441 0.395842 0.551325 -0.201227
C15   C     C_R   0.941904 0.395350 0.551793 -0.213648
C16   C     C_R   0.872178 0.500403 0.497784 -0.005433
C17   C     C_R   0.127833 0.502190 0.497925 -0.006201
C18   C     C_3   0.575385 0.251357 0.115990 -0.382626
C19   C     C_3   0.710706 0.272809 0.173169 -0.294125
C20   C     C_3   0.740310 0.189032 0.290209 -0.847205
C21   C     C_3   0.379597 0.267621 0.891475 -0.388135
C22   C     C_3   0.242724 0.310362 0.867442 -0.354388
C23   C     C_R   0.930332 0.607864 0.444445 -0.182202
C24   C     C_3   0.161648 0.191860 0.829893 -0.837944
C25   C     C_2   0.708848 0.930362 0.058520 0.340415
C26   C     C_2   0.494965 0.978002 0.855508 0.333813
C27   C     C_3   0.700013 0.145613 0.632209 -0.431811
C28   C     C_3   0.777352 0.090966 0.748696 -0.409945
C29   C     C_3   0.809864 0.199759 0.844040 -0.922218
C30   C     C_3   0.321168 0.142383 0.332859 -0.388372
C31   C     C_3   0.185789 0.115426 0.361459 -0.347933
C32   C     C_3   0.094920 0.184453 0.265610 -0.844877
C33   C     C_2   0.700842 0.851201 0.620465 0.447000
C34   C     C_R   0.058770 0.609018 0.445025 -0.173387
C35   C     C_2   0.350210 0.854400 0.318928 0.424996
C36   C     C_R   0.591069 0.069691 0.569975 0.086992
C37   C     C_R   0.416046 0.071449 0.422217 0.133290
C38   C     C_R   0.591683 0.926299 0.566972 0.085756
C39   C     C_R   0.420539 0.928335 0.419176 0.006244
C40   C     C_R   0.511210 0.499715 0.261344 0.872577
H1    H     H_    0.657528 0.715731 0.191942 0.166188
H2    H     H_    0.779016 0.248401 0.103874 0.209486
H3    H     H_    0.727943 0.377342 0.199581 0.211638
H4    H     H_    0.515301 0.205142 0.182695 0.220489
H5    H     H_    0.580587 0.178196 0.041891 0.142282
H6    H     H_    0.196827 0.141642 0.747274 0.286717
H7    H     H_    0.160882 0.120128 0.908656 0.275339
H8    H     H_    0.064991 0.226290 0.804897 0.243831
H9    H     H_    0.208733 0.354865 0.953548 0.228030
H10   H     H_    0.233691 0.385632 0.791409 0.216811
H11   H     H_    0.413132 0.227308 0.804648 0.270456
H12   H     H_    0.381981 0.751439 0.804570 0.186488
H13   H     H_    0.381406 0.186651 0.961881 0.205131
H14   H     H_    0.714500 0.022468 0.009486 0.069142
H15   H     H_    0.551782 0.062903 0.875401 0.034111
H16   H     H_    0.855616 0.284083 0.800316 0.266547
H17   H     H_    0.723425 0.237622 0.882778 0.263728
H18   H     H_    0.874003 0.159511 0.921225 0.264864
H19   H     H_    0.728145 0.013183 0.796530 0.240330
H20   H     H_    0.866124 0.047087 0.719823 0.227338
H21   H     H_    0.765067 0.161178 0.558449 0.185859
H22   H     H_    0.662050 0.240487 0.660503 0.301760
H23   H     H_    0.122467 0.314371 0.594414 0.161595
H24   H     H_    0.096680 0.293247 0.279518 0.261176
H25   H     H_    0.118694 0.161529 0.168819 0.267647
H26   H     H_    0.999715 0.147762 0.276423 0.264727
H27   H     H_    0.165671 0.008173 0.358672 0.214618
H28   H     H_    0.169406 0.150501 0.456684 0.228784
H29   H     H_    0.334241 0.248925 0.333031 0.263155
H30   H     H_    0.334893 0.112768 0.235465 0.211542
H31   H     H_    0.791266 0.866197 0.583804 0.025696
H32   H     H_    0.289050 0.775521 0.341085 0.093869
H33   H     H_    0.899030 0.314597 0.596815 0.154493
H34   H     H_    0.876776 0.689933 0.401998 0.157510
H35   H     H_    0.103329 0.691955 0.403197 0.137639
H36   H     H_    0.758461 0.084944 0.266777 0.281629
H37   H     H_    0.823041 0.229009 0.344733 0.240913
H38   H     H_    0.661592 0.191993 0.350208 0.293144
N1    N     N_R   0.500000 0.857200 0.500000 -0.155390
N2    N     N_R   0.500000 0.142810 0.500000 -0.137589
O1    O     O_R   0.316770 0.614620 0.499990 -0.651757
O2    O     O_2   0.413015 0.986174 0.770437 -0.599323
O3    O     O_2   0.692282 0.775944 0.708539 -0.555551
O4    O     O_2   0.363059 0.878897 0.209068 -0.610018
O5    O     O_R   0.683230 0.614620 0.500010 -0.609306
O6    O     O_R   0.316800 0.385290 0.500000 -0.630388
O7    O     O_R   0.683200 0.385290 0.500000 -0.658532
O8    O     O_R   0.500010 0.614690 0.316770 -0.625996
O9    O     O_R   0.499990 0.614690 0.683230 -0.559414
O10   O     O_R   0.500040 0.385360 0.316770 -0.636748
O11   O     O_R   0.499960 0.385360 0.683230 -0.640985
O12   O     O_2   0.797177 0.898092 0.130955 -0.595319
Zn1   Zn    Zn3+2 0.500000 0.653120 0.500000 0.979668
Zn2   Zn    Zn3+2 0.500000 0.346880 0.500000 0.905105

loop_
_geom_bond_atom_site_label_1
_geom_bond_atom_site_label_2
_ccdc_geom_bond_type
C7    C10   A    
C11   C18   S    
C19   C20   S    
C26   H15   S    
C7    C8    A    
C6    C26   S    
C31   H27   S    
C20   H37   S    
C4    H12   S    
C28   C29   S    
N1    Zn1   S    
C5    C6    A    
C38   N1    A    
C1    O1    A    
C15   C16   A    
O7    Zn2   S    
O1    Zn1   S    
C20   H36   S    
C18   C19   S    
C27   H21   S    
O5    Zn1   S    
C12   C16   S    
C8    C9    A    
O6    Zn2   S    
C19   H2    S    
C34   H35   S    
C22   H10   S    
C26   O2    D    
C21   C22   S    
C14   C17   A    
C4    C7    A    
C30   H30   S    
C19   H3    S    
O10   Zn2   S    
C28   H20   S    
C31   H28   S    
C37   N2    A    
C24   H8    S    
C25   H14   S    
C32   H24   S    
C4    C6    A    
C3    C8    A    
C36   N2    A    
C9    C40   S    
C30   C37   S    
C39   N1    A    
C2    O9    A    
C35   C39   S    
C27   H22   S    
C18   H4    S    
C33   O3    D    
C31   C32   S    
C23   C34   A    
C13   C21   S    
C9    C11   A    
C22   H9    S    
C5    C25   S    
C12   O5    A    
C15   H33   S    
C29   H17   S    
C35   H32   S    
C16   C23   A    
C22   C24   S    
C17   C34   A    
C23   H34   S    
N2    Zn2   S    
C2    C10   S    
C18   H5    S    
C21   H11   S    
C30   H29   S    
C32   H26   S    
C28   H19   S    
C1    O6    A    
O8    Zn1   S    
C3    H1    S    
C25   O12   D    
C12   O7    A    
C24   H7    S    
C3    C5    A    
C10   C13   A    
C35   O4    D    
C29   H16   S    
C27   C36   S    
C1    C17   S    
C33   C38   S    
C20   H38   S    
C24   H6    S    
C40   O8    A    
C36   C38   A    
C37   C39   A    
O11   Zn2   S    
C21   H13   S    
C11   C13   A    
C30   C31   S    
C14   H23   S    
O9    Zn1   S    
C2    O11   A    
C33   H31   S    
C29   H18   S    
C27   C28   S    
C14   C15   A    
C40   O10   A    
C32   H25   S    
