data_mof_unit_24817.cif
_audit_creation_date              2012-12-10T20:27:57-0500
_audit_creation_method            fapswitch 2.2
_symmetry_space_group_name_H-M    P1
_symmetry_Int_Tables_number       1
_space_group_crystal_system       triclinic
_cell_length_a                    12.80872
_cell_length_b                    10.820948
_cell_length_c                    9.965952
_cell_angle_alpha                 87.018397
_cell_angle_beta                  96.981001
_cell_angle_gamma                 93.706331
_cell_volume                      1366.83754375

loop_
_atom_site_label
_atom_site_type_symbol
_atom_type_description
_atom_site_fract_x
_atom_site_fract_y
_atom_site_fract_z
_atom_type_partial_charge
C1    C     C_R   0.505843 0.260838 0.503040 0.978010
C2    C     C_R   0.534857 0.947274 0.379175 0.337301
C3    C     C_R   0.509915 0.873065 0.493242 -0.106976
C4    C     C_R   0.299601 0.513862 0.472935 0.951903
C5    C     C_R   0.503300 0.929145 0.614016 -0.127754
C6    C     C_3   0.423725 0.908253 0.712492 0.226767
C7    C     C_3   0.428142 0.049386 0.718992 0.399891
C8    C     C_R   0.456253 0.402034 0.069013 0.050346
C9    C     C_R   0.565663 0.581691 0.076394 0.149433
C10   C     C_R   0.562923 0.583313 0.931120 0.186298
C11   C     C_R   0.456331 0.401788 0.929242 0.058286
C12   C     C_R   0.034231 0.560201 0.564897 -0.017587
C13   C     C_3   0.349715 0.333456 0.914064 -0.169243
C14   C     C_3   0.354476 0.326596 0.068267 0.254648
C15   C     C_R   0.500726 0.740001 0.496615 0.936277
C16   C     C_R   0.702560 0.501664 0.527072 0.915828
C17   C     C_R   0.816834 0.518192 0.544580 -0.220544
C18   C     C_R   0.190549 0.548152 0.456377 -0.102641
C19   C     C_R   0.025111 0.579450 0.317717 0.132082
C20   C     C_R   0.134174 0.570128 0.329236 -0.111948
C21   C     C_R   0.142592 0.562635 0.571805 -0.127578
C22   C     C_R   0.974469 0.563605 0.436102 0.101814
C23   C     C_R   0.866022 0.546909 0.428125 -0.288488
C24   C     C_R   0.876851 0.513681 0.673611 0.339328
C25   C     C_R   0.984960 0.543010 0.683713 0.352986
C26   C     C_R   0.508022 0.055174 0.620337 -0.048197
C27   C     C_R   0.522984 0.130438 0.506283 -0.103268
C28   C     C_R   0.550184 0.075686 0.389974 0.030192
Cl1   Cl    Cl    0.309022 0.122038 0.652770 -0.534393
Cl2   Cl    Cl    0.247656 0.394599 0.128561 -0.511716
Cl3   Cl    Cl    0.822330 0.462112 0.823501 -0.528880
Cl4   Cl    Cl    0.057727 0.551007 0.846243 -0.537357
Cl5   Cl    Cl    0.532868 0.889110 0.216765 -0.707428
Cl6   Cl    Cl    0.300488 0.836966 0.640580 -0.521369
H1    H     H_    0.819857 0.551091 0.329717 0.224633
H2    H     H_    0.658075 0.740657 0.106396 0.206572
H3    H     H_    0.707814 0.658866 0.902559 0.230657
H4    H     H_    0.610652 0.759247 0.878611 0.157746
H5    H     H_    0.244836 0.376743 0.750276 0.246228
H6    H     H_    0.289076 0.500793 0.846196 0.244120
H7    H     H_    0.015301 0.602532 0.111200 0.271900
H8    H     H_    0.933533 0.684415 0.184750 0.193371
H9    H     H_    0.662247 0.118149 0.264658 0.226894
H10   H     H_    0.537198 0.141507 0.193737 0.223362
H11   H     H_    0.456141 0.859667 0.807863 0.100880
H12   H     H_    0.347183 0.240871 0.874898 0.212341
H13   H     H_    0.366433 0.231448 0.112585 0.108628
H14   H     H_    0.174273 0.580009 0.239936 0.218917
H15   H     H_    0.189738 0.567877 0.667788 0.209046
H16   H     H_    0.548725 0.057316 0.878188 0.184869
H17   H     H_    0.426864 0.054220 0.923762 0.203441
H18   H     H_    0.630562 0.666227 0.247143 0.275762
N1    N     N_R   0.499290 0.499140 0.142710 -0.103825
N2    N     N_R   0.499290 0.499180 0.857070 -0.108348
N3    N     N_3   0.474205 0.092003 0.851667 -0.473949
N4    N     N_3   0.649784 0.652087 0.151674 -0.445310
N5    N     N_3   0.629670 0.669406 0.861818 -0.379058
N6    N     N_3   0.264764 0.406670 0.848438 -0.302561
N7    N     N_3   0.965513 0.597740 0.187078 -0.394592
N8    N     N_3   0.590023 0.150461 0.281715 -0.406041
O1    O     O_R   0.500010 0.316790 0.614690 -0.586972
O2    O     O_R   0.500000 0.316760 0.385350 -0.603781
O3    O     O_R   0.346360 0.499990 0.595720 -0.643915
O4    O     O_R   0.346350 0.499960 0.366370 -0.559485
O5    O     O_R   0.500000 0.683240 0.614650 -0.605145
O6    O     O_R   0.499990 0.683210 0.385310 -0.602380
O7    O     O_R   0.653650 0.500040 0.633630 -0.558678
O8    O     O_R   0.653640 0.500010 0.404280 -0.648593
Zn1   Zn    Zn3+2 0.500010 0.500020 0.653130 1.023356
Zn2   Zn    Zn3+2 0.499990 0.499980 0.346870 1.023890

loop_
_geom_bond_atom_site_label_1
_geom_bond_atom_site_label_2
_ccdc_geom_bond_type
C8    N1    A    
H8    N7    S    
C2    C28   A    
C7    Cl1   S    
C6    C7    S    
H2    N4    S    
C6    H11   S    
O4    Zn2   S    
C18   C21   A    
C9    C10   A    
C4    O4    A    
C23   H1    S    
C19   C20   A    
C17   C23   A    
C7    N3    S    
C12   C25   A    
C4    C18   S    
C1    O2    A    
C19   C22   A    
C25   Cl4   S    
C21   H15   S    
C2    C3    A    
C24   Cl3   S    
C3    C15   S    
C9    N4    S    
C20   H14   S    
C13   C14   S    
C15   O6    A    
O7    Zn1   S    
C11   C13   S    
C4    O3    A    
O2    Zn2   S    
C26   C27   A    
O6    Zn2   S    
N2    Zn1   S    
C7    C26   S    
H9    N8    S    
H10   N8    S    
C8    C11   A    
C16   O8    A    
N1    Zn2   S    
C2    Cl5   S    
C11   N2    A    
C14   H13   S    
C14   Cl2   S    
C18   C20   A    
C28   N8    S    
O3    Zn1   S    
C5    C6    S    
C10   N2    A    
C12   C22   A    
O5    Zn1   S    
C17   C24   A    
C9    N1    A    
C16   O7    A    
C5    C26   A    
H4    N5    S    
H18   N4    S    
C10   N5    S    
H6    N6    S    
C24   C25   A    
H7    N7    S    
C6    Cl6   S    
O8    Zn2   S    
O1    Zn1   S    
C27   C28   A    
C1    C27   S    
C13   H12   S    
C8    C14   S    
C13   N6    S    
H17   N3    S    
C19   N7    S    
C22   C23   A    
H5    N6    S    
C12   C21   A    
H3    N5    S    
H16   N3    S    
C1    O1    A    
C16   C17   S    
C3    C5    A    
C15   O5    A    
