data_mof_unit_29044.cif
_audit_creation_date              2013-03-05T15:47:08-0500
_audit_creation_method            fapswitch 2.2
_symmetry_space_group_name_H-M    P1
_symmetry_Int_Tables_number       1
_space_group_crystal_system       triclinic
_cell_length_a                    19.800281
_cell_length_b                    11.459251
_cell_length_c                    18.72532
_cell_angle_alpha                 90.753254
_cell_angle_beta                  91.837718
_cell_angle_gamma                 89.875543
_cell_volume                      4246.14876425

loop_
_atom_site_label
_atom_site_type_symbol
_atom_site_description
_atom_site_fract_x
_atom_site_fract_y
_atom_site_fract_z
_atom_type_partial_charge
O1    O     O_R   0.957210 0.449410 0.665480 -0.502803
O2    O     O_R   0.042790 0.449410 0.334520 -0.541541
O3    O     O_R   0.457210 0.949410 0.665480 -0.502694
O4    O     O_R   0.542790 0.949410 0.334520 -0.541561
O5    O     O_R   0.820730 0.541240 0.668250 -0.519426
O6    O     O_R   0.179270 0.541240 0.331750 -0.523151
O7    O     O_R   0.320730 0.041240 0.668250 -0.519441
O8    O     O_R   0.679270 0.041240 0.331750 -0.523170
C1    C     C_R   0.761384 0.520622 0.638285 0.534261
C2    C     C_R   0.239674 0.523230 0.360700 0.537285
C3    C     C_R   0.261386 0.020621 0.638285 0.534267
C4    C     C_R   0.739670 0.023221 0.360706 0.537251
O9    O     O_R   0.714240 0.455060 0.663710 -0.532745
O10   O     O_R   0.285760 0.455060 0.336290 -0.527686
O11   O     O_R   0.214240 0.955060 0.663710 -0.532766
O12   O     O_R   0.785760 0.955060 0.336290 -0.527689
O13   O     O_R   0.736780 0.204870 0.675910 -0.528664
O14   O     O_R   0.263220 0.204870 0.324090 -0.522562
O15   O     O_R   0.236780 0.704870 0.675910 -0.528701
O16   O     O_R   0.763220 0.704870 0.324090 -0.522534
C5    C     C_R   0.774350 0.121089 0.649762 0.534846
C6    C     C_R   0.227945 0.116863 0.348041 0.520529
C7    C     C_R   0.274355 0.621102 0.649754 0.534902
C8    C     C_R   0.727948 0.616851 0.348036 0.520543
O17   O     O_R   0.833070 0.087590 0.673490 -0.545176
O18   O     O_R   0.166930 0.087590 0.326510 -0.540852
O19   O     O_R   0.333070 0.587590 0.673490 -0.545160
O20   O     O_R   0.666930 0.587590 0.326510 -0.540893
O21   O     O_R   0.946890 0.246800 0.676300 -0.515836
O22   O     O_R   0.053110 0.246800 0.323700 -0.513034
O23   O     O_R   0.446890 0.746800 0.676300 -0.515862
O24   O     O_R   0.553110 0.746800 0.323700 -0.513035
C9    C     C_R   0.965046 0.342758 0.643937 0.523304
C10   C     C_R   0.053971 0.346786 0.363080 0.516138
C11   C     C_R   0.465051 0.842750 0.643940 0.523354
C12   C     C_R   0.553974 0.846785 0.363081 0.516137
O25   O     O_R   0.956650 0.457120 0.827980 -0.550633
O26   O     O_R   0.043350 0.457120 0.172020 -0.544064
O27   O     O_R   0.456650 0.957120 0.827980 -0.550587
O28   O     O_R   0.543350 0.957120 0.172020 -0.544133
O29   O     O_R   0.820220 0.548390 0.818890 -0.508736
O30   O     O_R   0.179780 0.548390 0.181110 -0.485705
O31   O     O_R   0.320220 0.048390 0.818890 -0.508741
O32   O     O_R   0.679780 0.048390 0.181110 -0.485747
C13   C     C_R   0.761075 0.534686 0.848150 0.539555
C14   C     C_R   0.228517 0.495237 0.142979 0.535900
C15   C     C_R   0.261087 0.034632 0.848170 0.539594
C16   C     C_R   0.728521 0.995245 0.142980 0.535925
O33   O     O_R   0.713680 0.462770 0.826210 -0.544881
O34   O     O_R   0.286320 0.462770 0.173790 -0.526555
O35   O     O_R   0.213680 0.962770 0.826210 -0.544734
O36   O     O_R   0.786320 0.962770 0.173790 -0.526577
O37   O     O_R   0.736260 0.212010 0.826560 -0.538960
O38   O     O_R   0.263740 0.212010 0.173440 -0.538967
O39   O     O_R   0.236260 0.712010 0.826560 -0.538619
O40   O     O_R   0.763740 0.712010 0.173440 -0.538997
C17   C     C_R   0.775405 0.135101 0.859170 0.572223
C18   C     C_R   0.219484 0.147267 0.137008 0.518832
C19   C     C_R   0.275425 0.635140 0.859184 0.572333
C20   C     C_R   0.719571 0.647051 0.137055 0.518931
O41   O     O_R   0.832520 0.095300 0.836000 -0.503452
O42   O     O_R   0.167480 0.095300 0.164000 -0.467527
O43   O     O_R   0.332520 0.595300 0.836000 -0.503409
O44   O     O_R   0.667480 0.595300 0.164000 -0.467604
O45   O     O_R   0.946380 0.253940 0.826940 -0.505308
O46   O     O_R   0.053620 0.253940 0.173060 -0.506454
O47   O     O_R   0.446380 0.753940 0.826940 -0.505303
O48   O     O_R   0.553620 0.753940 0.173060 -0.506356
C21   C     C_R   0.946056 0.357393 0.860231 0.550586
C22   C     C_R   0.025786 0.352527 0.150146 0.511243
C23   C     C_R   0.446110 0.857385 0.860228 0.550750
C24   C     C_R   0.525771 0.852525 0.150154 0.511237
Cr1   Cr    Cr6+3 0.885690 0.492860 0.745310 0.980368
Cr2   Cr    Cr6+3 0.114310 0.492860 0.254690 0.987636
Cr3   Cr    Cr6+3 0.385690 0.992860 0.745310 0.980439
Cr4   Cr    Cr6+3 0.614310 0.992860 0.254690 0.987605
Cr5   Cr    Cr6+3 0.729880 0.332270 0.748190 0.953611
Cr6   Cr    Cr6+3 0.270120 0.332270 0.251810 0.969324
Cr7   Cr    Cr6+3 0.229880 0.832270 0.748190 0.953708
Cr8   Cr    Cr6+3 0.770120 0.832270 0.251810 0.969363
Cr9   Cr    Cr6+3 0.888120 0.178590 0.753010 0.998172
Cr10  Cr    Cr6+3 0.111880 0.178590 0.246990 1.014956
Cr11  Cr    Cr6+3 0.388120 0.678590 0.753010 0.998224
Cr12  Cr    Cr6+3 0.611880 0.678590 0.246990 1.015013
O49   O     O_3   0.834560 0.334570 0.748840 -0.293855
O50   O     O_3   0.165440 0.334570 0.251160 -0.303144
O51   O     O_3   0.334560 0.834570 0.748840 -0.293925
O52   O     O_3   0.665440 0.834570 0.251160 -0.303059
C25   C     C_3   0.695170 0.138156 0.462656 -0.268904
C26   C     C_3   0.307613 0.136897 0.536274 -0.263133
C27   C     C_3   0.195195 0.638201 0.462639 -0.268943
C28   C     C_3   0.807596 0.636904 0.536277 -0.263202
H1    H     H_    0.643581 0.122646 0.440158 0.155086
H2    H     H_    0.358786 0.122827 0.559151 0.144251
H3    H     H_    0.143602 0.622712 0.440141 0.155050
H4    H     H_    0.858773 0.622845 0.559152 0.144288
H5    H     H_    0.705855 0.226656 0.444995 0.112885
H6    H     H_    0.294999 0.225476 0.554089 0.131311
H7    H     H_    0.205900 0.726692 0.444978 0.112946
H8    H     H_    0.794970 0.725475 0.554096 0.131467
C29   C     C_3   0.695950 0.138069 0.542872 -0.244273
C30   C     C_3   0.308006 0.137617 0.455119 -0.234187
C31   C     C_3   0.195971 0.638109 0.542852 -0.244284
C32   C     C_3   0.807990 0.637619 0.455122 -0.234240
H9    H     H_    0.681128 0.222999 0.564868 0.129394
H10   H     H_    0.316763 0.225368 0.435627 0.124857
H11   H     H_    0.181175 0.723045 0.564850 0.129367
H12   H     H_    0.816736 0.725371 0.435631 0.124873
H13   H     H_    0.655743 0.080041 0.554667 0.206475
H14   H     H_    0.352289 0.087333 0.438744 0.177432
H15   H     H_    0.155750 0.580092 0.554632 0.206405
H16   H     H_    0.852277 0.587344 0.438754 0.177478
H17   H     H_    0.714651 0.874401 0.463236 0.113450
H18   H     H_    0.302078 0.886393 0.532497 0.121347
H19   H     H_    0.214621 0.374447 0.463228 0.113429
H20   H     H_    0.802124 0.386460 0.532495 0.121306
C33   C     C_3   0.754260 0.935535 0.480243 -0.165715
C34   C     C_3   0.256410 0.932728 0.516553 -0.164660
C35   C     C_3   0.254244 0.435551 0.480237 -0.165702
C36   C     C_3   0.756432 0.432718 0.516557 -0.164688
C37   C     C_3   0.817708 0.114715 0.454341 -0.294788
C38   C     C_3   0.185372 0.105275 0.543593 -0.291944
C39   C     C_3   0.317729 0.614694 0.454326 -0.294746
C40   C     C_3   0.685358 0.605233 0.543578 -0.291955
C41   C     C_3   0.750315 0.053269 0.437224 0.031971
C42   C     C_3   0.253547 0.049495 0.560994 0.034869
C43   C     C_3   0.250325 0.553282 0.437214 0.031994
C44   C     C_3   0.753541 0.549486 0.560992 0.034877
H21   H     H_    0.861175 0.065330 0.432697 0.124025
H22   H     H_    0.143409 0.052207 0.564242 0.125444
H23   H     H_    0.361186 0.565276 0.432686 0.124043
H24   H     H_    0.643400 0.552158 0.564234 0.125452
H25   H     H_    0.818014 0.201961 0.432963 0.180520
H26   H     H_    0.182426 0.193079 0.566906 0.171571
H27   H     H_    0.318058 0.701935 0.432934 0.180468
H28   H     H_    0.682398 0.693052 0.566865 0.171582
C45   C     C_3   0.762489 0.086023 0.575026 0.083459
C46   C     C_3   0.243047 0.079961 0.422489 0.091493
C47   C     C_3   0.262497 0.586039 0.575014 0.083498
C48   C     C_3   0.743043 0.579936 0.422485 0.091495
C49   C     C_3   0.762553 0.952952 0.562856 0.128131
C50   C     C_3   0.250415 0.948535 0.433743 0.133077
C51   C     C_3   0.262529 0.452972 0.562850 0.128128
C52   C     C_3   0.750423 0.448512 0.433744 0.133094
C53   C     C_3   0.825448 0.129417 0.535230 -0.250530
C54   C     C_3   0.178264 0.115148 0.462887 -0.252476
C55   C     C_3   0.325469 0.629388 0.535218 -0.250542
C56   C     C_3   0.678250 0.615085 0.462874 -0.252488
H29   H     H_    0.837420 0.218660 0.552165 0.118720
H30   H     H_    0.163690 0.201348 0.444495 0.119463
H31   H     H_    0.337472 0.718620 0.552153 0.118712
H32   H     H_    0.663662 0.701269 0.444469 0.119500
H33   H     H_    0.869350 0.075270 0.551747 0.120721
H34   H     H_    0.136329 0.055367 0.446241 0.122842
H35   H     H_    0.369347 0.575187 0.551736 0.120696
H36   H     H_    0.636319 0.555290 0.446230 0.122845
H37   H     H_    0.801711 0.894135 0.464210 0.093255
H38   H     H_    0.212900 0.880942 0.531486 0.092923
H39   H     H_    0.301686 0.394117 0.464212 0.093261
H40   H     H_    0.712954 0.380866 0.531506 0.092991
H41   H     H_    0.813462 0.917573 0.578898 0.099586
H42   H     H_    0.202933 0.905821 0.413201 0.093980
H43   H     H_    0.313424 0.417550 0.578909 0.099572
H44   H     H_    0.702941 0.405787 0.413216 0.093965
C57   C     C_3   0.008962 0.218592 0.460409 -0.301303
C58   C     C_3   0.003003 0.212286 0.542268 -0.316983
C59   C     C_3   0.508943 0.718580 0.460399 -0.301281
C60   C     C_3   0.502974 0.712249 0.542257 -0.316992
H45   H     H_    0.044440 0.151561 0.442355 0.144866
H46   H     H_    0.962855 0.152121 0.555610 0.142686
H47   H     H_    0.544416 0.651535 0.442344 0.144870
H48   H     H_    0.462807 0.652125 0.555590 0.142687
H49   H     H_    0.959686 0.196488 0.434171 0.121697
H50   H     H_    0.049909 0.175671 0.567036 0.110913
H51   H     H_    0.459666 0.696512 0.434153 0.121717
H52   H     H_    0.549864 0.675570 0.567021 0.110906
H53   H     H_    0.623700 0.821917 0.503218 0.073694
H54   H     H_    0.398904 0.837248 0.503428 0.073765
H55   H     H_    0.123677 0.321974 0.503247 0.073820
H56   H     H_    0.898907 0.337163 0.503409 0.073751
H57   H     H_    0.592870 0.861212 0.610273 0.120709
H58   H     H_    0.433089 0.925628 0.404933 0.149441
H59   H     H_    0.092836 0.361492 0.610294 0.120846
H60   H     H_    0.933067 0.425569 0.404904 0.149478
C61   C     C_3   0.085831 0.386971 0.494907 -0.141624
C62   C     C_3   0.938685 0.398949 0.519195 -0.135127
C63   C     C_3   0.585848 0.886902 0.494913 -0.141570
C64   C     C_3   0.438712 0.898978 0.519213 -0.135165
C65   C     C_3   0.970956 0.433913 0.449555 0.179092
C66   C     C_3   0.058418 0.404167 0.571072 0.201090
C67   C     C_3   0.470987 0.933934 0.449580 0.179024
C68   C     C_3   0.558457 0.904019 0.571092 0.201119
C69   C     C_3   0.030340 0.344780 0.439099 0.017365
C70   C     C_3   0.990875 0.337588 0.571332 0.039895
C71   C     C_3   0.530348 0.844763 0.439104 0.017354
C72   C     C_3   0.490885 0.837550 0.571338 0.039939
H61   H     H_    0.915472 0.475145 0.544046 0.176368
H62   H     H_    0.109970 0.464434 0.475541 0.164524
H63   H     H_    0.415528 0.975193 0.544071 0.176400
H64   H     H_    0.609987 0.964376 0.475571 0.164550
C73   C     C_3   0.813444 0.015715 0.045404 -0.267647
C74   C     C_3   0.180558 0.109072 0.935905 -0.267047
C75   C     C_3   0.313434 0.515626 0.045389 -0.267615
C76   C     C_3   0.680627 0.609491 0.935895 -0.267282
H65   H     H_    0.837495 0.933696 0.063226 0.145276
H66   H     H_    0.143397 0.040327 0.919271 0.168650
H67   H     H_    0.337488 0.433618 0.063220 0.145278
H68   H     H_    0.643350 0.541018 0.919119 0.168479
H69   H     H_    0.844709 0.085177 0.071634 0.138227
H70   H     H_    0.168268 0.185545 0.903218 0.194981
H71   H     H_    0.344724 0.585056 0.071620 0.138207
H72   H     H_    0.668520 0.686225 0.903347 0.194974
C77   C     C_3   0.818322 0.023322 0.965536 -0.263441
C78   C     C_3   0.173071 0.134965 0.014950 -0.270516
C79   C     C_3   0.318324 0.523260 0.965528 -0.263425
C80   C     C_3   0.673153 0.635109 0.014988 -0.270370
H73   H     H_    0.867272 0.060800 0.954349 0.132329
H74   H     H_    0.165856 0.224741 0.018112 0.095706
H75   H     H_    0.367283 0.560721 0.954351 0.132312
H76   H     H_    0.666001 0.724877 0.018336 0.095477
H77   H     H_    0.821703 0.933832 0.943596 0.169856
H78   H     H_    0.128702 0.089246 0.034726 0.195958
H79   H     H_    0.321681 0.433772 0.943574 0.169866
H80   H     H_    0.628759 0.589390 0.034693 0.196014
H81   H     H_    0.707961 0.877317 0.008665 0.085517
H82   H     H_    0.226582 0.903200 0.948016 0.140420
H83   H     H_    0.207677 0.377380 0.008721 0.085436
H84   H     H_    0.726365 0.403269 0.947894 0.140676
C81   C     C_3   0.691438 0.966413 0.009777 -0.204842
C82   C     C_3   0.263944 0.962701 0.970853 -0.147623
C83   C     C_3   0.191352 0.466564 0.009766 -0.204750
C84   C     C_3   0.763790 0.462632 0.970764 -0.147443
C85   C     C_3   0.722468 0.159183 0.057800 -0.186151
C86   C     C_3   0.300797 0.170323 0.951172 -0.267663
C87   C     C_3   0.222539 0.659200 0.057826 -0.186272
C88   C     C_3   0.800926 0.670162 0.951221 -0.267698
C89   C     C_3   0.738328 0.031700 0.065998 -0.035354
C90   C     C_3   0.253353 0.071712 0.924337 0.005667
C91   C     C_3   0.238321 0.531694 0.065994 -0.035438
C92   C     C_3   0.753354 0.571770 0.924319 0.005759
H85   H     H_    0.668162 0.175429 0.068081 0.222706
H86   H     H_    0.353595 0.158053 0.935086 0.128404
H87   H     H_    0.168254 0.675547 0.068162 0.222724
H88   H     H_    0.853704 0.657776 0.935104 0.128403
H89   H     H_    0.754297 0.208999 0.097556 0.181036
H90   H     H_    0.283949 0.252137 0.926357 0.188200
H91   H     H_    0.254433 0.708938 0.097562 0.181028
H92   H     H_    0.784184 0.752094 0.926472 0.187861
C93   C     C_3   0.756450 0.092129 0.931620 0.068879
C94   C     C_3   0.236408 0.111019 0.062203 0.075078
C95   C     C_3   0.256477 0.592132 0.931624 0.068974
C96   C     C_3   0.736461 0.610870 0.062221 0.075006
C97   C     C_3   0.693097 0.013049 0.930876 0.445375
C98   C     C_3   0.252547 0.980661 0.053372 0.444337
C99   C     C_3   0.193131 0.513073 0.930838 0.445371
C100  C     C_3   0.752407 0.480459 0.053292 0.444099
C101  C     C_3   0.738711 0.195309 0.981784 -0.247231
C102  C     C_3   0.296658 0.182783 0.033128 -0.261477
C103  C     C_3   0.238745 0.695311 0.981799 -0.247227
C104  C     C_3   0.796799 0.682486 0.033187 -0.261493
H93   H     H_    0.781108 0.252141 0.988845 0.100430
H94   H     H_    0.290096 0.274328 0.047629 0.115353
H95   H     H_    0.281145 0.752146 0.988845 0.100149
H96   H     H_    0.790365 0.774055 0.047749 0.115524
H97   H     H_    0.694040 0.239926 0.958647 0.215422
H98   H     H_    0.345575 0.155865 0.058061 0.155492
H99   H     H_    0.194061 0.739935 0.958675 0.215654
H100  H     H_    0.845680 0.655327 0.058083 0.155265
H101  H     H_    0.640361 0.982139 0.028995 0.129387
H102  H     H_    0.312587 0.922650 0.960146 0.089245
H103  H     H_    0.140270 0.482526 0.028938 0.129426
H104  H     H_    0.812393 0.422450 0.960015 0.089082
C105  C     C_3   0.980002 0.478018 0.049718 -0.215453
C106  C     C_3   0.955715 0.477782 0.972064 -0.240161
C107  C     C_3   0.480057 0.978029 0.049698 -0.215486
C108  C     C_3   0.455855 0.977835 0.972018 -0.239994
H105  H     H_    0.026062 0.533529 0.054348 0.155486
H106  H     H_    0.902997 0.502904 0.969333 0.136502
H107  H     H_    0.526131 0.033498 0.054381 0.155595
H108  H     H_    0.403178 0.003246 0.969169 0.136284
H109  H     H_    0.941529 0.520347 0.082260 0.158273
H110  H     H_    0.983503 0.546692 0.943808 0.149612
H111  H     H_    0.441558 0.020386 0.082197 0.158656
H112  H     H_    0.483780 0.046608 0.943791 0.149784
H113  H     H_    0.598499 0.833053 0.052832 0.102479
H114  H     H_    0.374012 0.764978 0.956209 0.098639
H115  H     H_    0.098538 0.333242 0.052795 0.102362
H116  H     H_    0.874017 0.264872 0.956275 0.098788
H117  H     H_    0.570366 0.901489 0.938757 0.224133
H118  H     H_    0.389007 0.802743 0.083639 0.182248
H119  H     H_    0.070277 0.401727 0.938720 0.223935
H120  H     H_    0.889069 0.302549 0.083690 0.182288
C109  C     C_3   0.051416 0.300452 0.030346 -0.243444
C110  C     C_3   0.925656 0.262013 0.976068 -0.224522
C111  C     C_3   0.551388 0.800299 0.030367 -0.243546
C112  C     C_3   0.425632 0.762093 0.976054 -0.224499
C113  C     C_3   0.934874 0.271540 0.059030 -0.254033
C114  C     C_3   0.040448 0.325155 0.950699 -0.235827
C115  C     C_3   0.434815 0.771642 0.059018 -0.254049
C116  C     C_3   0.540475 0.824992 0.950713 -0.236011
C117  C     C_3   0.996015 0.351489 0.075546 0.058946
C118  C     C_3   0.966371 0.356001 0.937545 0.036157
C119  C     C_3   0.496003 0.851481 0.075544 0.058917
C120  C     C_3   0.466421 0.855994 0.937534 0.036309
H121  H     H_    0.944726 0.183514 0.081453 0.107792
H122  H     H_    0.055579 0.248514 0.917929 0.160371
H123  H     H_    0.444609 0.683616 0.081464 0.107762
H124  H     H_    0.555586 0.748333 0.917947 0.160122
H125  H     H_    0.946728 0.176465 0.959361 0.131394
H126  H     H_    0.050499 0.205131 0.037151 0.136338
H127  H     H_    0.446673 0.676508 0.959377 0.131426
H128  H     H_    0.550426 0.704979 0.037191 0.136493
O53   O     O_3   0.995667 0.550979 0.459626 -0.519989
C121  C     C_3   0.979745 0.630694 0.404367 0.011719
H129  H     H_    0.936153 0.604813 0.368959 0.109892
H130  H     H_    0.024142 0.641480 0.370501 0.176172
C122  C     C_3   0.967599 0.750788 0.437564 -0.395498
H131  H     H_    0.015994 0.786786 0.459928 0.142109
H132  H     H_    0.946912 0.811130 0.396369 0.100812
H133  H     H_    0.931871 0.745439 0.481712 0.151694
O54   O     O_3   0.049210 0.525013 0.587577 -0.502845
C123  C     C_3   0.079310 0.560955 0.654633 -0.002878
H134  H     H_    0.134038 0.542591 0.658958 0.144117
H135  H     H_    0.059320 0.515688 0.701177 0.152162
C124  C     C_3   0.067395 0.691583 0.663567 -0.358287
H136  H     H_    0.014462 0.707700 0.678949 0.139297
H137  H     H_    0.102930 0.728559 0.704789 0.114340
H138  H     H_    0.075340 0.737303 0.612677 0.158240
O55   O     O_3   0.495727 0.050977 0.459668 -0.520094
C125  C     C_3   0.479804 0.130720 0.404425 0.011698
H139  H     H_    0.436216 0.104855 0.369010 0.109846
H140  H     H_    0.524203 0.141520 0.370562 0.176141
C126  C     C_3   0.467643 0.250792 0.437643 -0.395509
H141  H     H_    0.516034 0.286807 0.460009 0.142122
H142  H     H_    0.446942 0.311143 0.396460 0.100787
H143  H     H_    0.431918 0.245400 0.481792 0.151716
O56   O     O_3   0.549319 0.024847 0.587680 -0.503010
C127  C     C_3   0.579427 0.060564 0.654776 -0.002879
H144  H     H_    0.634167 0.042302 0.659025 0.144378
H145  H     H_    0.559485 0.015047 0.701258 0.152319
C128  C     C_3   0.567460 0.191135 0.663920 -0.358234
H146  H     H_    0.514547 0.207107 0.679423 0.139363
H147  H     H_    0.603043 0.227994 0.705132 0.114317
H148  H     H_    0.575322 0.237067 0.613084 0.158325
N1    N     N_R   0.697550 0.916868 0.876847 0.019922
O57   O     O_R   0.752346 0.899008 0.841791 -0.437051
O58   O     O_R   0.643458 0.864946 0.852214 -0.473532
N2    N     N_R   0.194675 0.906157 0.075641 0.052175
O59   O     O_R   0.142526 0.889081 0.032547 -0.435214
O60   O     O_R   0.188892 0.869559 0.140653 -0.379882
N3    N     N_R   0.197656 0.416815 0.876868 0.019919
O61   O     O_R   0.252386 0.399219 0.841651 -0.436824
O62   O     O_R   0.143632 0.364415 0.852491 -0.473986
N4    N     N_R   0.694420 0.406133 0.075482 0.052138
O63   O     O_R   0.642316 0.389155 0.032312 -0.435304
O64   O     O_R   0.688523 0.369549 0.140481 -0.379709
O65   O     O_3   0.631966 0.079566 0.922166 -0.613456
C129  C     C_3   0.606576 0.099629 0.852189 0.017377
H149  H     H_    0.567262 0.034461 0.839133 0.200495
H150  H     H_    0.644101 0.091170 0.809983 0.174951
C130  C     C_3   0.572878 0.219419 0.851503 -0.378521
H151  H     H_    0.611428 0.289134 0.848428 0.176881
H152  H     H_    0.536377 0.226173 0.805743 0.079741
H153  H     H_    0.544208 0.233198 0.900964 0.175181
O66   O     O_3   0.315501 0.953767 0.088860 -0.631379
C131  C     C_3   0.316633 0.950841 0.164544 -0.007493
H154  H     H_    0.324077 0.859168 0.179406 0.138501
H155  H     H_    0.270752 0.980001 0.189923 0.204297
C132  C     C_3   0.373207 0.025637 0.198223 -0.395091
H156  H     H_    0.362431 0.045881 0.254904 0.121639
H157  H     H_    0.421389 0.977621 0.197762 0.148649
H158  H     H_    0.378464 0.109651 0.170586 0.165623
O67   O     O_3   0.132045 0.579659 0.921967 -0.613375
C133  C     C_3   0.106610 0.599129 0.851939 0.017685
H159  H     H_    0.067495 0.533562 0.838977 0.200569
H160  H     H_    0.144194 0.590860 0.809775 0.174744
C134  C     C_3   0.072572 0.718620 0.851009 -0.378539
H161  H     H_    0.110922 0.788618 0.847668 0.176285
H162  H     H_    0.035965 0.724728 0.805302 0.080039
H163  H     H_    0.043955 0.732510 0.900494 0.175050
O68   O     O_3   0.815309 0.453201 0.088767 -0.631336
C135  C     C_3   0.816435 0.450287 0.164455 -0.007732
H164  H     H_    0.823870 0.358612 0.179326 0.138396
H165  H     H_    0.770553 0.479432 0.189832 0.204125
C136  C     C_3   0.873012 0.525076 0.198145 -0.395206
H166  H     H_    0.862258 0.545255 0.254837 0.121677
H167  H     H_    0.921205 0.477092 0.197635 0.148533
H168  H     H_    0.878241 0.609139 0.170564 0.165583
O69   O     O_3   0.711227 0.895454 0.600598 -0.640162
C137  C     C_3   0.736363 0.851955 0.667408 -0.041303
H169  H     H_    0.753719 0.923756 0.703322 0.208217
H170  H     H_    0.779284 0.790888 0.660987 0.133271
C138  C     C_3   0.681631 0.787361 0.706609 -0.322172
H171  H     H_    0.657546 0.716636 0.674613 0.111429
H172  H     H_    0.704306 0.745764 0.754864 0.202765
H173  H     H_    0.641761 0.849544 0.722325 0.176795
O70   O     O_3   0.308799 0.902849 0.400914 -0.628207
C139  C     C_3   0.292453 0.845411 0.335290 -0.039082
H174  H     H_    0.272195 0.908785 0.296528 0.148873
H175  H     H_    0.253310 0.777350 0.341177 0.140289
C140  C     C_3   0.355474 0.785440 0.306435 -0.385028
H176  H     H_    0.382225 0.732008 0.346678 0.141580
H177  H     H_    0.341082 0.725701 0.261400 0.126072
H178  H     H_    0.392490 0.850461 0.289334 0.144018
O71   O     O_3   0.211173 0.395547 0.600584 -0.640167
C141  C     C_3   0.236285 0.351988 0.667385 -0.041370
H179  H     H_    0.253758 0.423728 0.703282 0.208277
H180  H     H_    0.279122 0.290756 0.660941 0.133281
C142  C     C_3   0.181490 0.287612 0.706617 -0.322140
H181  H     H_    0.157235 0.217096 0.674578 0.111351
H182  H     H_    0.204159 0.245784 0.754799 0.202805
H183  H     H_    0.141761 0.349993 0.722455 0.176666
O72   O     O_3   0.808804 0.402834 0.400906 -0.628197
C143  C     C_3   0.792446 0.345339 0.335303 -0.039151
H184  H     H_    0.772196 0.408694 0.296529 0.148743
H185  H     H_    0.753285 0.277315 0.341209 0.140220
C144  C     C_3   0.855452 0.285282 0.306465 -0.385055
H186  H     H_    0.882206 0.231904 0.346731 0.141548
H187  H     H_    0.841041 0.225474 0.261472 0.126073
H188  H     H_    0.892484 0.350232 0.289320 0.144060

loop_
_geom_bond_atom_site_label_1
_geom_bond_atom_site_label_2
_geom_bond_distance
_ccdc_geom_bond_type
C123  H135  1.104636 S    
O4    C12   1.313727 A    
C18   O42   1.309321 A    
O65   C129  1.409869 S    
O25   C21   1.319857 A    
C35   C51   1.560637 S    
C36   C52   1.564286 S    
C5    C45   1.462740 S    
C104  H96   1.088921 S    
C65   O53   1.436954 S    
O56   C127  1.428618 S    
C61   C66   1.552198 S    
C25   C41   1.543312 S    
C126  H141  1.111395 S    
C8    C48   1.483227 S    
C93   C97   1.548669 S    
O72   C143  1.414976 S    
C27   C43   1.543267 S    
C64   C67   1.528829 S    
C101  H93   1.067390 S    
C75   C79   1.505353 S    
O39   C19   1.315791 A    
C123  C124  1.522744 S    
O21   C9    1.318650 A    
C129  C130  1.524999 S    
C114  C118  1.521126 S    
C73   H69   1.109249 S    
C85   C89   1.502362 S    
O44   Cr12  2.145707 S    
C134  H163  1.111054 S    
C78   H78   1.100626 S    
C143  C144  1.533393 S    
C54   H30   1.085789 S    
C3    O11   1.305165 A    
C76   H68   1.113683 S    
C106  H110  1.112554 S    
H116  C110  1.076902 S    
C55   H35   1.105319 S    
C132  H158  1.105676 S    
H54   C64   1.091334 S    
O2    C10   1.313689 A    
C52   H44   1.115911 S    
C143  H185  1.109725 S    
H120  C113  1.087756 S    
C106  C118  1.547117 S    
Cr7   O51   2.072564 S    
C16   C89   1.524575 S    
C57   H45   1.097214 S    
C130  H153  1.111061 S    
C58   H50   1.108831 S    
C1    C44   1.492066 S    
C125  H139  1.109831 S    
O16   Cr8   2.011603 S    
C3    C42   1.492056 S    
C101  H97   1.100334 S    
C23   C120  1.490212 S    
C24   C119  1.498736 S    
C37   H21   1.113321 S    
C29   C45   1.552145 S    
C59   H47   1.097257 S    
C82   H102  1.089290 S    
C121  H129  1.109843 S    
O13   C5    1.312533 A    
O28   Cr4   2.093929 S    
O12   Cr8   2.119003 S    
O22   Cr10  2.025365 S    
C122  H133  1.107528 S    
O15   C7    1.312543 A    
C80   H80   1.100541 S    
O6    C2    1.314223 A    
O46   Cr10  1.979244 S    
C15   C90   1.495329 S    
C130  H152  1.106504 S    
C54   H34   1.111823 S    
O48   C24   1.326324 A    
H113  C111  1.077107 S    
N3    O62   1.295159 A    
C26   C42   1.553064 S    
H114  C112  1.076876 S    
C74   C78   1.517616 S    
C87   H87   1.113267 S    
C137  H169  1.104174 S    
C11   C72   1.468242 S    
C109  H126  1.101634 S    
C9    C70   1.468253 S    
C78   H74   1.039510 S    
O69   C137  1.427102 S    
C22   C117  1.498599 S    
C141  H180  1.108181 S    
C34   H38   1.092964 S    
C81   C89   1.565126 S    
C96   C104  1.566549 S    
C8    O20   1.304435 A    
C126  H143  1.107543 S    
C86   C102  1.544186 S    
C25   C29   1.501659 S    
C59   C71   1.567831 S    
Cr12  O52   2.079631 S    
C27   C31   1.501616 S    
C85   C101  1.531791 S    
C17   O41   1.303533 A    
C138  H171  1.101729 S    
C19   O43   1.303433 A    
C63   H64   1.081300 S    
C20   O44   1.309183 A    
C105  H109  1.098768 S    
Cr8   O52   2.072449 S    
O71   C141  1.427053 S    
C85   H89   1.112451 S    
O46   C22   1.326278 A    
N2    O59   1.303432 A    
C38   C54   1.518964 S    
C28   C32   1.520047 S    
H115  C109  1.077334 S    
C16   O36   1.320040 A    
C35   H39   1.100130 S    
O54   C123  1.428625 S    
C103  H95   1.067429 S    
C36   H40   1.092967 S    
O27   C23   1.319711 A    
C31   H11   1.094889 S    
C142  H181  1.101820 S    
O66   C131  1.417505 S    
C121  H130  1.108370 S    
O32   C16   1.357302 A    
C136  H167  1.100525 S    
H83   C83   1.071330 S    
O47   Cr11  1.965502 S    
C88   H92   1.098353 S    
N3    O61   1.300477 A    
C79   C95   1.576272 S    
C115  H123  1.112130 S    
C140  H176  1.099285 S    
O5    C1    1.306473 A    
O24   C12   1.354213 A    
C31   H15   1.068785 S    
O30   C14   1.357302 A    
H57   C68   1.104146 S    
C28   H4    1.099769 S    
C40   H24   1.112964 S    
C109  C114  1.530259 S    
C124  H137  1.108272 S    
C133  H159  1.099525 S    
C26   C30   1.520065 S    
C1    O9    1.305144 A    
C47   C51   1.538805 S    
C112  C115  1.560778 S    
O11   Cr7   2.145563 S    
C62   H61   1.091556 S    
C77   C93   1.576374 S    
O27   Cr3   2.100686 S    
C104  H100  1.106582 S    
C107  H111  1.098815 S    
C75   C91   1.558353 S    
Cr5   O49   2.072564 S    
C75   H71   1.109247 S    
C102  H94   1.088705 S    
C81   H101  1.098000 S    
C113  H121  1.112146 S    
C144  H187  1.109605 S    
C98   N2    1.503367 S    
C133  H160  1.105230 S    
C128  H147  1.108236 S    
C138  H173  1.106577 S    
C88   C104  1.544231 S    
O22   C10   1.354218 A    
C4    O12   1.290819 A    
C2    O10   1.290794 A    
C32   H16   1.097811 S    
C108  H112  1.112543 S    
H82   C82   1.081316 S    
C49   O69   1.423954 S    
H20   C36   1.083200 S    
C39   H27   1.081975 S    
C133  C134  1.524906 S    
C55   H31   1.091018 S    
C37   C41   1.532920 S    
C39   C43   1.532929 S    
C111  H128  1.101697 S    
O3    C11   1.292630 A    
O8    C4    1.314222 A    
C112  H127  1.109709 S    
C108  C120  1.547197 S    
C14   C91   1.524617 S    
C142  H183  1.106678 S    
C129  H150  1.105171 S    
C131  C132  1.527019 S    
Cr1   O49   2.082041 S    
C63   C68   1.552167 S    
H56   C62   1.091332 S    
C86   H86   1.105368 S    
H17   C33   1.089850 S    
Cr3   O51   2.082041 S    
C58   H46   1.090575 S    
C127  H145  1.104726 S    
C19   C95   1.508187 S    
C139  H175  1.109726 S    
C109  C117  1.518379 S    
C102  H98   1.106685 S    
C140  H178  1.103891 S    
C83   C99   1.579162 S    
C111  C119  1.518522 S    
O26   Cr2   2.093929 S    
C112  C120  1.546586 S    
C5    O17   1.290738 A    
O29   C13   1.319289 A    
C67   O55   1.436945 S    
O14   C6    1.319496 A    
C62   C70   1.570223 S    
C80   H76   1.039420 S    
C74   C90   1.524019 S    
C99   O67   1.434989 S    
C127  C128  1.522668 S    
C76   C80   1.517891 S    
H19   C35   1.089826 S    
O40   Cr8   2.001088 S    
C99   N3    1.490680 S    
C108  H108  1.082152 S    
O41   Cr9   2.165916 S    
O70   C139  1.414970 S    
C110  H125  1.109736 S    
O31   C15   1.319313 A    
C46   C54   1.559546 S    
O33   Cr5   2.108106 S    
C59   H51   1.106594 S    
C25   H1    1.106219 S    
C67   C71   1.571098 S    
C134  H162  1.106497 S    
C82   C90   1.542365 S    
O29   Cr1   2.017835 S    
C65   C69   1.571124 S    
N4    O63   1.303424 A    
C73   H65   1.103457 S    
C27   H7    1.093998 S    
C33   C41   1.580897 S    
Cr9   O49   2.077435 S    
C132  H157  1.100502 S    
C35   C43   1.580907 S    
C94   C98   1.534844 S    
Cr11  O51   2.077435 S    
O26   C22   1.305760 A    
C135  H164  1.098737 S    
O20   Cr12  2.103461 S    
C107  C108  1.516801 S    
C76   C92   1.523920 S    
C100  O68   1.428557 S    
C50   O70   1.422265 S    
C40   C56   1.518907 S    
C125  H140  1.108374 S    
C68   C72   1.541180 S    
C45   C53   1.558423 S    
C97   O65   1.435033 S    
C68   O56   1.427418 S    
C29   H13   1.068723 S    
C60   H52   1.108843 S    
C86   C90   1.539910 S    
C51   H43   1.119240 S    
C122  H132  1.110616 S    
H119  C114  1.088576 S    
C131  H154  1.098694 S    
C95   C103  1.547288 S    
C77   H77   1.102402 S    
C125  C126  1.524382 S    
C135  H165  1.088533 S    
O6    Cr2   1.976596 S    
N1    O58   1.295274 A    
O28   C24   1.305817 A    
C40   C44   1.520050 S    
C121  C122  1.524402 S    
C123  H134  1.104044 S    
O42   Cr10  2.145707 S    
O18   Cr10  2.103461 S    
O31   Cr3   2.017835 S    
O34   Cr6   2.136156 S    
C13   C92   1.495339 S    
C26   H2    1.099737 S    
C126  H142  1.110632 S    
O24   Cr12  2.025365 S    
O30   Cr2   2.030991 S    
C40   H28   1.093680 S    
O48   Cr12  1.979244 S    
C56   H32   1.085767 S    
C110  C113  1.560765 S    
C46   C50   1.529474 S    
C59   C60   1.543801 S    
O37   C17   1.315741 A    
C15   O35   1.303091 A    
C4    C41   1.477828 S    
C135  C136  1.527098 S    
Cr10  O50   2.079631 S    
H81   C81   1.071576 S    
O40   C20   1.316984 A    
O43   Cr11  2.165916 S    
C33   C49   1.560637 S    
O21   Cr9   2.041822 S    
C79   H75   1.088589 S    
O39   Cr7   2.027113 S    
O45   Cr9   1.965502 S    
C13   O33   1.303192 A    
O13   Cr5   1.985173 S    
C57   C69   1.567808 S    
O15   Cr7   1.985173 S    
C73   C77   1.505427 S    
C10   C69   1.513072 S    
C143  H184  1.099509 S    
O23   C11   1.318573 A    
C30   H14   1.097829 S    
H58   C67   1.108632 S    
H59   C66   1.104035 S    
C32   H12   1.090343 S    
C136  H166  1.110674 S    
C45   C49   1.538865 S    
C39   H23   1.113321 S    
C87   C91   1.502240 S    
C48   C52   1.529485 S    
C93   C101  1.547212 S    
C82   C98   1.579465 S    
C50   H42   1.115921 S    
C137  H170  1.108219 S    
C36   C44   1.568283 S    
C111  C116  1.530227 S    
H55   C61   1.064822 S    
C6    C46   1.483189 S    
H53   C63   1.064694 S    
O1    Cr1   2.144991 S    
C62   C65   1.528924 S    
O19   Cr11  2.086330 S    
C52   O72   1.422268 S    
C86   H90   1.098333 S    
O53   C121  1.416766 S    
O45   C21   1.332227 A    
O47   C23   1.332105 A    
C124  H136  1.110265 S    
C105  H105  1.113502 S    
C110  C118  1.546539 S    
C103  H99   1.100484 S    
C32   C48   1.551381 S    
C60   H48   1.090494 S    
C87   C103  1.531779 S    
C6    O18   1.304453 A    
C141  H179  1.104150 S    
C56   H36   1.111844 S    
C66   O54   1.427481 S    
O36   Cr8   2.136156 S    
C115  C119  1.540753 S    
H60   C65   1.108621 S    
C53   H29   1.091001 S    
C116  C120  1.521173 S    
O38   Cr6   2.001088 S    
C49   H41   1.119238 S    
C57   C58   1.543784 S    
O55   C125  1.416760 S    
O37   Cr5   2.027113 S    
C84   C100  1.579402 S    
O8    Cr4   1.976596 S    
C48   C56   1.559528 S    
C137  C138  1.526424 S    
C144  H186  1.099265 S    
O1    C9    1.292550 A    
C128  H146  1.110266 S    
O7    C3    1.306444 A    
C138  H172  1.108888 S    
C47   C55   1.558442 S    
C7    C47   1.462797 S    
C105  C117  1.563107 S    
C107  C119  1.563170 S    
C57   H49   1.106592 S    
O23   Cr11  2.041822 S    
H84   C84   1.081409 S    
C83   C91   1.565263 S    
C30   C46   1.551394 S    
C87   H91   1.112469 S    
C95   C99   1.548409 S    
C38   H26   1.093701 S    
O16   C8    1.319545 A    
C141  C142  1.526382 S    
C83   H103  1.098224 S    
C78   C94   1.537749 S    
C84   H104  1.089359 S    
C107  H107  1.113513 S    
C7    O19   1.290735 A    
C61   H62   1.081352 S    
C142  H182  1.108910 S    
Cr4   O52   2.076689 S    
O2    Cr2   2.155518 S    
O14   Cr6   2.011603 S    
C96   C100  1.534819 S    
C136  H168  1.105592 S    
C53   H33   1.105320 S    
C116  H124  1.110914 S    
O5    Cr1   1.985648 S    
C139  C140  1.533324 S    
C76   H72   1.098134 S    
C129  H149  1.099500 S    
C74   H70   1.097914 S    
C28   C44   1.553008 S    
N2    O60   1.301361 A    
C140  H177  1.109616 S    
O35   Cr7   2.108106 S    
C29   H9    1.094970 S    
O9    Cr5   2.145563 S    
C21   C118  1.490363 S    
C33   H37   1.100150 S    
C51   O71   1.423913 S    
C100  N4    1.503495 S    
C77   H73   1.088530 S    
O7    Cr3   1.985648 S    
C64   H63   1.091533 S    
C75   H67   1.103432 S    
C88   C92   1.539962 S    
C25   H5    1.094010 S    
C38   C42   1.520010 S    
C124  H138  1.109241 S    
C31   C47   1.552103 S    
C80   C96   1.537701 S    
C105  C106  1.516825 S    
Cr2   O50   2.076689 S    
O32   Cr4   2.030991 S    
C134  H161  1.109480 S    
H18   C34   1.083270 S    
C114  H122  1.110896 S    
C85   H85   1.113283 S    
C39   C55   1.524712 S    
N4    O64   1.301354 A    
C60   C72   1.549791 S    
C37   C53   1.524668 S    
C18   C94   1.503708 S    
C58   C70   1.549815 S    
C2    C43   1.477761 S    
C144  H188  1.103826 S    
O3    Cr3   2.144991 S    
C28   H8    1.095135 S    
C84   C92   1.542441 S    
C132  H156  1.110714 S    
O38   C18   1.317136 A    
C128  H148  1.109268 S    
O25   Cr1   2.100686 S    
C113  C117  1.540749 S    
C63   C71   1.564705 S    
C106  H106  1.082000 S    
H117  C116  1.088454 S    
H118  C115  1.087803 S    
C61   C69   1.564745 S    
C34   C50   1.564258 S    
O17   Cr9   2.086330 S    
C79   H79   1.102433 S    
C81   C97   1.579071 S    
C73   C89   1.558252 S    
C38   H22   1.112962 S    
C130  H151  1.109426 S    
C14   O34   1.320091 A    
C88   H88   1.105323 S    
C12   C71   1.513114 S    
O67   C133  1.409879 S    
Cr6   O50   2.072449 S    
O68   C135  1.417557 S    
C94   C102  1.566373 S    
C30   H10   1.090363 S    
O10   Cr6   2.119003 S    
C122  H131  1.111395 S    
C131  H155  1.088582 S    
O4    Cr4   2.155518 S    
C66   C70   1.541294 S    
C64   C72   1.570214 S    
C27   H3    1.106237 S    
C127  H144  1.104000 S    
C74   H66   1.113711 S    
C20   C96   1.503837 S    
C139  H174  1.099566 S    
C34   C42   1.568294 S    
C37   H25   1.081904 S    
N1    O57   1.300453 A    
C98   O66   1.428615 S    
C17   C93   1.508271 S    
C26   H6    1.095137 S    
C97   N1    1.490660 S    
