data_mof_unit_56762.cif
_audit_creation_date              2013-03-05T16:48:42-0500
_audit_creation_method            fapswitch 2.2
_symmetry_space_group_name_H-M    P1
_symmetry_Int_Tables_number       1
_space_group_crystal_system       triclinic
_cell_length_a                    27.637474
_cell_length_b                    8.972497
_cell_length_c                    8.090901
_cell_angle_alpha                 90.237611
_cell_angle_beta                  89.177088
_cell_angle_gamma                 88.653022
_cell_volume                      2005.57711608

loop_
_atom_site_label
_atom_site_type_symbol
_atom_site_description
_atom_site_fract_x
_atom_site_fract_y
_atom_site_fract_z
_atom_type_partial_charge
O1    O     O_R   0.500000 0.285350 0.636850 -0.621478
O2    O     O_R   0.500000 0.714650 0.363150 -0.611541
O3    O     O_R   0.500000 0.714650 0.636850 -0.623767
O4    O     O_R   0.500000 0.285350 0.363150 -0.615686
C1    C     C_R   0.500110 0.217855 0.499781 0.909782
C2    C     C_R   0.499924 0.782145 0.500225 0.922309
O5    O     O_R   0.428760 0.500000 0.636860 -0.609830
O6    O     O_R   0.571240 0.500000 0.363140 -0.569971
O7    O     O_R   0.571240 0.500000 0.636860 -0.612935
O8    O     O_R   0.428760 0.500000 0.363140 -0.553987
C3    C     C_R   0.405548 0.507147 0.501618 0.966740
C4    C     C_R   0.594239 0.494479 0.498832 0.980096
Zn1   Zn    Zn3+2 0.500000 0.500000 0.682780 1.040249
Zn2   Zn    Zn3+2 0.500000 0.500000 0.317220 1.069704
C5    C     C_R   0.181118 0.364320 0.551233 0.700812
C6    C     C_R   0.819059 0.566200 0.591307 0.692772
C7    C     C_R   0.172352 0.622671 0.618528 0.648099
C8    C     C_R   0.825968 0.327954 0.459896 0.683882
O9    O     O_2   0.210813 0.245521 0.520681 -0.429359
O10   O     O_2   0.790005 0.676222 0.653985 -0.449559
O11   O     O_2   0.192005 0.758780 0.625981 -0.451024
O12   O     O_2   0.803543 0.216972 0.380961 -0.479177
N1    N     N_R   0.200444 0.501953 0.571449 -0.318167
N2    N     N_R   0.798806 0.444834 0.521366 -0.310872
C9    C     C_R   0.279773 0.564882 0.679762 0.431306
C10   C     C_R   0.719736 0.365068 0.619119 0.425557
C11   C     C_R   0.272963 0.483521 0.392922 0.324204
C12   C     C_R   0.725787 0.532264 0.382548 0.326649
C13   C     C_R   0.329716 0.580923 0.655940 0.244867
C14   C     C_R   0.669017 0.371906 0.609728 0.241075
C15   C     C_R   0.324012 0.476572 0.376575 0.283795
C16   C     C_R   0.674951 0.551879 0.382650 0.287476
C17   C     C_R   0.251632 0.517801 0.547555 0.078334
C18   C     C_R   0.747402 0.445182 0.505753 0.089374
C19   C     C_R   0.101368 0.472411 0.604874 -0.192666
C20   C     C_R   0.898575 0.453250 0.543690 -0.187733
C21   C     C_R   0.130717 0.347356 0.560680 -0.114637
C22   C     C_R   0.869503 0.577230 0.595827 -0.137095
C23   C     C_R   0.122884 0.605908 0.653155 -0.167212
C24   C     C_R   0.876794 0.326089 0.475483 -0.172070
C25   C     C_R   0.109025 0.209307 0.532397 0.370183
C26   C     C_R   0.891330 0.711983 0.638745 0.466670
C27   C     C_R   0.094309 0.716340 0.736059 0.326523
C28   C     C_R   0.906641 0.207657 0.413069 0.342202
C29   C     C_R   0.352401 0.524823 0.509066 -0.308762
C30   C     C_R   0.646806 0.471391 0.496127 -0.294049
C31   C     C_R   0.978667 0.332830 0.510509 0.011887
C32   C     C_R   0.021518 0.590003 0.646471 -0.016848
C33   C     C_R   0.971025 0.589617 0.615772 -0.050540
C34   C     C_R   0.029055 0.332744 0.543782 0.040494
C35   C     C_R   0.949456 0.457465 0.559314 -0.058770
C36   C     C_R   0.050520 0.465396 0.597307 -0.061399
C37   C     C_R   0.957348 0.218532 0.416367 0.506328
C38   C     C_R   0.043470 0.704581 0.738915 0.410529
C39   C     C_R   0.941668 0.721328 0.626065 0.383211
C40   C     C_R   0.058093 0.200861 0.541739 0.392200
C41   C     C_1   0.500070 0.065089 0.499705 -0.152242
C42   C     C_1   0.500003 0.934912 0.500324 -0.150251
N3    N     N_1   0.500000 0.500000 0.073640 0.001339
N4    N     N_1   0.500000 0.500000 0.926360 0.001328
O13   O     O_3   0.346829 0.418236 0.236773 -0.706600
H1    H     H_    0.325366 0.345513 0.184336 0.360347
O14   O     O_3   0.651979 0.653019 0.279910 -0.720022
H2    H     H_    0.674584 0.733333 0.251658 0.363028
O15   O     O_3   0.355348 0.650786 0.778038 -0.714499
H3    H     H_    0.380382 0.711745 0.723607 0.348570
O16   O     O_3   0.642442 0.280699 0.712040 -0.726758
H4    H     H_    0.612003 0.255494 0.656426 0.343217
O17   O     O_3   0.242778 0.454847 0.262541 -0.710511
H5    H     H_    0.260086 0.476096 0.157703 0.362098
O18   O     O_3   0.755593 0.597853 0.266801 -0.705913
H6    H     H_    0.737422 0.611677 0.163164 0.366921
O19   O     O_3   0.256929 0.596676 0.829532 -0.725014
H7    H     H_    0.281042 0.624230 0.912861 0.390446
O20   O     O_3   0.743832 0.279855 0.735433 -0.699220
H8    H     H_    0.720254 0.234041 0.811880 0.403405
O21   O     O_3   0.137620 0.084235 0.497758 -0.639517
H9    H     H_    0.118387 0.011828 0.435080 0.352403
O22   O     O_3   0.862934 0.837386 0.674567 -0.673691
H10   H     H_    0.883325 0.916705 0.720119 0.380512
O23   O     O_3   0.114817 0.831181 0.822738 -0.729893
H11   H     H_    0.144948 0.792310 0.873625 0.392144
O24   O     O_3   0.887541 0.081264 0.345357 -0.695952
H12   H     H_    0.865679 0.039477 0.430526 0.403344
O25   O     O_3   0.986711 0.125752 0.318702 -0.716465
H13   H     H_    0.966942 0.061010 0.248514 0.389836
O26   O     O_3   0.014773 0.794326 0.842120 -0.702800
H14   H     H_    0.034699 0.865998 0.902659 0.393307
O27   O     O_3   0.960280 0.860225 0.598489 -0.690487
H15   H     H_    0.987928 0.846604 0.520111 0.374406
O28   O     O_3   0.036260 0.066827 0.570524 -0.708591
H16   H     H_    0.060231 0.995371 0.616367 0.363600

loop_
_geom_bond_atom_site_label_1
_geom_bond_atom_site_label_2
_geom_bond_distance
_ccdc_geom_bond_type
O5    Zn1   2.008878 S    
O21   H9    0.991475 S    
O26   H14   0.989212 S    
O19   H7    0.989482 S    
C15   O13   1.382087 S    
C19   C23   1.406119 A    
C28   O24   1.377023 S    
O23   H11   0.990950 S    
Zn1   N4    1.970782 S    
O25   H13   0.989719 S    
C11   C17   1.405181 A    
C5    O9    1.349699 S    
Zn2   N3    1.970782 S    
C7    N1    1.367350 A    
C8    N2    1.363320 A    
C19   C21   1.410794 A    
C22   C26   1.408257 A    
O17   H5    0.989261 S    
C25   O21   1.382675 S    
C38   O26   1.385659 S    
C7    C23   1.403323 A    
C8    C24   1.411861 A    
C5    C21   1.405828 A    
C20   C24   1.416092 A    
O7    Zn1   1.998389 S    
C28   C37   1.407723 A    
C10   C18   1.397794 A    
C40   O28   1.377326 S    
N1    C17   1.435539 S    
C34   C36   1.411518 A    
C14   O16   1.382315 S    
C11   O17   1.381324 S    
C6    O10   1.350319 S    
C31   C37   1.419122 A    
O3    C2    1.262644 A    
C5    N1    1.367081 A    
C12   C18   1.400962 A    
N3    N4    1.191627 T    
C6    N2    1.360896 A    
O4    Zn2   1.962984 S    
O2    C2    1.261376 A    
O5    C3    1.277425 A    
C31   C34   1.422150 A    
C9    C13   1.401782 A    
C26   O22   1.383898 S    
O16   H4    0.990090 S    
C12   C16   1.411832 A    
C4    C30   1.462532 S    
O8    Zn2   1.998391 S    
O28   H16   0.988227 S    
C31   C35   1.415286 A    
C33   C35   1.416530 A    
C33   C39   1.419158 A    
C11   C15   1.415058 A    
C34   C40   1.413989 A    
O14   H2    0.990088 S    
C13   C29   1.420356 A    
C32   C38   1.421394 A    
O20   H8    0.989592 S    
C25   C40   1.412422 A    
C26   C39   1.398031 A    
C27   C38   1.411371 A    
O24   H12   0.990609 S    
C32   C36   1.412708 A    
O6    C4    1.277032 A    
C10   O20   1.383380 S    
C20   C35   1.415056 A    
C13   O15   1.380765 S    
C32   C33   1.421030 A    
C10   C14   1.404812 A    
C27   O23   1.381197 S    
O1    C1    1.261308 A    
C3    C29   1.474012 S    
C12   O18   1.380990 S    
O1    Zn1   1.959957 S    
O6    Zn2   2.008876 S    
C8    O12   1.348595 S    
C16   C30   1.407464 A    
C14   C30   1.419733 A    
C16   O14   1.382721 S    
O4    C1    1.262689 A    
O3    Zn1   1.962983 S    
C23   C27   1.413454 A    
C1    C41   1.370724 S    
C20   C22   1.416105 A    
O18   H6    0.990307 S    
C39   O27   1.377197 S    
C41   C42   1.168085 T    
C9    O19   1.383860 S    
C2    C42   1.370751 S    
C21   C25   1.408012 A    
O13   H1    0.990319 S    
O2    Zn2   1.959956 S    
O7    C4    1.277234 A    
N2    C18   1.428003 S    
O8    C3    1.283668 A    
O22   H10   0.991253 S    
C24   C28   1.416691 A    
O15   H3    0.991390 S    
C15   C29   1.410115 A    
C9    C17   1.401131 A    
C19   C36   1.410387 A    
C37   O25   1.385767 S    
O27   H15   0.990959 S    
C6    C22   1.400939 A    
C7    O11   1.349658 S    
