data_mof_unit_17159.cif
_audit_creation_date              2012-12-10T17:02:15-0500
_audit_creation_method            fapswitch 2.2
_symmetry_space_group_name_H-M    P1
_symmetry_Int_Tables_number       1
_space_group_crystal_system       triclinic
_cell_length_a                    10.622396
_cell_length_b                    10.667966
_cell_length_c                    10.06787
_cell_angle_alpha                 89.415955
_cell_angle_beta                  90.225574
_cell_angle_gamma                 90.371454
_cell_volume                      1140.79278299

loop_
_atom_site_label
_atom_site_type_symbol
_atom_type_description
_atom_site_fract_x
_atom_site_fract_y
_atom_site_fract_z
_atom_type_partial_charge
C1    C     C_R   0.486443 0.263119 0.500789 0.890079
C2    C     C_R   0.066853 0.620039 0.533355 0.090545
C3    C     C_R   0.128451 0.508557 0.498835 -0.076883
C4    C     C_R   0.063685 0.401398 0.459809 -0.208787
C5    C     C_R   0.934856 0.400792 0.461338 -0.204720
C6    C     C_R   0.871717 0.508409 0.498863 -0.083882
C7    C     C_2   0.454693 0.932271 0.394327 -0.177172
C8    C     C_2   0.508988 0.870663 0.494990 -0.372298
C9    C     C_2   0.458348 0.067223 0.392586 -0.213456
C10   C     C_2   0.442356 0.134654 0.503222 0.026050
C11   C     C_2   0.539525 0.593403 0.926928 0.018233
C12   C     C_R   0.260691 0.501610 0.499731 0.849291
C13   C     C_2   0.514849 0.599391 0.073677 -0.217683
C14   C     C_R   0.502976 0.737646 0.499049 0.908695
C15   C     C_R   0.739345 0.501349 0.499950 0.867919
C16   C     C_R   0.132863 0.730930 0.566709 -0.176726
C17   C     C_R   0.067641 0.840468 0.595122 -0.150675
C18   C     C_R   0.936738 0.841864 0.589165 -0.123414
C19   C     C_R   0.870499 0.733166 0.556448 -0.100423
C20   C     C_R   0.934957 0.620622 0.530666 0.089430
H1    H     H_    0.113181 0.317882 0.429862 0.143454
H2    H     H_    0.446148 0.433805 0.897208 0.150431
H3    H     H_    0.520511 0.689999 0.121461 0.158965
H4    H     H_    0.508349 0.415646 0.102530 0.168065
H5    H     H_    0.234589 0.734259 0.569785 0.136100
H6    H     H_    0.118676 0.924805 0.620484 0.149256
H7    H     H_    0.886410 0.927472 0.609352 0.134609
H8    H     H_    0.769116 0.738319 0.550012 0.146332
H9    H     H_    0.884097 0.316314 0.433946 0.141911
H10   H     H_    0.414534 0.884125 0.309323 0.177185
H11   H     H_    0.554098 0.918672 0.577347 0.156074
H12   H     H_    0.490998 0.110146 0.300541 0.161191
N1    N     N_2   0.501340 0.501330 0.852150 -0.195581
N2    N     N_2   0.501380 0.501360 0.147810 -0.182536
O1    O     O_R   0.499980 0.319060 0.613040 -0.615858
O2    O     O_R   0.500020 0.319100 0.386900 -0.634558
O3    O     O_R   0.316750 0.499980 0.613090 -0.628538
O4    O     O_R   0.316790 0.500020 0.386950 -0.601283
O5    O     O_R   0.499980 0.680900 0.613100 -0.600205
O6    O     O_R   0.500020 0.680940 0.386960 -0.613999
O7    O     O_R   0.683210 0.499980 0.613050 -0.549598
O8    O     O_R   0.683250 0.500020 0.386910 -0.609080
Zn1   Zn    Zn3+2 0.499970 0.499970 0.650990 0.972259
Zn2   Zn    Zn3+2 0.500030 0.500030 0.349010 0.945723
C21   C     C_3   0.374217 0.085997 0.627553 -0.397702
C22   C     C_3   0.254384 0.159713 0.654996 -0.886626
H13   H     H_    0.275466 0.259532 0.675138 0.284950
H14   H     H_    0.189188 0.152933 0.568969 0.248684
H15   H     H_    0.206582 0.119508 0.743742 0.245470
H16   H     H_    0.343535 0.987056 0.619073 0.224796
H17   H     H_    0.438451 0.092302 0.714635 0.206628
C23   C     C_2   0.611304 0.700077 0.871526 0.495446
H18   H     H_    0.596601 0.793610 0.909744 -0.008499
O9    O     O_2   0.694086 0.683760 0.790421 -0.557588

loop_
_geom_bond_atom_site_label_1
_geom_bond_atom_site_label_2
_ccdc_geom_bond_type
O3    Zn1   S    
O5    Zn1   S    
O4    Zn2   S    
C4    H1    S    
C2    C16   A    
O1    Zn1   S    
C9    C10   D    
C15   O8    A    
C11   C23   S    
C19   C20   A    
C11   N1    D    
C6    C20   A    
C10   C21   S    
C2    C3    A    
C6    C15   S    
C13   N2    D    
C7    H10   S    
C21   C22   S    
C19   H8    S    
O7    Zn1   S    
C22   H15   S    
C1    O1    A    
O8    Zn2   S    
C21   H16   S    
C17   H6    S    
C23   O9    D    
C17   C18   A    
C5    H9    S    
C12   O4    A    
C5    C6    A    
C22   H14   S    
O2    Zn2   S    
C11   C13   S    
C7    C8    D    
C1    C10   S    
C21   H17   S    
C15   O7    A    
C14   O6    A    
C3    C4    A    
N1    Zn1   S    
O6    Zn2   S    
N2    Zn2   S    
C23   H18   S    
C13   H3    S    
C18   C19   A    
C12   O3    A    
C16   H5    S    
C7    C9    S    
H2    N1    S    
C22   H13   S    
C16   C17   A    
C8    C14   S    
C3    C12   S    
C9    H12   S    
C14   O5    A    
C8    H11   S    
C2    C20   A    
H4    N2    S    
C18   H7    S    
C1    O2    A    
C4    C5    A    
