data_mof_unit_42791.cif
_audit_creation_date              2012-12-10T18:47:44-0500
_audit_creation_method            fapswitch 2.2
_symmetry_space_group_name_H-M    P1
_symmetry_Int_Tables_number       1
_space_group_crystal_system       triclinic
_cell_length_a                    9.846927
_cell_length_b                    10.716735
_cell_length_c                    15.521505
_cell_angle_alpha                 90.079719
_cell_angle_beta                  67.846845
_cell_angle_gamma                 89.988869
_cell_volume                      1517.02071227

loop_
_atom_site_label
_atom_site_type_symbol
_atom_type_description
_atom_site_fract_x
_atom_site_fract_y
_atom_site_fract_z
_atom_type_partial_charge
C1    C     C_R   0.500001 0.740115 0.500050 0.869029
C2    C     C_R   0.391047 0.936050 0.480467 -0.196253
C3    C     C_R   0.500075 0.127447 0.499880 -0.013946
C4    C     C_R   0.499991 0.872568 0.500031 -0.015277
C5    C     C_R   0.963511 0.424891 0.440357 -0.086867
C6    C     C_R   0.036526 0.575180 0.559580 -0.084052
C7    C     C_R   0.107325 0.424866 0.440408 -0.074565
C8    C     C_R   0.892725 0.575222 0.559515 -0.070539
C9    C     C_R   0.408478 0.498153 0.675970 0.872803
C10   C     C_R   0.591405 0.498607 0.324001 0.873091
C11   C     C_R   0.350807 0.488604 0.777085 -0.058369
C12   C     C_R   0.500019 0.259888 0.499919 0.868879
C13   C     C_R   0.646060 0.478841 0.223758 -0.056865
C14   C     C_R   0.158205 0.516310 0.928107 -0.218128
C15   C     C_R   0.815937 0.382971 0.083556 -0.223644
C16   C     C_R   0.204725 0.516896 0.831523 -0.200472
C17   C     C_R   0.781961 0.422765 0.174990 -0.209361
C18   C     C_R   0.447145 0.452756 0.819194 -0.267229
C19   C     C_R   0.547239 0.497576 0.180369 -0.261763
C20   C     C_R   0.403011 0.450229 0.915784 0.095969
C21   C     C_R   0.572681 0.447739 0.092715 0.095977
C22   C     C_R   0.257190 0.486435 0.970536 0.177790
C23   C     C_R   0.315365 0.480963 0.107784 -0.232833
C24   C     C_R   0.712041 0.394960 0.042063 0.176636
C25   C     C_R   0.503784 0.422850 0.958629 0.067496
C26   C     C_R   0.463636 0.451527 0.053949 0.070131
C27   C     C_R   0.643536 0.369333 0.909463 -0.233123
C28   C     C_R   0.213516 0.496192 0.066575 -0.247121
C29   C     C_R   0.744890 0.354010 0.951288 -0.241958
C30   C     C_R   0.608979 0.936121 0.519519 -0.192624
C31   C     C_R   0.391113 0.063899 0.480364 -0.191601
C32   C     C_R   0.609033 0.063969 0.519429 -0.196247
H1    H     H_    0.101641 0.520819 0.109685 0.151193
H2    H     H_    0.675832 0.334302 0.839388 0.148435
H3    H     H_    0.693171 0.887439 0.535395 0.153423
H4    H     H_    0.306931 0.112587 0.464480 0.153750
H5    H     H_    0.693269 0.112709 0.535238 0.156494
H6    H     H_    0.306801 0.887309 0.464670 0.157229
H7    H     H_    0.937375 0.364885 0.392652 0.122986
H8    H     H_    0.062702 0.635264 0.607222 0.123506
H9    H     H_    0.190078 0.364733 0.392746 0.127665
H10   H     H_    0.810024 0.635471 0.607086 0.127643
H11   H     H_    0.850287 0.311908 0.911849 0.152533
H12   H     H_    0.448721 0.549886 0.217425 0.154416
H13   H     H_    0.559321 0.433876 0.775025 0.158397
H14   H     H_    0.859108 0.406056 0.208301 0.150981
H15   H     H_    0.128457 0.543765 0.799606 0.155694
H16   H     H_    0.046643 0.543835 0.969418 0.151375
H17   H     H_    0.921366 0.339638 0.046302 0.147359
H18   H     H_    0.274121 0.489881 0.182534 0.147397
N1    N     N_R   0.142780 0.500030 0.500020 -0.076383
N2    N     N_R   0.857220 0.499970 0.499980 -0.076635
O1    O     O_R   0.385370 0.683250 0.500010 -0.624758
O2    O     O_R   0.614630 0.316750 0.499990 -0.625680
O3    O     O_R   0.614700 0.683220 0.500000 -0.622133
O4    O     O_R   0.385300 0.316780 0.500000 -0.622608
O5    O     O_R   0.319830 0.500020 0.632250 -0.615040
O6    O     O_R   0.680170 0.499980 0.367750 -0.615019
O7    O     O_R   0.549160 0.499990 0.632240 -0.620842
O8    O     O_R   0.450840 0.500010 0.367760 -0.618523
Zn1   Zn    Zn3+2 0.346870 0.500020 0.500000 0.941698
Zn2   Zn    Zn3+2 0.653130 0.499980 0.500000 0.940480

loop_
_geom_bond_atom_site_label_1
_geom_bond_atom_site_label_2
_ccdc_geom_bond_type
O6    Zn2   S    
C2    C4    A    
C21   C26   A    
C18   H13   S    
C11   C18   A    
O5    Zn1   S    
C6    N1    A    
C27   C29   A    
C11   C16   A    
C2    H6    S    
C9    O7    A    
C10   O8    A    
N1    Zn1   S    
C13   C17   A    
C1    C4    S    
C1    O1    A    
C14   C22   A    
C15   H17   S    
C1    O3    A    
C17   H14   S    
C7    N1    A    
C5    N2    A    
C22   C28   A    
C23   C28   A    
C29   H11   S    
C3    C31   A    
C9    C11   S    
C12   O4    A    
C30   H3    S    
C14   H16   S    
C16   H15   S    
C15   C24   A    
C10   O6    A    
C20   C22   A    
C28   H1    S    
C18   C20   A    
C7    H9    S    
C27   H2    S    
C3    C32   A    
C14   C16   A    
C21   C24   A    
C4    C30   A    
C25   C27   A    
C20   C25   A    
C13   C19   A    
C30   C32   A    
O3    Zn2   S    
C32   H5    S    
C24   C29   A    
C6    H8    S    
C19   H12   S    
C9    O5    A    
C5    C7    A    
C23   C26   A    
C15   C17   A    
C5    H7    S    
C8    N2    A    
O4    Zn1   S    
C2    C31   A    
C23   H18   S    
C6    C8    A    
C3    C12   S    
O2    Zn2   S    
C19   C21   A    
C25   C26   A    
C31   H4    S    
O1    Zn1   S    
N2    Zn2   S    
C12   O2    A    
C8    H10   S    
O8    Zn1   S    
O7    Zn2   S    
C10   C13   S    
