data_mof_unit_38404.cif
_audit_creation_date              2012-12-10T18:00:44-0500
_audit_creation_method            fapswitch 2.2
_symmetry_space_group_name_H-M    P1
_symmetry_Int_Tables_number       1
_space_group_crystal_system       triclinic
_cell_length_a                    15.870287
_cell_length_b                    10.832786
_cell_length_c                    9.520426
_cell_angle_alpha                 90.006336
_cell_angle_beta                  89.992698
_cell_angle_gamma                 90.093019
_cell_volume                      1636.74396275

loop_
_atom_site_label
_atom_site_type_symbol
_atom_type_description
_atom_site_fract_x
_atom_site_fract_y
_atom_site_fract_z
_atom_type_partial_charge
C1    C     C_R   0.499940 0.262068 0.499958 0.786168
C2    C     C_R   0.500060 0.737931 0.500042 0.786167
C3    C     C_R   0.499926 0.936119 0.372364 -0.184753
C4    C     C_R   0.500074 0.063881 0.627636 -0.184753
C5    C     C_R   0.500071 0.871781 0.500023 -0.016363
C6    C     C_R   0.499929 0.128219 0.499977 -0.016363
C7    C     C_R   0.447325 0.423713 0.074375 -0.021541
C8    C     C_R   0.552675 0.576287 0.925625 -0.021541
C9    C     C_R   0.447346 0.423745 0.925562 -0.022715
C10   C     C_R   0.552654 0.576255 0.074438 -0.022715
C11   C     C_R   0.339768 0.500163 0.499988 0.826959
C12   C     C_R   0.660232 0.499837 0.500012 0.826959
C13   C     C_3   0.972427 0.411037 0.589384 -0.305147
C14   C     C_3   0.027573 0.588963 0.410616 -0.305148
C15   C     C_3   0.028190 0.391813 0.458502 0.541589
C16   C     C_3   0.971810 0.608187 0.541498 0.541590
C17   C     C_1   0.250067 0.500983 0.500060 -0.176600
C18   C     C_1   0.749933 0.499017 0.499940 -0.176600
C19   C     C_3   0.027769 0.523503 0.632160 -0.299916
C20   C     C_3   0.972231 0.476496 0.367840 -0.299917
C21   C     C_3   0.082872 0.502144 0.500481 0.072149
C22   C     C_3   0.917128 0.497856 0.499519 0.072149
C23   C     C_1   0.174532 0.501694 0.500227 0.003732
C24   C     C_1   0.825468 0.498306 0.499773 0.003732
C25   C     C_R   0.499832 0.063825 0.372341 -0.183885
C26   C     C_R   0.500167 0.936175 0.627658 -0.183885
Cu1   Cu    Cu3+1 0.500000 0.500020 0.640660 0.947350
Cu2   Cu    Cu3+1 0.500000 0.499980 0.359340 0.947349
H1    H     H_    0.948679 0.337860 0.660834 0.148847
H2    H     H_    0.051321 0.662139 0.339166 0.148846
H3    H     H_    0.948330 0.455803 0.260811 0.150399
H4    H     H_    0.051670 0.544197 0.739189 0.150399
H5    H     H_    0.499690 0.111830 0.272532 0.149163
H6    H     H_    0.500310 0.888169 0.727468 0.149163
H7    H     H_    0.499873 0.888070 0.272570 0.149176
H8    H     H_    0.500127 0.111930 0.727430 0.149176
H9    H     H_    0.405189 0.362496 0.130416 0.123741
H10   H     H_    0.594811 0.637504 0.869584 0.123741
H11   H     H_    0.405223 0.362551 0.869464 0.121873
H12   H     H_    0.594777 0.637449 0.130535 0.121873
N1    N     N_R   0.500020 0.500030 0.852070 -0.158585
N2    N     N_R   0.499980 0.499970 0.147930 -0.158585
O1    O     O_R   0.500000 0.319660 0.618740 -0.589796
O2    O     O_R   0.500000 0.680340 0.381260 -0.589796
O3    O     O_R   0.499990 0.319630 0.381170 -0.589546
O4    O     O_R   0.500010 0.680370 0.618830 -0.589546
O5    O     O_R   0.379080 0.500000 0.618760 -0.577674
O6    O     O_R   0.620920 0.500000 0.381240 -0.577674
O7    O     O_R   0.379080 0.499970 0.381190 -0.573640
O8    O     O_R   0.620920 0.500030 0.618810 -0.573640
O9    O     O_3   0.064705 0.279531 0.414874 -0.574511
C27   C     C_3   0.000548 0.193179 0.385389 0.065932
H13   H     H_    0.958593 0.226965 0.299984 0.139536
H14   H     H_    0.962366 0.173624 0.480882 0.137390
C28   C     C_3   0.040540 0.072958 0.337103 -0.788798
H15   H     H_    0.083490 0.037259 0.419687 0.247364
H16   H     H_    0.990746 0.003137 0.316403 0.202553
H17   H     H_    0.077062 0.088531 0.239155 0.249553
O10   O     O_3   0.935295 0.720469 0.585126 -0.574510
C29   C     C_3   0.999452 0.806821 0.614609 0.065930
H18   H     H_    0.037632 0.826378 0.519115 0.137390
H19   H     H_    0.041409 0.773035 0.700012 0.139536
C30   C     C_3   0.959460 0.927042 0.662898 -0.788798
H20   H     H_    0.922940 0.911467 0.760847 0.249553
H21   H     H_    0.009255 0.996862 0.683597 0.202553
H22   H     H_    0.916509 0.962741 0.580317 0.247365

loop_
_geom_bond_atom_site_label_1
_geom_bond_atom_site_label_2
_ccdc_geom_bond_type
C12   O8    A    
C28   H15   S    
C30   H21   S    
C11   O7    A    
C15   O9    S    
C10   N2    A    
Cu2   O7    S    
Cu1   N1    S    
C11   O5    A    
Cu1   O8    S    
C9    H11   S    
C12   O6    A    
C27   H14   S    
C28   H16   S    
Cu2   O2    S    
C7    H9    S    
C30   H22   S    
O10   C29   S    
C4    H8    S    
C2    O4    A    
C8    N1    A    
C1    O3    A    
C17   C23   T    
C8    H10   S    
C14   H2    S    
C29   C30   S    
C18   C24   T    
C19   H4    S    
C14   C21   S    
Cu2   N2    S    
C19   C21   S    
C27   C28   S    
C20   C22   S    
C13   C22   S    
C14   C16   S    
C21   C23   S    
C13   C15   S    
C16   C19   S    
C15   C20   S    
Cu2   O3    S    
C22   C24   S    
C4    C26   A    
C28   H17   S    
C6    C25   A    
C25   H5    S    
C13   C19   S    
C3    H7    S    
C5    C26   A    
C2    C5    S    
C20   H3    S    
Cu1   O1    S    
C15   C21   S    
C3    C25   A    
C27   H13   S    
Cu1   O4    S    
C14   C20   S    
C29   H19   S    
C4    C6    A    
C7    N2    A    
Cu1   O5    S    
Cu1   Cu2   S    
C7    C9    A    
C11   C17   S    
C10   H12   S    
C16   C22   S    
C1    C6    S    
C29   H18   S    
C26   H6    S    
C9    N1    A    
C1    O1    A    
C8    C10   A    
Cu2   O6    S    
O9    C27   S    
C13   H1    S    
C2    O2    A    
C30   H20   S    
C3    C5    A    
C16   O10   S    
C12   C18   S    
