data_mof_unit_68253.cif
_audit_creation_date              2013-03-05T16:10:59-0500
_audit_creation_method            fapswitch 2.2
_symmetry_space_group_name_H-M    P1
_symmetry_Int_Tables_number       1
_space_group_crystal_system       triclinic
_cell_length_a                    16.961265
_cell_length_b                    27.739093
_cell_length_c                    8.72345
_cell_angle_alpha                 89.927126
_cell_angle_beta                  105.868422
_cell_angle_gamma                 90.037696
_cell_volume                      3947.88760971

loop_
_atom_site_label
_atom_site_type_symbol
_atom_site_description
_atom_site_fract_x
_atom_site_fract_y
_atom_site_fract_z
_atom_type_partial_charge
P1    P     P_3+3 0.171820 0.553000 0.158080 0.558826
P2    P     P_3+3 0.171820 0.447000 0.658080 0.543532
P3    P     P_3+3 0.671820 0.053000 0.158080 0.548845
P4    P     P_3+3 0.671820 0.947000 0.658080 0.509580
O1    O     O_2   0.163830 0.569270 0.980510 -0.351230
O2    O     O_2   0.163830 0.430730 0.480510 -0.338148
O3    O     O_2   0.663830 0.069270 0.980510 -0.377904
O4    O     O_2   0.663830 0.930730 0.480510 -0.356409
O5    O     O_3   0.095420 0.524330 0.188510 -0.334713
O6    O     O_3   0.095420 0.475670 0.688510 -0.335764
O7    O     O_3   0.595420 0.024330 0.188510 -0.333500
O8    O     O_3   0.595420 0.975670 0.688510 -0.357596
O9    O     O_3   0.028940 0.612400 0.656050 -0.345406
O10   O     O_3   0.028940 0.387600 0.156050 -0.357470
O11   O     O_3   0.528940 0.112400 0.656050 -0.361694
O12   O     O_3   0.528940 0.887600 0.156050 -0.350280
O13   O     O_2   0.165961 0.650023 0.848569 -0.303882
O14   O     O_2   0.168803 0.351763 0.343323 -0.284089
O15   O     O_2   0.665562 0.151298 0.842959 -0.312159
O16   O     O_2   0.670290 0.852127 0.339061 -0.328570
O17   O     O_3   0.255871 0.513060 0.212103 -0.593256
O18   O     O_3   0.256502 0.486683 0.711816 -0.614590
O19   O     O_3   0.755465 0.013287 0.221718 -0.597507
O20   O     O_3   0.763904 0.979872 0.716558 -0.610478
O21   O     O_3   0.070910 0.712535 0.661603 -0.579771
O22   O     O_3   0.070319 0.287255 0.176871 -0.538668
O23   O     O_3   0.564369 0.214139 0.667714 -0.528764
O24   O     O_3   0.570422 0.787060 0.178585 -0.534672
H1    H     H_    0.970520 0.693269 0.737846 0.196733
H2    H     H_    0.966718 0.307611 0.239286 0.190750
H3    H     H_    0.465838 0.194398 0.748738 0.171915
H4    H     H_    0.466247 0.807115 0.239165 0.191301
C1    C     C_3   0.948268 0.763258 0.618468 0.076248
C2    C     C_3   0.947639 0.236423 0.127348 0.007517
C3    C     C_3   0.438630 0.262419 0.618214 -0.023173
C4    C     C_3   0.448168 0.735788 0.127546 0.027255
P5    P     P_3+3 0.829210 0.554130 0.532500 0.513521
P6    P     P_3+3 0.829210 0.445870 0.032500 0.565833
P7    P     P_3+3 0.329210 0.054130 0.532500 0.517601
P8    P     P_3+3 0.329210 0.945870 0.032500 0.517161
P9    P     P_3+3 0.897645 0.657608 0.022474 0.650521
P10   P     P_3+3 0.894637 0.344110 0.519890 0.542205
P11   P     P_3+3 0.395552 0.156680 0.018065 0.604093
P12   P     P_3+3 0.394179 0.844156 0.519705 0.540995
O25   O     O_2   0.837400 0.570350 0.710350 -0.303226
O26   O     O_2   0.837400 0.429650 0.210350 -0.359397
O27   O     O_2   0.337400 0.070350 0.710350 -0.350152
O28   O     O_2   0.337400 0.929650 0.210350 -0.346601
O29   O     O_3   0.972820 0.612580 0.035550 -0.237667
O30   O     O_3   0.972820 0.387420 0.535550 -0.322725
O31   O     O_3   0.472820 0.112580 0.035550 -0.286054
O32   O     O_3   0.472820 0.887420 0.535550 -0.319270
O33   O     O_2   0.836029 0.647349 0.859594 -0.286971
O34   O     O_2   0.834464 0.353251 0.354753 -0.266567
O35   O     O_2   0.337355 0.148396 0.850314 -0.293519
O36   O     O_2   0.333774 0.853225 0.354696 -0.268864
O37   O     O_3   0.735917 0.522915 0.474110 -0.620323
O38   O     O_3   0.735213 0.476652 0.971434 -0.599334
O39   O     O_3   0.236587 0.022365 0.475117 -0.604287
O40   O     O_3   0.235944 0.977067 0.973313 -0.609687
O41   O     O_3   0.930363 0.716562 0.994034 -0.538986
O42   O     O_3   0.927582 0.285019 0.498397 -0.551601
O43   O     O_3   0.429704 0.216448 0.004309 -0.550970
O44   O     O_3   0.426912 0.785051 0.498042 -0.550994
C5    C     C_3   0.006191 0.733497 0.095192 0.792428
C6    C     C_3   0.004064 0.270588 0.601895 0.722255
C7    C     C_3   0.506316 0.231056 0.109189 0.822316
C8    C     C_3   0.503532 0.770729 0.601095 0.749346
C9    C     C_3   0.002209 0.789191 0.089915 -0.847151
C10   C     C_3   0.004537 0.214665 0.600267 -0.617971
C11   C     C_3   0.506674 0.286993 0.110254 -0.857436
C12   C     C_3   0.504443 0.714839 0.598393 -0.675368
H5    H     H_    0.060261 0.805607 0.079697 0.287373
H6    H     H_    0.062556 0.199895 0.584453 0.260211
H7    H     H_    0.550548 0.302067 0.049517 0.299028
H8    H     H_    0.563037 0.700343 0.584595 0.260387
H9    H     H_    0.951468 0.801722 0.988598 0.290518
H10   H     H_    0.952721 0.200590 0.503949 0.255010
H11   H     H_    0.444534 0.301425 0.052609 0.249205
H12   H     H_    0.453397 0.700798 0.500495 0.257039
C13   C     C_3   0.727213 0.514602 0.071804 0.278716
C14   C     C_3   0.731988 0.482133 0.566009 0.197021
C15   C     C_3   0.232003 0.018012 0.064173 0.194432
C16   C     C_3   0.233626 0.981835 0.568667 0.182095
H13   H     H_    0.763228 0.508818 0.197390 0.110049
H14   H     H_    0.773185 0.484537 0.689095 0.092879
H15   H     H_    0.274080 0.016123 0.186612 0.079755
H16   H     H_    0.276428 0.984092 0.690290 0.082575
C17   C     C_3   0.635536 0.518627 0.064440 -0.699564
C18   C     C_3   0.642359 0.478200 0.574632 -0.566955
C19   C     C_3   0.142843 0.021338 0.075686 -0.540316
C20   C     C_3   0.144982 0.978517 0.582788 -0.516444
H17   H     H_    0.617792 0.487032 0.126071 0.255083
H18   H     H_    0.629763 0.508193 0.648875 0.189373
H19   H     H_    0.131320 0.991136 0.150528 0.221301
H20   H     H_    0.134465 0.008127 0.660519 0.221393
H21   H     H_    0.598382 0.517244 0.937721 0.258293
H22   H     H_    0.600292 0.482795 0.452896 0.270258
H23   H     H_    0.100087 0.016665 0.954795 0.273623
H24   H     H_    0.102013 0.984305 0.463102 0.280156
Ba1   Ba    Ba6+2 0.000400 0.534870 0.845190 1.728764
Ba2   Ba    Ba6+2 0.000400 0.465130 0.345190 1.731214
Ba3   Ba    Ba6+2 0.500400 0.034870 0.845190 1.707947
Ba4   Ba    Ba6+2 0.500400 0.965130 0.345190 1.690910
C21   C     C_3   0.287244 0.498775 0.085397 0.103291
C22   C     C_3   0.291418 0.498605 0.587133 0.137915
C23   C     C_3   0.780746 0.990757 0.099219 0.100484
C24   C     C_3   0.769773 0.018154 0.615141 0.028201
H25   H     H_    0.240511 0.500777 0.969682 0.108229
H26   H     H_    0.245511 0.497368 0.470400 0.131621
H27   H     H_    0.734622 0.993793 0.982089 0.075399
H28   H     H_    0.719023 0.018163 0.503479 0.056212
C25   C     C_3   0.364279 0.528544 0.081849 0.671930
C26   C     C_3   0.366659 0.466461 0.587415 0.598853
C27   C     C_3   0.863852 0.011747 0.089544 0.702452
C28   C     C_3   0.851843 0.013632 0.569323 0.737203
H29   H     H_    0.392034 0.513247 0.992200 0.112799
H30   H     H_    0.403722 0.484038 0.516955 0.140563
H31   H     H_    0.875729 0.998515 0.979161 0.110694
H32   H     H_    0.845834 0.983399 0.483859 0.077179
O45   O     O_3   0.904940 0.476110 0.001150 -0.263587
O46   O     O_3   0.904940 0.523890 0.501150 -0.334004
O47   O     O_3   0.404940 0.976110 0.001150 -0.323512
O48   O     O_3   0.404940 0.023890 0.501150 -0.327723
P13   P     P_3+3 0.108889 0.345990 0.175625 0.553540
P14   P     P_3+3 0.109920 0.653387 0.676565 0.562304
P15   P     P_3+3 0.608503 0.845759 0.173396 0.533369
P16   P     P_3+3 0.606106 0.155772 0.673965 0.544700
C29   C     C_3   0.985242 0.711536 0.635871 0.207672
C30   C     C_3   0.984158 0.288277 0.142224 0.266909
C31   C     C_3   0.478831 0.211613 0.643679 0.341944
C32   C     C_3   0.484216 0.787800 0.142689 0.269569
H33   H     H_    0.955607 0.690245 0.527698 0.120600
H34   H     H_    0.956613 0.308613 0.030575 0.076538
H35   H     H_    0.449379 0.188933 0.538868 0.102288
H36   H     H_    0.456758 0.808106 0.030940 0.078182
H37   H     H_    0.988939 0.805087 0.196164 0.224419
H38   H     H_    0.995728 0.198336 0.709938 0.237432
H39   H     H_    0.524868 0.303158 0.230880 0.236499
H40   H     H_    0.494502 0.698275 0.706823 0.232049
C33   C     C_2   0.866646 0.380943 0.798496 0.019838
C34   C     C_2   0.868690 0.620546 0.301838 0.162809
C35   C     C_2   0.365744 0.880966 0.797848 0.016451
C36   C     C_2   0.362882 0.116865 0.289486 0.095901
C37   C     C_R   0.160603 0.607120 0.434402 -0.391561
C38   C     C_R   0.152859 0.389903 0.921825 -0.515406
C39   C     C_R   0.649514 0.111282 0.418710 -0.409623
C40   C     C_R   0.647702 0.887982 0.911886 -0.477815
C41   C     C_2   0.760798 0.354659 0.925410 -0.291885
C42   C     C_2   0.756707 0.643782 0.417102 -0.306038
C43   C     C_2   0.260874 0.854377 0.926763 -0.295768
C44   C     C_2   0.260099 0.144879 0.421667 -0.293230
C45   C     C_2   0.821311 0.388331 0.920156 0.151984
C46   C     C_2   0.820284 0.611637 0.418133 0.117624
C47   C     C_2   0.320825 0.888290 0.920055 0.196178
C48   C     C_2   0.319563 0.110768 0.415004 0.146667
C49   C     C_2   0.838997 0.348454 0.678442 0.047589
C50   C     C_2   0.841953 0.653372 0.181535 0.147073
C51   C     C_2   0.338502 0.848247 0.678611 0.067653
C52   C     C_2   0.337173 0.150615 0.172438 0.143329
C53   C     C_3   0.762915 0.322262 0.670803 -0.167120
C54   C     C_3   0.764112 0.678173 0.168167 -0.295398
C55   C     C_3   0.262844 0.821718 0.672160 -0.158221
C56   C     C_3   0.262286 0.177710 0.166517 -0.237647
C57   C     C_3   0.750867 0.312573 0.828232 0.296405
C58   C     C_3   0.746908 0.686357 0.321864 0.217280
C59   C     C_3   0.250761 0.812230 0.829723 0.171677
C60   C     C_3   0.249943 0.186882 0.323850 0.204447
C61   C     C_2   0.740716 0.279496 0.555550 0.528044
C62   C     C_2   0.742548 0.721146 0.053561 0.568721
C63   C     C_2   0.240460 0.778966 0.557091 0.523491
C64   C     C_2   0.241967 0.221090 0.053581 0.575197
C65   C     C_2   0.236887 0.732595 0.606496 -0.183480
C66   C     C_2   0.237167 0.267092 0.104837 -0.139606
C67   C     C_2   0.736259 0.233244 0.604669 -0.171865
C68   C     C_2   0.737706 0.767285 0.103025 -0.126542
C69   C     C_R   0.247820 0.687018 0.358104 0.388126
C70   C     C_R   0.256105 0.315034 0.866559 0.303100
C71   C     C_R   0.752779 0.185946 0.363221 0.393221
C72   C     C_R   0.755998 0.815179 0.863299 0.371302
C73   C     C_R   0.217377 0.689880 0.499302 -0.134941
C74   C     C_R   0.219025 0.310111 0.999044 -0.028681
C75   C     C_R   0.716161 0.190928 0.496352 -0.125273
C76   C     C_R   0.717982 0.809740 0.994746 -0.032664
C77   C     C_R   0.229657 0.644876 0.253049 -0.156895
C78   C     C_R   0.237068 0.356995 0.760230 -0.173434
C79   C     C_R   0.734567 0.143704 0.257716 -0.145020
C80   C     C_R   0.736901 0.857206 0.756469 -0.157576
C81   C     C_R   0.188109 0.607185 0.286661 0.292156
C82   C     C_R   0.187820 0.392213 0.783913 0.294724
C83   C     C_R   0.685641 0.108344 0.282099 0.285382
C84   C     C_R   0.684268 0.891018 0.776269 0.317239
C85   C     C_R   0.172373 0.647278 0.535507 0.267074
C86   C     C_R   0.166475 0.350398 0.025299 0.221235
C87   C     C_R   0.664166 0.150643 0.523749 0.244682
C88   C     C_R   0.663496 0.849297 0.018461 0.209110
H41   H     H_    0.720426 0.360553 0.000988 0.226820
H42   H     H_    0.714513 0.636651 0.488152 0.201400
H43   H     H_    0.221076 0.860106 0.003570 0.217609
H44   H     H_    0.221673 0.139885 0.501548 0.222194
H45   H     H_    0.250133 0.645476 0.146950 0.245054
H46   H     H_    0.263468 0.358385 0.661705 0.234847
H47   H     H_    0.761807 0.141870 0.159750 0.237254
H48   H     H_    0.767656 0.860875 0.663527 0.199819
H49   H     H_    0.127647 0.576201 0.460662 0.182881
H50   H     H_    0.118719 0.420368 0.946551 0.211448
H51   H     H_    0.612043 0.081865 0.439517 0.189193
H52   H     H_    0.613776 0.918422 0.937051 0.207259
H53   H     H_    0.246956 0.725065 0.732162 0.209143
H54   H     H_    0.245023 0.274008 0.230269 0.198567
H55   H     H_    0.745718 0.225591 0.730112 0.210099
H56   H     H_    0.746193 0.774599 0.228412 0.191223
C89   C     C_2   0.614464 0.563785 0.139992 0.603065
H57   H     H_    0.639234 0.570078 0.266235 0.082926
O49   O     O_2   0.568366 0.593634 0.059376 -0.517333
C90   C     C_2   0.622901 0.431431 0.643492 0.690442
H58   H     H_    0.652601 0.422074 0.765670 0.035433
O50   O     O_2   0.572123 0.403923 0.562573 -0.489341
C91   C     C_2   0.123361 0.067826 0.145632 0.708646
H59   H     H_    0.152420 0.076594 0.268526 0.021919
O51   O     O_2   0.073130 0.095689 0.064944 -0.472249
C92   C     C_2   0.124757 0.931454 0.648644 0.691806
H60   H     H_    0.153912 0.921479 0.770422 0.019957
O52   O     O_2   0.073773 0.904458 0.565738 -0.491251
C93   C     C_2   0.308722 0.446171 0.110453 0.466727
H61   H     H_    0.275669 0.423953 0.174029 0.090873
O53   O     O_2   0.359760 0.427300 0.054769 -0.530425
C94   C     C_2   0.318388 0.550439 0.610634 0.382997
H62   H     H_    0.301755 0.572080 0.700103 0.107073
O54   O     O_2   0.355579 0.569495 0.525056 -0.527127
C95   C     C_2   0.790782 0.937982 0.139853 0.426471
H63   H     H_    0.762425 0.922771 0.226461 0.081893
O55   O     O_2   0.829637 0.911628 0.075140 -0.577673
C96   C     C_2   0.763112 0.063450 0.704340 0.502359
H64   H     H_    0.707538 0.068941 0.739023 0.070954
O56   O     O_2   0.817113 0.093895 0.737583 -0.491090
Cl1   Cl    Cl    0.342561 0.589388 0.022937 -0.588693
Cl2   Cl    Cl    0.339943 0.409655 0.494726 -0.634840
Cl3   Cl    Cl    0.864488 0.075707 0.083488 -0.464443
Cl4   Cl    Cl    0.937267 0.998925 0.733110 -0.537766
Cl5   Cl    Cl    0.441050 0.527901 0.267688 -0.543971
Cl6   Cl    Cl    0.433965 0.456699 0.780604 -0.595179
Cl7   Cl    Cl    0.948928 0.993027 0.249261 -0.537595
Cl8   Cl    Cl    0.878122 0.066917 0.478320 -0.500608
C97   C     C_2   0.932487 0.782378 0.452203 0.469609
H65   H     H_    0.954833 0.817688 0.429958 0.100803
O57   O     O_2   0.891699 0.759222 0.340064 -0.661486
C98   C     C_2   0.933511 0.216105 0.962760 0.663326
H66   H     H_    0.958767 0.181328 0.943904 0.109770
O58   O     O_2   0.891568 0.237833 0.848047 -0.669699
C99   C     C_2   0.433399 0.282522 0.456111 0.535373
H67   H     H_    0.465565 0.315419 0.442260 0.102512
O59   O     O_2   0.392334 0.262334 0.337353 -0.646557
C100  C     C_2   0.433824 0.715746 0.962607 0.652219
H68   H     H_    0.459209 0.681094 0.942856 0.093503
O60   O     O_2   0.391689 0.737620 0.848506 -0.668516
Cl9   Cl    Cl    0.850988 0.759892 0.659018 -0.572479
Cl10  Cl    Cl    0.849612 0.240039 0.164255 -0.565180
Cl11  Cl    Cl    0.336379 0.256518 0.633955 -0.604736
Cl12  Cl    Cl    0.350358 0.738930 0.165489 -0.565403
Cl13  Cl    Cl    0.956048 0.414861 0.816010 -0.611854
Cl14  Cl    Cl    0.957785 0.585909 0.320425 -0.501637
Cl15  Cl    Cl    0.453931 0.915582 0.812836 -0.611729
Cl16  Cl    Cl    0.447313 0.079256 0.297468 -0.543637
Cl17  Cl    Cl    0.699626 0.293573 0.352385 -0.555419
Cl18  Cl    Cl    0.703447 0.707265 0.849718 -0.559863
Cl19  Cl    Cl    0.197937 0.793523 0.354770 -0.573116
Cl20  Cl    Cl    0.203901 0.207824 0.849125 -0.498255
C101  C     C_2   0.002246 0.799211 0.729077 0.501540
H69   H     H_    0.064854 0.790468 0.793035 0.099678
O61   O     O_2   0.977378 0.839956 0.741819 -0.519455
C102  C     C_2   0.001407 0.201364 0.242364 0.519461
H70   H     H_    0.063711 0.210596 0.306970 0.088966
O62   O     O_2   0.976852 0.160789 0.258675 -0.469212
C103  C     C_2   0.482793 0.299012 0.738268 0.592664
H71   H     H_    0.448203 0.322414 0.795491 0.092017
O63   O     O_2   0.556202 0.306118 0.761385 -0.552447
C104  C     C_2   0.502333 0.700627 0.241567 0.515141
H72   H     H_    0.564317 0.710125 0.307363 0.086811
O64   O     O_2   0.478334 0.659781 0.256192 -0.475448
Cl21  Cl    Cl    0.088250 0.714866 0.020322 -0.613319
Cl22  Cl    Cl    0.085348 0.291881 0.528830 -0.602509
Cl23  Cl    Cl    0.587983 0.210799 0.035389 -0.569938
Cl24  Cl    Cl    0.584696 0.792612 0.528512 -0.611101
C105  C     C_2   0.028477 0.717688 0.266217 0.477639
H73   H     H_    0.051326 0.743418 0.361105 0.045128
O65   O     O_2   0.031040 0.675435 0.301303 -0.602923
C106  C     C_2   0.022633 0.288780 0.770187 0.488534
H74   H     H_    0.008067 0.324884 0.796919 0.028119
O66   O     O_2   0.061865 0.264011 0.879660 -0.604578
C107  C     C_2   0.525272 0.214291 0.279266 0.453045
H75   H     H_    0.558783 0.237409 0.374923 0.045599
O67   O     O_2   0.511122 0.173634 0.313690 -0.601496
C108  C     C_2   0.521617 0.788476 0.769806 0.488280
H76   H     H_    0.505889 0.824283 0.797511 0.022408
O68   O     O_2   0.561313 0.763660 0.878717 -0.604113
C109  C     C_2   0.756623 0.558663 0.007723 0.401083
H77   H     H_    0.716438 0.588771 0.960513 0.063421
O69   O     O_2   0.827565 0.559924 0.003956 -0.481260
C110  C     C_2   0.756992 0.440455 0.481758 0.482924
H78   H     H_    0.821550 0.435830 0.493415 0.084383
O70   O     O_2   0.706757 0.414005 0.394184 -0.504371
C111  C     C_2   0.255320 0.059718 0.976947 0.465314
H79   H     H_    0.319464 0.064495 0.985005 0.085007
O71   O     O_2   0.204234 0.086299 0.891927 -0.504269
C112  C     C_2   0.256638 0.940030 0.482368 0.488230
H80   H     H_    0.320814 0.935146 0.491123 0.088162
O72   O     O_2   0.205279 0.913967 0.395823 -0.502953

loop_
_geom_bond_atom_site_label_1
_geom_bond_atom_site_label_2
_geom_bond_distance
_ccdc_geom_bond_type
C23   C95   1.504563 S    
C107  H75   1.082644 S    
P9    O41   1.765477 S    
Ba3   O47   2.885273 S    
C18   C90   1.502889 S    
P11   O43   1.770558 S    
C111  O71   1.221696 D    
Ba4   O47   3.010412 S    
C62   C68   1.360858 D    
P12   O44   1.758225 S    
C63   C65   1.362624 D    
C67   C75   1.487633 S    
O14   P13   1.544618 D    
C14   C110  1.493273 S    
O10   Ba2   2.833542 S    
C7    C107  1.502826 S    
C78   H46   1.072861 S    
C5    C105  1.500393 S    
C6    Cl22  1.770418 S    
C41   C45   1.397261 A    
C100  O60   1.216413 D    
O12   Ba4   2.833542 S    
C44   C48   1.396204 A    
C102  H70   1.083634 S    
P2    O18   1.767895 S    
C63   Cl19  1.760875 S    
C74   C86   1.486381 S    
C43   C47   1.397672 A    
C36   C52   1.365195 D    
O22   C30   1.409376 S    
C3    C103  1.503634 S    
C97   H65   1.086256 S    
C2    C102  1.510782 S    
C30   H34   1.111400 S    
C96   O56   1.220876 D    
C34   C50   1.368947 D    
P9    O29   1.766654 S    
C94   H62   1.082102 S    
C98   O58   1.216750 D    
C89   O49   1.220724 D    
O1    Ba1   2.863188 S    
P2    C82   1.849748 S    
C56   C60   1.466415 A    
O39   C16   1.397316 S    
C7    Cl23  1.771601 S    
H2    C30   1.109222 S    
P7    O48   1.619384 S    
C68   H56   1.082917 S    
C78   C82   1.338186 D    
O21   P14   1.760803 S    
C43   H43   1.085162 S    
O23   P16   1.762259 S    
C111  H79   1.078979 S    
C8    C12   1.550715 S    
O19   C23   1.403225 S    
C112  H80   1.078761 S    
C35   C51   1.363164 D    
O4    Ba4   2.863403 S    
C70   C74   1.465226 S    
C29   H33   1.110658 S    
C33   C49   1.364628 D    
C10   H38   1.104416 S    
C101  O61   1.222386 D    
P10   C49   1.879502 S    
C38   C86   1.397430 A    
P5    O25   1.585123 D    
P1    Ba1   3.437771 S    
C110  H78   1.079381 S    
P7    O27   1.585123 D    
P3    Ba3   3.437771 S    
C68   C76   1.488572 S    
C33   Cl13  1.754899 S    
P5    C46   1.864558 S    
C16   H16   1.111536 S    
C15   C111  1.495150 S    
C15   C19   1.545587 S    
Ba1   O46   3.010968 S    
C6    C106  1.502653 S    
C105  O65   1.208790 D    
C27   Cl3   1.775031 S    
P14   C85   1.838071 S    
C6    C10   1.551393 S    
C43   C59   1.426785 A    
P4    Ba4   3.437313 S    
O2    Ba2   2.863403 S    
P6    O45   1.618148 S    
P3    O7    1.602612 S    
P9    C50   1.883509 S    
C70   C78   1.467450 S    
O41   C5    1.425893 S    
C64   Cl20  1.762095 S    
C1    Cl9   1.781909 S    
P12   C51   1.882202 S    
O11   Ba3   2.829874 S    
C53   C57   1.467129 A    
C72   C76   1.468719 S    
C28   Cl8   1.789767 S    
P8    O40   1.752688 S    
C9    H9    1.107383 S    
C66   C74   1.487531 S    
C37   H49   1.081399 S    
C44   H44   1.085154 S    
O44   C8    1.419778 S    
C21   C25   1.552645 S    
C107  O67   1.207415 D    
C90   O50   1.220812 D    
P3    C83   1.856684 S    
C4    C32   1.558218 S    
C91   O51   1.220741 D    
P2    Ba2   3.437313 S    
C42   C58   1.426495 A    
C20   H20   1.110846 S    
H3    C31   1.107137 S    
C35   C47   1.484306 S    
H1    C29   1.109322 S    
C39   C83   1.483898 S    
C21   C93   1.505326 S    
Ba2   O45   3.010412 S    
P10   O42   1.758814 S    
O24   P15   1.756401 S    
C26   Cl2   1.773132 S    
C53   C61   1.534705 S    
P12   O32   1.770868 S    
O3    Ba3   2.863188 S    
C109  O69   1.213159 D    
C64   C66   1.362471 D    
C24   C96   1.499250 S    
O42   C6    1.420384 S    
C41   C57   1.426202 A    
O16   P15   1.546017 D    
C80   H48   1.082055 S    
C4    C100  1.499655 S    
C28   H32   1.108806 S    
O24   C32   1.409257 S    
C106  O66   1.215839 D    
C36   C48   1.485490 S    
C92   O52   1.220725 D    
C10   H6    1.109152 S    
C75   C87   1.482188 S    
C32   H36   1.111374 S    
C4    C104  1.511156 S    
C34   C46   1.489614 S    
C1    C97   1.497508 S    
P9    O33   1.542937 D    
P10   O30   1.766276 S    
C25   H29   1.102585 S    
P11   O35   1.542472 D    
C26   Cl6   1.778722 S    
C27   H31   1.099809 S    
C56   C64   1.532727 S    
P4    O8    1.603791 S    
C73   C85   1.486138 S    
C21   H25   1.101228 S    
C23   H27   1.107197 S    
C65   H53   1.082417 S    
C77   C81   1.336763 D    
Ba4   O48   2.888431 S    
C61   Cl17  1.761348 S    
C80   C84   1.338763 D    
C3    C31   1.555024 S    
C12   H12   1.107560 S    
P5    Ba1   3.438593 S    
C33   C45   1.485478 S    
C69   C73   1.462260 S    
C93   O53   1.220880 D    
C104  O64   1.221954 D    
C4    Cl12  1.780434 S    
C17   H17   1.111151 S    
O12   P15   1.755288 S    
P5    O37   1.752608 S    
P6    O26   1.584053 D    
C19   H19   1.111083 S    
C12   H40   1.104648 S    
C102  O62   1.221417 D    
C104  H72   1.083594 S    
C16   C20   1.544423 S    
P6    C45   1.859514 S    
C19   H23   1.112141 S    
C13   H13   1.110324 S    
C8    Cl24  1.771754 S    
P1    C81   1.851460 S    
C40   C84   1.480632 S    
C15   H15   1.111733 S    
Ba1   Ba2   4.773731 S    
P4    C84   1.842913 S    
C103  H71   1.084567 S    
P16   C87   1.847571 S    
C94   O54   1.220947 D    
C99   H67   1.086318 S    
C89   H57   1.080352 S    
P1    O1    1.582728 D    
C52   C56   1.464993 A    
P3    O3    1.582728 D    
O29   Ba1   2.838709 S    
C108  H76   1.073476 S    
P4    O20   1.759168 S    
O40   C15   1.397876 S    
O13   P14   1.543839 D    
C71   C79   1.470462 S    
O37   C14   1.397737 S    
O31   Ba3   2.838709 S    
C79   H47   1.078187 S    
O15   P16   1.546729 D    
C69   C77   1.465984 S    
C2    Cl10  1.780782 S    
C77   H45   1.073901 S    
C72   C80   1.471460 S    
C54   C58   1.465998 A    
O5    Ba2   2.890961 S    
C112  O72   1.221654 D    
P8    C47   1.860351 S    
C9    H5    1.109996 S    
O7    Ba4   2.890961 S    
O20   C24   1.402100 S    
C55   C63   1.533668 S    
C37   C85   1.401638 A    
C38   H50   1.079523 S    
C13   C17   1.542746 S    
C65   C73   1.490270 S    
C101  H69   1.083406 S    
Ba3   O48   3.010968 S    
C11   H11   1.110939 S    
C62   Cl18  1.762563 S    
C44   C60   1.425723 A    
C110  O70   1.221698 D    
C18   H18   1.111110 S    
O27   Ba3   2.866697 S    
P1    O5    1.602612 S    
O8    Ba3   2.894140 S    
O38   C13   1.400244 S    
C91   H59   1.078394 S    
C16   C112  1.492425 S    
C14   H14   1.111507 S    
Ba1   O45   2.885273 S    
C24   H28   1.109619 S    
O22   P13   1.756422 S    
C105  H73   1.081887 S    
P12   O36   1.542046 D    
C54   C62   1.533539 S    
P7    O39   1.750511 S    
C3    C99   1.499317 S    
C61   C67   1.360732 D    
C95   O55   1.221697 D    
O25   Ba1   2.866697 S    
O9    P14   1.753643 S    
O30   Ba2   2.835032 S    
O11   P16   1.752557 S    
C97   O57   1.216156 D    
C22   C94   1.505722 S    
C35   Cl15  1.751547 S    
C96   H64   1.076806 S    
C36   Cl16  1.758199 S    
C49   C53   1.466079 A    
C25   Cl5   1.780329 S    
C98   H66   1.086568 S    
C17   C89   1.504243 S    
C1    C29   1.556714 S    
O32   Ba4   2.835032 S    
C37   C81   1.485773 S    
O6    Ba1   2.894140 S    
P7    Ba3   3.438593 S    
C14   C18   1.546249 S    
C24   C28   1.554923 S    
C76   C88   1.485716 S    
P15   C88   1.842643 S    
P10   O34   1.541607 D    
P11   O31   1.769076 S    
P13   C86   1.840788 S    
C5    C9    1.546506 S    
C7    C11   1.551674 S    
C40   H52   1.078176 S    
P5    O46   1.619384 S    
Ba3   Ba4   4.773731 S    
C5    Cl21  1.769114 S    
C34   Cl14  1.760839 S    
Ba2   O46   2.888431 S    
C42   H42   1.085139 S    
O17   C21   1.408874 S    
C11   H7    1.106338 S    
P1    O17   1.765008 S    
C10   H10   1.107872 S    
O23   C31   1.409728 S    
C109  H77   1.085366 S    
P3    O19   1.761898 S    
P4    O4    1.583802 D    
O21   C29   1.408577 S    
O26   Ba2   2.866477 S    
C100  H68   1.086514 S    
O10   P13   1.753611 S    
C22   C26   1.556763 S    
C103  O63   1.221585 D    
C31   H35   1.110227 S    
C99   O59   1.215872 D    
O28   Ba4   2.866477 S    
P8    O28   1.584053 D    
C40   C88   1.396155 A    
C8    C108  1.502410 S    
C39   C87   1.403973 A    
C79   C83   1.338238 D    
C25   Cl1   1.772987 S    
P2    O2    1.583802 D    
C71   C75   1.465793 S    
C9    H37   1.104269 S    
O43   C7    1.428251 S    
C3    Cl11  1.784161 S    
C90   H58   1.078403 S    
P11   C52   1.884322 S    
C11   H39   1.107708 S    
O18   C22   1.412164 S    
C17   H21   1.113415 S    
C55   C59   1.467499 A    
C13   C109  1.484953 S    
P8    Ba4   3.439079 S    
C93   H61   1.081862 S    
C12   H8    1.109024 S    
P6    O38   1.758095 S    
C39   H51   1.079244 S    
C23   C27   1.548188 S    
C26   H30   1.104925 S    
C27   Cl7   1.786839 S    
C67   H55   1.082464 S    
C2    C98   1.500086 S    
C51   C55   1.466561 A    
O9    Ba1   2.829874 S    
P2    O6    1.603791 S    
H4    C32   1.109001 S    
C20   H24   1.109346 S    
C22   H26   1.100399 S    
P8    O47   1.618148 S    
C1    C101  1.510626 S    
C66   H54   1.082863 S    
C28   Cl4   1.781680 S    
P7    C48   1.857470 S    
C106  H74   1.072762 S    
C20   C92   1.502418 S    
P6    Ba2   3.439079 S    
C108  O68   1.216119 D    
C19   C91   1.502397 S    
C92   H60   1.077863 S    
C50   C54   1.465214 A    
C2    C30   1.557185 S    
C42   C46   1.397823 A    
C95   H63   1.085251 S    
C38   C82   1.480885 S    
C18   H22   1.112884 S    
C41   H41   1.085178 S    
