data_mof_unit_28018.cif
_audit_creation_date              2012-12-11T14:56:31-0500
_audit_creation_method            fapswitch 2.2
_symmetry_space_group_name_H-M    P1
_symmetry_Int_Tables_number       1
_space_group_crystal_system       triclinic
_cell_length_a                    10.547867
_cell_length_b                    10.685032
_cell_length_c                    17.081245
_cell_angle_alpha                 80.297498
_cell_angle_beta                  90.108414
_cell_angle_gamma                 119.695371
_cell_volume                      1640.88307662

loop_
_atom_site_label
_atom_site_type_symbol
_atom_type_description
_atom_site_fract_x
_atom_site_fract_y
_atom_site_fract_z
_atom_type_partial_charge
C1    C     C_R   0.222479 0.853901 0.128718 0.542564
C2    C     C_R   0.713304 0.250034 0.306996 -0.145524
C3    C     C_R   0.706034 0.224577 0.230657 -0.162731
C4    C     C_R   0.609327 0.245076 0.181963 0.006785
C5    C     C_1   0.635253 0.871535 0.211284 -0.071053
C6    C     C_1   0.661550 0.855585 0.279056 -0.061440
C7    C     C_1   0.180759 0.824906 0.211393 -0.055278
C8    C     C_1   0.151733 0.819274 0.280015 -0.063173
C9    C     C_1   0.644019 0.321597 0.777880 -0.052478
C10   C     C_1   0.650965 0.343162 0.707248 -0.039533
C11   C     C_R   0.581523 0.717714 0.798441 -0.127708
C12   C     C_R   0.610606 0.214164 0.102067 0.537366
C13   C     C_R   0.551097 0.712911 0.720428 -0.014287
C14   C     C_R   0.651245 0.832791 0.660609 0.017545
C15   C     C_R   0.757121 0.964262 0.681893 -0.158642
C16   C     C_R   0.768829 0.974722 0.761797 -0.148663
C17   C     C_R   0.680038 0.850796 0.820352 0.015138
C18   C     C_R   0.075643 0.892960 0.792818 -0.134678
C19   C     C_R   0.039286 0.878938 0.715714 -0.134706
C20   C     C_R   0.046824 0.772719 0.681519 0.020470
C21   C     C_R   0.074491 0.669445 0.728935 -0.136297
C22   C     C_R   0.120380 0.689178 0.804770 -0.127567
C23   C     C_R   0.601386 0.881796 0.131086 0.544569
C24   C     C_R   0.129368 0.807063 0.835025 0.025122
C25   C     C_R   0.683101 0.813374 0.358613 0.551866
C26   C     C_R   0.679718 0.381640 0.400685 0.548625
C27   C     C_R   0.104301 0.810542 0.359334 0.553673
C28   C     C_R   0.674329 0.802880 0.583724 0.529590
C29   C     C_R   0.678072 0.381193 0.624216 0.544310
C30   C     C_R   0.027370 0.773659 0.596633 0.569935
C31   C     C_R   0.214357 0.857925 0.902314 0.553963
C32   C     C_R   0.637509 0.284468 0.860826 0.556668
C33   C     C_R   0.646636 0.866625 0.898909 0.559960
C34   C     C_R   0.505338 0.277637 0.213868 -0.031052
C35   C     C_R   0.512468 0.301886 0.292764 -0.039841
C36   C     C_R   0.626657 0.300943 0.335899 0.002849
Cr1   Cr    Cr6+3 0.402240 0.783890 0.019450 0.987120
Cr2   Cr    Cr6+3 0.382360 0.097900 0.991800 1.016191
Cr3   Cr    Cr6+3 0.715380 0.118170 0.988700 1.005750
Cr4   Cr    Cr6+3 0.936650 0.882420 0.465510 0.984619
Cr5   Cr    Cr6+3 0.605770 0.565620 0.493360 1.035144
Cr6   Cr    Cr6+3 0.921340 0.550490 0.496380 0.984718
H1    H     H_    0.012069 0.955716 0.681467 0.128652
H2    H     H_    0.068462 0.578789 0.706015 0.141354
H3    H     H_    0.511726 0.621701 0.843591 0.126176
H4    H     H_    0.832473 0.057073 0.636778 0.118113
H5    H     H_    0.843740 0.079442 0.777556 0.137033
H6    H     H_    0.073090 0.979428 0.816678 0.129116
O1    O     O_R   0.521780 0.757110 0.108900 -0.521518
O2    O     O_R   0.513330 0.228330 0.898660 -0.499944
O3    O     O_R   0.739230 0.266130 0.888050 -0.506146
O4    O     O_R   0.712580 0.991850 0.918770 -0.494407
O5    O     O_3   0.499990 0.999980 0.999980 -0.279183
O6    O     O_R   0.083770 0.911170 0.376030 -0.525656
O7    O     O_R   0.808770 0.880340 0.383890 -0.496152
O8    O     O_R   0.584340 0.689460 0.394160 -0.505023
O9    O     O_R   0.614320 0.443940 0.423590 -0.486965
O10   O     O_R   0.805020 0.410040 0.421340 -0.528488
O11   O     O_R   0.049240 0.685450 0.403290 -0.490925
O12   O     O_R   0.275160 0.783810 0.101120 -0.512245
O13   O     O_R   0.077520 0.903010 0.551800 -0.534896
O14   O     O_R   0.802980 0.872780 0.546830 -0.530348
O15   O     O_R   0.578090 0.681300 0.569920 -0.505716
O16   O     O_R   0.608530 0.436370 0.586530 -0.490962
O17   O     O_R   0.798770 0.401880 0.597100 -0.535485
O18   O     O_R   0.043450 0.677890 0.566230 -0.522189
O19   O     O_3   0.821250 0.666180 0.485090 -0.261316
O20   O     O_R   0.237900 0.972600 0.090980 -0.509819
O21   O     O_R   0.511190 0.220540 0.061620 -0.496856
O22   O     O_R   0.736920 0.257720 0.063840 -0.520385
O23   O     O_R   0.710450 0.984050 0.081720 -0.509442
O24   O     O_R   0.524090 0.765520 0.933110 -0.541273
O25   O     O_R   0.277300 0.791600 0.938160 -0.501321
O26   O     O_R   0.240210 0.981010 0.915190 -0.520231
C37   C     C_R   0.390608 0.289942 0.167173 0.048856
C38   C     C_R   0.241445 0.187548 0.189607 -0.062810
C39   C     C_R   0.133011 0.201446 0.148553 -0.093612
C40   C     C_R   0.172472 0.318529 0.084904 -0.120465
C41   C     C_R   0.320254 0.422594 0.062951 -0.106153
C42   C     C_R   0.429144 0.409937 0.104463 -0.055149
H7    H     H_    0.209422 0.098574 0.239773 0.134186
H8    H     H_    0.018441 0.121799 0.166338 0.127112
H9    H     H_    0.088547 0.329203 0.052944 0.117991
H10   H     H_    0.349960 0.513169 0.013892 0.145132
H11   H     H_    0.543214 0.492492 0.087551 0.131007
H12   H     H_    0.156041 0.617871 0.837448 0.130342
C43   C     C_R   0.402692 0.330523 0.329044 0.033909
C44   C     C_R   0.309867 0.233860 0.397136 -0.058379
C45   C     C_R   0.206374 0.259499 0.431216 -0.101493
C46   C     C_R   0.194637 0.381567 0.397639 -0.123063
C47   C     C_R   0.287161 0.478911 0.330300 -0.081892
C48   C     C_R   0.391665 0.454418 0.296507 -0.049901
H13   H     H_    0.318233 0.139141 0.423812 0.131164
H14   H     H_    0.135256 0.184846 0.483694 0.122766
H15   H     H_    0.114409 0.401149 0.424056 0.113405
H16   H     H_    0.278951 0.574183 0.304706 0.122158
H17   H     H_    0.464494 0.532250 0.245331 0.132202
H18   H     H_    0.796128 0.241027 0.341135 0.143845
H19   H     H_    0.779655 0.191983 0.208849 0.131958
C49   C     C_R   0.416661 0.579493 0.704496 0.055229
C50   C     C_R   0.319479 0.592926 0.651684 -0.063247
C51   C     C_R   0.203871 0.468092 0.629808 -0.114729
C52   C     C_R   0.180843 0.328839 0.662587 -0.117638
C53   C     C_R   0.272780 0.314002 0.717588 -0.102435
C54   C     C_R   0.389018 0.438231 0.739003 -0.082880
H20   H     H_    0.337041 0.700397 0.625040 0.120848
H21   H     H_    0.132545 0.479249 0.587089 0.132735
H22   H     H_    0.092196 0.232637 0.645192 0.091243
H23   H     H_    0.256098 0.206623 0.742660 0.118679
H24   H     H_    0.459676 0.424350 0.780994 0.105633

loop_
_geom_bond_atom_site_label_1
_geom_bond_atom_site_label_2
_ccdc_geom_bond_type
Cr3   O3    S    
C43   C44   A    
C50   C51   A    
C35   C36   A    
C25   O8    A    
C12   O21   A    
Cr6   O10   S    
C27   O6    A    
C7    C8    T    
Cr5   O19   S    
C20   C30   S    
C39   C40   A    
C33   O4    A    
C49   C54   A    
C18   C24   A    
C54   H24   S    
C18   C19   A    
C5    C6    T    
C31   O25   A    
C6    C25   S    
C15   C16   A    
C1    O20   A    
Cr4   O14   S    
C34   C35   A    
C45   H14   S    
C12   O22   A    
C9    C32   S    
C47   H16   S    
C35   C43   S    
C40   H9    S    
C19   C20   A    
C16   C17   A    
Cr4   O19   S    
Cr6   O17   S    
C52   H22   S    
C4    C12   S    
C37   C42   A    
C33   O24   A    
C34   C37   S    
Cr1   O5    S    
Cr3   O4    S    
C29   O16   A    
C21   C22   A    
C41   H10   S    
C17   C33   S    
C16   H5    S    
C53   C54   A    
C19   H1    S    
C48   H17   S    
C4    C34   A    
C30   O13   A    
C23   O23   A    
C46   H15   S    
C38   C39   A    
C1    O12   A    
C47   C48   A    
C40   C41   A    
C31   O26   A    
Cr4   O13   S    
Cr6   O11   S    
C37   C38   A    
Cr5   O8    S    
C42   H11   S    
C21   H2    S    
Cr1   O1    S    
C5    C23   S    
Cr4   O7    S    
C14   C15   A    
C51   H21   S    
C44   C45   A    
C26   O10   A    
C32   O2    A    
C30   O18   A    
C29   O17   A    
C26   C36   S    
Cr2   O20   S    
Cr4   O6    S    
Cr6   O19   S    
C22   C24   A    
C11   H3    S    
Cr5   O15   S    
C3    C4    A    
C43   C48   A    
Cr2   O26   S    
C32   O3    A    
C2    C36   A    
C50   H20   S    
Cr1   O25   S    
C44   H13   S    
C11   C17   A    
C1    C7    S    
C25   O7    A    
C18   H6    S    
C38   H7    S    
Cr2   O2    S    
Cr5   O16   S    
C13   C49   S    
C2    C3    A    
C24   C31   S    
Cr5   O9    S    
C27   O11   A    
C11   C13   A    
C10   C29   S    
C46   C47   A    
Cr3   O5    S    
Cr2   O5    S    
C39   H8    S    
C49   C50   A    
Cr3   O22   S    
C9    C10   T    
C22   H12   S    
C51   C52   A    
C26   O9    A    
Cr2   O21   S    
Cr1   O12   S    
C23   O1    A    
C41   C42   A    
C28   O15   A    
C3    H19   S    
C20   C21   A    
C2    H18   S    
Cr1   O24   S    
C52   C53   A    
Cr6   O18   S    
C8    C27   S    
Cr3   O23   S    
C53   H23   S    
C15   H4    S    
C14   C28   S    
C45   C46   A    
C13   C14   A    
C28   O14   A    
