data_mof_unit_19114.cif
_audit_creation_date              2012-12-11T15:11:43-0500
_audit_creation_method            fapswitch 2.2
_symmetry_space_group_name_H-M    P1
_symmetry_Int_Tables_number       1
_space_group_crystal_system       triclinic
_cell_length_a                    20.126105
_cell_length_b                    7.109684
_cell_length_c                    13.498442
_cell_angle_alpha                 90.000049
_cell_angle_beta                  103.528405
_cell_angle_gamma                 90.0
_cell_volume                      1877.90425566

loop_
_atom_site_label
_atom_site_type_symbol
_atom_type_description
_atom_site_fract_x
_atom_site_fract_y
_atom_site_fract_z
_atom_type_partial_charge
O1    O     O_R   0.449830 0.506740 0.599960 -0.535389
O2    O     O_R   0.550170 0.006740 0.400040 -0.535390
O3    O     O_R   0.588980 0.179860 0.596720 -0.545370
O4    O     O_R   0.411020 0.679860 0.403280 -0.545369
C1    C     C_R   0.616229 0.344421 0.619457 0.663108
C2    C     C_R   0.383771 0.844421 0.380542 0.663108
O5    O     O_R   0.452740 0.177340 0.612040 -0.541011
O6    O     O_R   0.547260 0.677340 0.387960 -0.541011
O7    O     O_R   0.412960 0.002070 0.415460 -0.541871
O8    O     O_R   0.587040 0.502070 0.584540 -0.541872
C3    C     C_R   0.436966 0.346099 0.639057 0.689900
C4    C     C_R   0.563034 0.846099 0.360943 0.689900
O9    O     O_3   0.487110 0.337570 0.435490 -0.373414
O10   O     O_3   0.512890 0.837570 0.564510 -0.373414
V1    V     V_3+5 0.502390 0.064650 0.511970 1.387015
V2    V     V_3+5 0.497610 0.564650 0.488030 1.387016
C5    C     C_R   0.608296 0.886042 0.107387 -0.179400
C6    C     C_R   0.391704 0.386066 0.892612 -0.179398
H1    H     H_    0.514591 0.881910 0.157324 0.096930
H2    H     H_    0.485409 0.381945 0.842675 0.096930
H3    H     H_    0.691215 0.880970 0.980935 0.111714
H4    H     H_    0.308785 0.380997 0.019064 0.111715
H5    H     H_    0.581965 0.897891 0.027834 0.110779
H6    H     H_    0.418035 0.397927 0.972165 0.110779
C7    C     C_R   0.602636 0.856361 0.283310 -0.024718
C8    C     C_R   0.397364 0.356362 0.716690 -0.024717
C9    C     C_R   0.931752 0.857301 0.318147 -0.173182
C10   C     C_R   0.068249 0.357295 0.681854 -0.173182
C11   C     C_R   0.896343 0.855716 0.394927 -0.128034
C12   C     C_R   0.103657 0.355708 0.605074 -0.128036
C13   C     C_R   0.825150 0.857219 0.370968 -0.174888
C14   C     C_R   0.174850 0.357212 0.629032 -0.174889
C15   C     C_R   0.787225 0.858597 0.268271 0.072464
C16   C     C_R   0.212775 0.358593 0.731729 0.072465
C17   C     C_R   0.823922 0.858148 0.189887 0.067270
C18   C     C_R   0.176078 0.358148 0.810114 0.067273
C19   C     C_R   0.714261 0.862906 0.240792 0.064674
C20   C     C_R   0.285739 0.362904 0.759208 0.064672
C21   C     C_R   0.679930 0.876609 0.136198 0.150697
C22   C     C_R   0.320070 0.376621 0.863802 0.150694
C23   C     C_R   0.717079 0.874485 0.060908 -0.173598
C24   C     C_R   0.282921 0.374501 0.939091 -0.173599
C25   C     C_R   0.787786 0.860194 0.087129 -0.184477
C26   C     C_R   0.212214 0.360203 0.912871 -0.184476
C27   C     C_R   0.673925 0.851338 0.313342 -0.231914
C28   C     C_R   0.326075 0.351325 0.686659 -0.231915
C29   C     C_R   0.569858 0.875992 0.180655 -0.186353
C30   C     C_R   0.430142 0.376014 0.819345 -0.186353
C31   C     C_R   0.896302 0.859137 0.216014 -0.083443
C32   C     C_R   0.103699 0.359135 0.783987 -0.083444
H7    H     H_    0.696020 0.835579 0.393699 0.089889
H8    H     H_    0.303980 0.335546 0.606302 0.089890
H9    H     H_    0.987138 0.858391 0.338407 0.099260
H10   H     H_    0.012863 0.358384 0.661594 0.099261
H11   H     H_    0.801584 0.860282 0.434798 0.103468
H12   H     H_    0.198416 0.360278 0.565202 0.103469
H13   H     H_    0.924314 0.855318 0.473898 0.117277
H14   H     H_    0.075687 0.355309 0.526104 0.117278
H15   H     H_    0.814110 0.856874 0.025841 0.101643
H16   H     H_    0.185891 0.356888 0.974159 0.101641
C33   C     C_3   0.240473 0.740488 0.134408 -0.099609
C34   C     C_3   0.759525 0.240490 0.865592 -0.099608
H17   H     H_    0.217657 0.597858 0.118006 0.095865
H18   H     H_    0.782342 0.097859 0.881994 0.095865
C35   C     C_3   0.308586 0.711131 0.217754 -0.329491
C36   C     C_3   0.691412 0.211134 0.782246 -0.329489
H19   H     H_    0.355447 0.713805 0.188455 0.108060
H20   H     H_    0.644551 0.213814 0.811544 0.108060
H21   H     H_    0.308446 0.564941 0.247509 0.133178
H22   H     H_    0.691551 0.064942 0.752492 0.133177
H23   H     H_    0.170847 0.627734 0.278021 0.140826
H24   H     H_    0.829153 0.127728 0.721981 0.140826
H25   H     H_    0.270556 0.651611 0.401989 0.130983
H26   H     H_    0.729444 0.151601 0.598013 0.130982
C37   C     C_3   0.187096 0.777599 0.287347 -0.346654
C38   C     C_3   0.812904 0.277593 0.712654 -0.346652
C39   C     C_3   0.221075 0.062482 0.201033 -0.308101
C40   C     C_3   0.778925 0.562481 0.798964 -0.308101
C41   C     C_3   0.189817 0.861448 0.181515 0.087618
C42   C     C_3   0.810182 0.361447 0.818485 0.087615
H27   H     H_    0.189771 0.149381 0.241598 0.141568
H28   H     H_    0.810230 0.649377 0.758399 0.141568
H29   H     H_    0.220594 0.134715 0.127791 0.139431
H30   H     H_    0.779406 0.634717 0.872206 0.139429
C43   C     C_3   0.313348 0.850764 0.308456 0.107554
C44   C     C_3   0.686652 0.350763 0.691543 0.107555
C45   C     C_3   0.257685 0.790394 0.364194 -0.339386
C46   C     C_3   0.742315 0.290387 0.635806 -0.339386
C47   C     C_3   0.295255 0.053037 0.266197 -0.324117
C48   C     C_3   0.704746 0.553037 0.733799 -0.324117
H31   H     H_    0.331469 0.097712 0.219973 0.131267
H32   H     H_    0.668532 0.597716 0.780023 0.131267
H33   H     H_    0.300519 0.155349 0.329987 0.138440
H34   H     H_    0.699483 0.655346 0.670009 0.138440
H35   H     H_    0.148432 0.853719 0.319157 0.127581
H36   H     H_    0.851568 0.353710 0.680842 0.127581
H37   H     H_    0.255091 0.894044 0.424979 0.137143
H38   H     H_    0.744909 0.394032 0.575019 0.137142
O11   O     O_R   0.912980 0.203550 0.915410 -0.546821
O12   O     O_R   0.087020 0.703550 0.084590 -0.546821
O13   O     O_R   0.047270 0.535570 0.887960 -0.548597
O14   O     O_R   0.952730 0.035570 0.112040 -0.548597
C49   C     C_R   0.063980 0.368036 0.861901 0.689679
C50   C     C_R   0.936021 0.868036 0.138099 0.689679
O15   O     O_R   0.911030 0.532970 0.903270 -0.541945
O16   O     O_R   0.088970 0.032970 0.096730 -0.541946
O17   O     O_R   0.949820 0.708150 0.099970 -0.532560
O18   O     O_R   0.050180 0.208150 0.900030 -0.532560
C51   C     C_R   0.882738 0.365867 0.885157 0.641746
C52   C     C_R   0.117262 0.865868 0.114843 0.641745
O19   O     O_3   0.012900 0.375230 0.064480 -0.373484
O20   O     O_3   0.987100 0.875230 0.935520 -0.373484
V3    V     V_3+5 0.997610 0.648190 0.988040 1.376352
V4    V     V_3+5 0.002390 0.148190 0.011960 1.376353
C53   C     C_R   0.250841 0.816078 0.031651 0.089324
C54   C     C_R   0.197912 0.793545 0.943396 -0.152088
C55   C     C_R   0.207442 0.837352 0.846773 -0.094414
C56   C     C_R   0.270573 0.902249 0.835875 -0.071554
C57   C     C_R   0.323200 0.931395 0.922006 -0.110538
C58   C     C_R   0.312988 0.895131 0.019139 -0.116675
H39   H     H_    0.149817 0.733623 0.948053 0.135994
H40   H     H_    0.166318 0.815547 0.780033 0.118946
H41   H     H_    0.278494 0.932014 0.760851 0.110039
H42   H     H_    0.371964 0.984621 0.913675 0.117100
H43   H     H_    0.354638 0.929259 0.082649 0.088318
C59   C     C_R   0.749157 0.316079 0.968348 0.089325
C60   C     C_R   0.802086 0.293542 0.056604 -0.152089
C61   C     C_R   0.792554 0.337343 0.153227 -0.094412
C62   C     C_R   0.729422 0.402236 0.164124 -0.071555
C63   C     C_R   0.676797 0.431387 0.077992 -0.110539
C64   C     C_R   0.687011 0.395132 0.980860 -0.116673
H44   H     H_    0.850181 0.233621 0.051946 0.135991
H45   H     H_    0.833676 0.315533 0.219967 0.118947
H46   H     H_    0.721499 0.431994 0.239148 0.110039
H47   H     H_    0.628032 0.484609 0.086324 0.117100
H48   H     H_    0.645362 0.429265 0.917350 0.088317

loop_
_geom_bond_atom_site_label_1
_geom_bond_atom_site_label_2
_ccdc_geom_bond_type
C36   H20   S    
O12   C52   A    
C59   C60   A    
C9    C11   A    
O13   V3    S    
C63   H47   S    
O1    C3    A    
H24   C38   S    
O2    C4    A    
C61   C62   A    
O11   V4    S    
O20   V4    S    
C37   H35   S    
C21   C23   A    
C36   H22   S    
C57   H42   S    
C40   C48   S    
O5    C3    A    
C39   C47   S    
C5    H5    S    
C2    C43   S    
O16   V4    S    
C6    H6    S    
C34   C42   S    
C20   C22   A    
C26   H16   S    
C44   C46   S    
C39   H29   S    
C53   C54   A    
O11   C51   A    
C28   H8    S    
C54   C55   A    
C5    C21   A    
O18   V4    S    
C33   H17   S    
C6    C22   A    
C60   H44   S    
H25   C45   S    
C34   H18   S    
C56   C57   A    
C10   C32   A    
O17   V3    S    
C35   H19   S    
C42   C51   S    
C33   C53   S    
C13   C15   A    
C49   O18   A    
C47   H31   S    
C17   C25   A    
C7    C29   A    
C16   C18   A    
C8    C30   A    
C43   C45   S    
C32   C49   S    
O6    V2    S    
C11   C13   A    
C23   C25   A    
C24   C26   A    
C2    O7    A    
O20   V3    S    
C48   H34   S    
C39   C41   S    
H23   C37   S    
C54   H39   S    
C34   C36   S    
C5    C29   A    
O4    C2    A    
C64   H48   S    
C44   C48   S    
C34   C59   S    
C43   C47   S    
C58   H43   S    
O5    V1    S    
C3    C8    S    
C15   C19   A    
C14   C16   A    
O4    V2    S    
C55   H40   S    
C17   C31   A    
O14   V4    S    
C40   H30   S    
C40   H28   S    
C48   H32   S    
C39   H27   S    
O6    C4    A    
H1    C29   S    
O19   V3    S    
O1    V2    S    
O14   C50   A    
O2    V1    S    
H2    C30   S    
H3    C23   S    
C1    C44   S    
C37   C45   S    
C11   H13   S    
C18   C26   A    
C19   C27   A    
C60   C61   A    
C7    C27   A    
C18   C32   A    
C62   C63   A    
O16   C52   A    
O15   V3    S    
C38   C46   S    
C10   H10   S    
C41   C52   S    
C16   C20   A    
O12   V3    S    
C38   C42   S    
O3    C1    A    
C6    C30   A    
C36   C44   S    
C57   C58   A    
C9    H9    S    
C35   C43   S    
C25   H15   S    
C4    C7    S    
C31   C50   S    
C13   H11   S    
C10   C12   A    
C63   C64   A    
O7    V1    S    
C1    O8    A    
C19   C21   A    
O8    V2    S    
C55   C56   A    
C38   H36   S    
C12   C14   A    
H4    C24   S    
O15   C51   A    
C59   C64   A    
C33   C41   S    
C35   H21   S    
C12   H14   S    
C22   C24   A    
C15   C17   A    
O19   V4    S    
C40   C42   S    
C56   H41   S    
C47   H33   S    
C20   C28   A    
C8    C28   A    
C62   H46   S    
C33   C35   S    
O13   C49   A    
C53   C58   A    
O9    V2    S    
C27   H7    S    
O10   V1    S    
O3    V1    S    
H26   C46   S    
C61   H45   S    
C37   C41   S    
C14   H12   S    
C50   O17   A    
C46   H38   S    
C9    C31   A    
C45   H37   S    
