data_mof_unit_46076.cif
_audit_creation_date              2013-03-05T15:43:53-0500
_audit_creation_method            fapswitch 2.2
_symmetry_space_group_name_H-M    P1
_symmetry_Int_Tables_number       1
_space_group_crystal_system       triclinic
_cell_length_a                    8.712413
_cell_length_b                    15.67836
_cell_length_c                    19.085175
_cell_angle_alpha                 101.237164
_cell_angle_beta                  91.902564
_cell_angle_gamma                 100.593119
_cell_volume                      2506.95978704

loop_
_atom_site_label
_atom_site_type_symbol
_atom_site_description
_atom_site_fract_x
_atom_site_fract_y
_atom_site_fract_z
_atom_type_partial_charge
P1    P     P_3+3 0.038110 0.412300 0.335300 0.612889
O1    O     O_2   0.871030 0.438240 0.324420 -0.324441
O2    O     O_3   0.120590 0.445310 0.413740 -0.329829
O3    O     O_3   0.663040 0.605930 0.370050 -0.268470
O4    O     O_2   0.720594 0.523660 0.248620 -0.238503
O5    O     O_3   0.032185 0.297012 0.303603 -0.636588
O6    O     O_3   0.725279 0.689063 0.251488 -0.529609
C1    C     C_3   0.699580 0.840246 0.242276 -0.727290
H1    H     H_    0.821629 0.877538 0.246247 0.240492
P2    P     P_3+3 0.679950 0.711710 0.558590 0.574255
P3    P     P_3+3 0.152497 0.767815 0.404706 0.684592
O7    O     O_2   0.855660 0.723510 0.537160 -0.330621
O8    O     O_3   0.086340 0.654970 0.406630 -0.243326
O9    O     O_2   0.057624 0.816013 0.461273 -0.268091
O10   O     O_3   0.703333 0.751346 0.651867 -0.568038
O11   O     O_3   0.083267 0.791262 0.321919 -0.541641
C2    C     C_3   0.119859 0.739687 0.255455 0.495849
C3    C     C_3   0.087987 0.787577 0.192790 -0.309126
H2    H     H_    0.960094 0.782679 0.187655 0.184696
C4    C     C_3   0.256234 0.751354 0.645134 0.073026
H3    H     H_    0.364745 0.727084 0.629603 0.070980
H4    H     H_    0.173736 0.748142 0.598726 0.168975
C5    C     C_3   0.302491 0.848284 0.685109 0.315291
H5    H     H_    0.405420 0.853587 0.723087 0.098021
Ba1   Ba    Ba6+2 0.854120 0.540280 0.465540 1.834158
C6    C     C_3   0.970157 0.230308 0.340336 0.333158
C7    C     C_3   0.004697 0.141362 0.295213 -0.124062
H6    H     H_    0.133620 0.156070 0.296560 0.150383
C8    C     C_3   0.716632 0.684492 0.689138 0.236022
H7    H     H_    0.831206 0.664388 0.680511 0.124876
H8    H     H_    0.617573 0.627551 0.672403 0.112226
C9    C     C_3   0.706813 0.720590 0.769009 -0.152629
H9    H     H_    0.675650 0.664673 0.797170 0.039896
H10   H     H_    0.614216 0.760987 0.775635 0.148400
P4    P     P_3+3 0.151600 0.587780 0.664700 0.553248
O12   O     O_2   0.318670 0.561790 0.675630 -0.406203
O13   O     O_3   0.069120 0.554770 0.586270 -0.284099
O14   O     O_3   0.526680 0.394150 0.629950 -0.296862
O15   O     O_3   0.178267 0.703421 0.691523 -0.563788
P5    P     P_3+3 0.034490 0.231663 0.591685 0.544173
O16   O     O_3   0.607620 0.388570 0.462320 -0.275907
O17   O     O_3   0.103380 0.345110 0.593380 -0.393032
O18   O     O_2   0.168572 0.185271 0.563596 -0.285687
O19   O     O_3   0.030672 0.216100 0.680296 -0.488632
Ba2   Ba    Ba6+2 0.335710 0.459790 0.534460 1.777657
P6    P     P_3+3 0.621722 0.592716 0.277491 0.632008
C10   C     C_3   0.687560 0.769198 0.289916 0.529561
H11   H     H_    0.569630 0.757596 0.307015 0.007304
O20   O     O_3   0.582100 0.611510 0.537680 -0.302336
C11   C     C_3   0.485609 0.264526 0.290957 0.486759
H12   H     H_    0.598112 0.310996 0.298319 0.081921
C12   C     C_3   0.473604 0.202081 0.214187 0.282866
H13   H     H_    0.468475 0.244540 0.174040 0.127474
P7    P     P_3+3 0.503950 0.272102 0.438634 0.685344
O21   O     O_2   0.334040 0.276520 0.462890 -0.335417
O22   O     O_3   0.464284 0.215288 0.346083 -0.478456
C13   C     C_3   0.076731 0.298604 0.727400 0.413909
H14   H     H_    0.196271 0.330885 0.717477 0.165373
H15   H     H_    0.992245 0.342287 0.721473 0.041995
C14   C     C_3   0.080288 0.285218 0.804186 -0.819682
H16   H     H_    0.162596 0.241023 0.811636 0.319194
H17   H     H_    0.120323 0.349988 0.841498 0.207411
H18   H     H_    0.961840 0.255129 0.817113 0.242331
P8    P     P_3+3 0.559519 0.417426 0.723863 0.470372
C15   C     C_3   0.622414 0.265763 0.733760 0.017919
H19   H     H_    0.707302 0.280236 0.781148 0.097172
O23   O     O_2   0.431826 0.469307 0.752033 -0.440469
O24   O     O_3   0.502549 0.314993 0.748695 -0.521756
H20   H     H_    0.688454 0.281502 0.687377 0.093174
H21   H     H_    0.647656 0.132712 0.690473 0.127825
C16   C     C_3   0.554328 0.166147 0.714847 -0.142935
C17   C     C_R   0.003249 0.449199 0.038035 0.076446
C18   C     C_R   0.913099 0.393780 0.076828 0.099451
C19   C     C_R   0.778165 0.335319 0.040666 -0.038733
C20   C     C_R   0.715465 0.345109 0.974859 -0.129225
C21   C     C_R   0.792996 0.412654 0.941908 0.016769
C22   C     C_R   0.945183 0.456394 0.968980 0.045247
C23   C     C_R   0.723403 0.440024 0.884041 -0.150528
C24   C     C_R   0.820666 0.475997 0.834507 -0.139565
C25   C     C_R   0.980540 0.512528 0.857263 0.043373
C26   C     C_R   0.036916 0.508776 0.927730 -0.004692
C27   C     C_R   0.764590 0.474375 0.762988 0.026410
C28   C     C_R   0.873040 0.502066 0.714996 -0.004217
C29   C     C_R   0.029425 0.544219 0.736706 0.080402
C30   C     C_R   0.080856 0.556610 0.811874 -0.060191
C31   C     C_R   0.151051 0.496396 0.067578 0.027007
C32   C     C_R   0.205151 0.493970 0.139019 0.058281
C33   C     C_R   0.101990 0.450318 0.184831 -0.034901
C34   C     C_R   0.956408 0.397562 0.150376 -0.072552
H22   H     H_    0.716653 0.283227 0.064522 0.202005
C35   C     C_R   0.224649 0.611208 0.845490 -0.103122
C36   C     C_R   0.279571 0.606049 0.915132 0.074268
C37   C     C_R   0.187055 0.553460 0.955822 0.097722
C38   C     C_R   0.244278 0.547213 0.025442 0.076933
C39   C     C_R   0.428467 0.652428 0.944882 -0.143306
C40   C     C_R   0.487612 0.641892 0.010094 -0.056011
C41   C     C_R   0.398119 0.588400 0.051053 0.029906
C42   C     C_R   0.363038 0.534943 0.163386 -0.147658
C43   C     C_R   0.462384 0.571098 0.114479 0.195455
C44   C     C_R   0.417059 0.537218 0.235215 0.195641
C45   C     C_R   0.309789 0.502548 0.280541 -0.179513
C46   C     C_R   0.152382 0.462450 0.261080 0.311904
H23   H     H_    0.505591 0.693867 0.916349 0.133087
H24   H     H_    0.603678 0.678461 0.027481 0.198502
H25   H     H_    0.354700 0.501295 0.331992 0.200715
C47   C     C_R   0.750411 0.229212 0.513788 -0.419301
C48   C     C_R   0.841519 0.177392 0.540511 0.218500
C49   C     C_R   0.786288 0.085407 0.528194 -0.095746
C50   C     C_R   0.628987 0.044697 0.501594 -0.056096
C51   C     C_R   0.531890 0.104671 0.482965 0.160070
C52   C     C_R   0.596741 0.196252 0.485907 0.201784
C53   C     C_R   0.437012 0.898579 0.444187 -0.262675
C54   C     C_R   0.362007 0.810715 0.442092 0.129406
C55   C     C_R   0.583025 0.790656 0.515582 0.074572
C56   C     C_R   0.644756 0.884098 0.527667 -0.223221
C57   C     C_R   0.571273 0.941874 0.491623 0.196328
C58   C     C_R   0.436917 0.757599 0.477117 0.041384
H26   H     H_    0.385598 0.931817 0.408184 0.182081
H27   H     H_    0.873520 0.047498 0.536149 0.179543
H28   H     H_    0.804518 0.294701 0.508896 0.212263
N1    N     N_R   0.788085 0.804182 0.356202 0.243071
O25   O     O_R   0.778508 0.759770 0.406542 -0.347857
O26   O     O_R   0.859972 0.886324 0.372937 -0.338551
N2    N     N_R   0.345264 0.906105 0.635079 0.201571
O27   O     O_R   0.474083 0.964703 0.648327 -0.385347
O28   O     O_R   0.242918 0.911091 0.585689 -0.346264
N3    N     N_R   0.175034 0.876961 0.725753 0.304228
O29   O     O_R   0.038780 0.872261 0.693628 -0.302775
O30   O     O_R   0.201250 0.914235 0.793271 -0.186140
N4    N     N_R   0.808227 0.231028 0.346759 0.159623
O31   O     O_R   0.710458 0.158713 0.348376 -0.382040
O32   O     O_R   0.781254 0.305253 0.381561 -0.484187
C59   C     C_2   0.043119 0.245285 0.414230 0.639859
H29   H     H_    0.056400 0.308669 0.450447 0.060432
O33   O     O_2   0.076523 0.183211 0.436787 -0.508306
C60   C     C_2   0.952203 0.122248 0.216853 0.797362
H30   H     H_    0.978988 0.173538 0.186098 0.025835
O34   O     O_2   0.889944 0.047604 0.185641 -0.428892
N5    N     N_R   0.963168 0.061004 0.325274 0.308497
O35   O     O_R   0.050369 0.001985 0.313001 -0.312901
O36   O     O_R   0.862357 0.053494 0.373319 -0.321192
N6    N     N_R   0.854344 0.776004 0.801447 0.312096
O37   O     O_R   0.972053 0.739516 0.813712 -0.328798
O38   O     O_R   0.861404 0.859701 0.828091 -0.200855
C61   C     C_2   0.599913 0.907053 0.269125 0.623501
H31   H     H_    0.612663 0.940486 0.324853 0.094934
O39   O     O_2   0.503474 0.924137 0.228995 -0.512805
N7    N     N_R   0.365782 0.316810 0.292817 0.164948
O40   O     O_R   0.280427 0.315335 0.235162 -0.507485
O41   O     O_R   0.343145 0.364566 0.353516 -0.423281
N8    N     N_R   0.331062 0.134627 0.201943 0.247901
O42   O     O_R   0.244719 0.121382 0.142439 -0.301485
O43   O     O_R   0.312522 0.074499 0.240710 -0.291866
N9    N     N_R   0.606057 0.158352 0.198038 0.218418
O44   O     O_R   0.613554 0.088115 0.223156 -0.237142
O45   O     O_R   0.671723 0.164975 0.138624 -0.404017
C62   C     C_2   0.656671 0.800535 0.164260 0.910019
H32   H     H_    0.553785 0.749503 0.148510 -0.030023
O46   O     O_2   0.735719 0.826966 0.118326 -0.481010
N10   N     N_R   0.135393 0.746335 0.122778 0.284468
O47   O     O_R   0.281007 0.761913 0.107661 -0.404633
O48   O     O_R   0.029196 0.712330 0.070254 -0.247710
C63   C     C_2   0.419710 0.147528 0.659184 0.893129
H33   H     H_    0.436379 0.174689 0.611495 -0.103305
O49   O     O_2   0.292525 0.103848 0.667066 -0.421753
N11   N     N_R   0.019498 0.651108 0.238229 0.263976
O50   O     O_R   0.993326 0.604266 0.286452 -0.310352
O51   O     O_R   0.985742 0.609874 0.172188 -0.345510
N12   N     N_R   0.508984 0.131290 0.778635 0.286357
O52   O     O_R   0.382111 0.145966 0.808946 -0.299594
O53   O     O_R   0.590395 0.079938 0.802606 -0.264188
C64   C     C_2   0.575816 0.280297 0.939049 0.733216
H34   H     H_    0.534148 0.282697 0.885669 0.063324
O54   O     O_2   0.506030 0.223639 0.968505 -0.476280
N13   N     N_R   0.830461 0.472756 0.640867 0.244286
O55   O     O_R   0.756350 0.517448 0.605718 -0.369836
O56   O     O_R   0.833777 0.391445 0.613140 -0.471897
C65   C     C_2   0.569198 0.466750 0.893050 0.642513
H35   H     H_    0.545712 0.520616 0.869451 0.018830
O57   O     O_2   0.472614 0.435000 0.930384 -0.625367
C66   C     C_2   0.842597 0.346218 0.188222 0.629963
H36   H     H_    0.870220 0.291662 0.208131 0.018436
O58   O     O_2   0.709879 0.360182 0.191539 -0.579369
C67   C     C_2   0.308478 0.684884 0.816079 0.707655
H37   H     H_    0.390455 0.673081 0.776476 -0.055376
O59   O     O_2   0.296300 0.760914 0.841208 -0.465745
N14   N     N_R   0.621701 0.560814 0.116046 0.262131
O60   O     O_R   0.648511 0.481034 0.107967 -0.330346
O61   O     O_R   0.733903 0.624098 0.107699 -0.353168
C68   C     C_2   0.284852 0.728897 0.259124 0.252021
H38   H     H_    0.370210 0.761685 0.229122 0.024936
O62   O     O_2   0.323902 0.683262 0.298319 -0.638479
C69   C     C_2   0.781220 0.917067 0.580453 0.691847
H39   H     H_    0.886808 0.890377 0.572136 0.112285
O63   O     O_2   0.776572 0.972746 0.634391 -0.491655
N15   N     N_R   0.368190 0.075386 0.463199 0.240668
O64   O     O_R   0.312575 0.078524 0.400004 -0.277769
O65   O     O_R   0.276382 0.038054 0.505463 -0.290871
N16   N     N_R   0.365561 0.667394 0.471297 0.235789
O66   O     O_R   0.260295 0.642620 0.513063 -0.390723
O67   O     O_R   0.410031 0.607899 0.424786 -0.378568
C70   C     C_2   0.157740 0.883660 0.208020 0.817163
H40   H     H_    0.231993 0.913294 0.256444 0.075350
O68   O     O_2   0.130409 0.928853 0.165516 -0.394776

loop_
_geom_bond_atom_site_label_1
_geom_bond_atom_site_label_2
_geom_bond_distance
_ccdc_geom_bond_type
P1    Ba1   3.503925 S    
C32   C33   1.449097 A    
C68   H38   1.071273 S    
C28   N13   1.413999 S    
P3    O8    1.765082 S    
N12   O52   1.301365 A    
N4    O32   1.288533 A    
C39   C40   1.382256 A    
C43   N14   1.426510 S    
C55   C56   1.434965 A    
C30   C35   1.432527 A    
N13   O56   1.287508 A    
O3    P6    1.755201 S    
C66   H36   1.063109 S    
C12   H13   1.113404 S    
C69   H39   1.082541 S    
P8    O23   1.546069 D    
C6    C7    1.574912 S    
C25   C30   1.432996 A    
C16   C63   1.503295 S    
C14   H18   1.109798 S    
C7    C60   1.505010 S    
P8    O24   1.751938 S    
C5    N3    1.463490 S    
C63   O49   1.221342 D    
C21   C23   1.416817 A    
C58   N16   1.417707 S    
C3    H2    1.102458 S    
C8    C9    1.530194 S    
C2    N11   1.468954 S    
C61   H31   1.082480 S    
C25   C26   1.432114 A    
P3    O9    1.546199 D    
C13   H15   1.110713 S    
C47   C48   1.386358 A    
Ba1   Ba2   4.811939 S    
C12   N9    1.459064 S    
C56   C57   1.459608 A    
C49   C50   1.431505 A    
C14   H17   1.109686 S    
P1    O1    1.599375 D    
C18   C19   1.414875 A    
C51   C52   1.432549 A    
C36   C37   1.406886 A    
O14   Ba2   2.882330 S    
C31   C38   1.412920 A    
C50   C57   1.569700 S    
Ba1   O13   2.867481 S    
C63   H33   1.080692 S    
P5    O18   1.543730 D    
C28   C29   1.410517 A    
C39   H23   1.082515 S    
C1    H1    1.107739 S    
C69   O63   1.220224 D    
C2    C3    1.573478 S    
C11   C12   1.584081 S    
C48   C49   1.404236 A    
C16   N12   1.465823 S    
H21   C16   1.113159 S    
Ba2   O20   2.885664 S    
N9    O45   1.300392 A    
C6    N4    1.422079 S    
C17   C18   1.399425 A    
C32   C42   1.427359 A    
C47   H28   1.071215 S    
P5    O17   1.763156 S    
C56   C69   1.478919 S    
N16   O66   1.290574 A    
C62   O46   1.221185 D    
C23   C65   1.484704 S    
C35   C67   1.467157 S    
N11   O51   1.296506 A    
N12   O53   1.300982 A    
C49   H27   1.071210 S    
O8    Ba1   2.862189 S    
N11   O50   1.286155 A    
C1    C62   1.503515 S    
P2    O7    1.584917 D    
C53   C54   1.404325 A    
C41   C43   1.411113 A    
C64   O54   1.222114 D    
O10   C8    1.395639 S    
O14   P8    1.760737 S    
C47   C52   1.390622 A    
C66   O58   1.217164 D    
C45   H25   1.050022 S    
N5    O35   1.293867 A    
P7    O22   1.807176 S    
N14   O61   1.296438 A    
C19   C20   1.399917 A    
C61   O39   1.218304 D    
P1    O5    1.781356 S    
C45   C46   1.404307 A    
C65   H35   1.078727 S    
O2    Ba1   3.071459 S    
C3    N10   1.473837 S    
C29   C30   1.453710 A    
N15   O65   1.299119 A    
C70   H40   1.082085 S    
Ba1   O16   2.886125 S    
C35   C36   1.419857 A    
C4    O15   1.386214 S    
C23   C24   1.419569 A    
O11   C2    1.444439 S    
C13   C14   1.520477 S    
C33   C46   1.471608 A    
C38   C41   1.402727 A    
C9    H10   1.109674 S    
C15   C16   1.531960 S    
O2    Ba2   2.868005 S    
C36   C39   1.406180 A    
C11   O22   1.419198 S    
C62   H32   1.076428 S    
C14   H16   1.108551 S    
P1    O2    1.585948 S    
P4    O12   1.599787 D    
N10   O48   1.301507 A    
P4    O15   1.754631 S    
C20   C21   1.413503 A    
N3    O30   1.300791 A    
C8    H7    1.108719 S    
C24   C27   1.428297 A    
C26   C37   1.399790 A    
P3    O11   1.799989 S    
C17   C31   1.400902 A    
C10   H11   1.082556 S    
C4    C5    1.535086 S    
C22   C26   1.409060 A    
O19   C13   1.405142 S    
N8    O42   1.301009 A    
C15   O24   1.413488 S    
C40   C41   1.406371 A    
C4    H3    1.110555 S    
C1    C61   1.506132 S    
C11   H12   1.095309 S    
N1    O25   1.288227 A    
O12   Ba2   2.876293 S    
C3    C70   1.484637 S    
C37   C38   1.431201 A    
C21   C22   1.406196 A    
P8    C27   1.900526 S    
O6    P6    1.778468 S    
C70   O68   1.220671 D    
P5    C48   1.882972 S    
C54   C58   1.397903 A    
P2    Ba1   3.535321 S    
C60   O34   1.221518 D    
C4    H4    1.109345 S    
C42   C43   1.421692 A    
C42   C44   1.426168 A    
C40   H24   1.073216 S    
C51   N15   1.429419 S    
C59   H29   1.078605 S    
N6    O38   1.300957 A    
C7    N5    1.474887 S    
C15   H19   1.109209 S    
O13   Ba2   3.072489 S    
N3    O29   1.300946 A    
P4    Ba2   3.504619 S    
O3    Ba1   2.883020 S    
C53   C57   1.430700 A    
C64   H34   1.080041 S    
N2    O28   1.299325 A    
C11   N7    1.438363 S    
P6    C44   1.909973 S    
P7    O21   1.575178 D    
C68   O62   1.211779 D    
P4    O13   1.585782 S    
C31   C32   1.437619 A    
C9    N6    1.455055 S    
N7    O41   1.293415 A    
N15   O64   1.298042 A    
P2    C55   1.911293 S    
C17   C22   1.428369 A    
C65   O57   1.219675 D    
P4    C29   1.919287 S    
C5    N2    1.452285 S    
C2    C68   1.478933 S    
O6    C10   1.425856 S    
O4    P6    1.536149 D    
O7    Ba1   2.928383 S    
P2    O10   1.759270 S    
N10   O47   1.300085 A    
C19   H22   1.077842 S    
N4    O31   1.293180 A    
C1    C10   1.560971 S    
C18   C34   1.428428 A    
N14   O60   1.295197 A    
C8    H8    1.109568 S    
N13   O55   1.295643 A    
C50   C51   1.459100 A    
C9    H9    1.112197 S    
C53   H26   1.072049 S    
N5    O36   1.297538 A    
C6    C59   1.484797 S    
C13   H14   1.110574 S    
O5    C6    1.407251 S    
C12   N8    1.454944 S    
C15   H20   1.114590 S    
C44   C45   1.402644 A    
C67   O59   1.220354 D    
P7    C52   1.898673 S    
O1    Ba1   2.875531 S    
N7    O40   1.301441 A    
N8    O43   1.298468 A    
P3    C54   1.889036 S    
Ba1   O20   3.057766 S    
O16   P7    1.843727 S    
N1    O26   1.297175 A    
C55   C58   1.405359 A    
C10   N1    1.465498 S    
C5    H5    1.114632 S    
C24   C25   1.423509 A    
N9    O44   1.294921 A    
P5    O19   1.755616 S    
C33   C34   1.439523 A    
Ba2   O21   2.928460 S    
C27   C28   1.407776 A    
C20   C64   1.483081 S    
N16   O67   1.281083 A    
C59   O33   1.215031 D    
O16   Ba2   3.056877 S    
N6    O37   1.298357 A    
C60   H30   1.081532 S    
C67   H37   1.070301 S    
P2    O20   1.610793 S    
P1    C46   1.963617 S    
O17   Ba2   2.862782 S    
C34   C66   1.460688 S    
N2    O27   1.295811 A    
C7    H6    1.102731 S    
