data_mof_unit_7249.cif
_audit_creation_date              2012-12-11T15:22:39-0500
_audit_creation_method            fapswitch 2.2
_symmetry_space_group_name_H-M    P1
_symmetry_Int_Tables_number       1
_space_group_crystal_system       triclinic
_cell_length_a                    22.872103
_cell_length_b                    7.228119
_cell_length_c                    20.761895
_cell_angle_alpha                 90.000072
_cell_angle_beta                  93.35051
_cell_angle_gamma                 90.000027
_cell_volume                      3426.53679653

loop_
_atom_site_label
_atom_site_type_symbol
_atom_type_description
_atom_site_fract_x
_atom_site_fract_y
_atom_site_fract_z
_atom_type_partial_charge
O1    O     O_R   0.438030 0.494310 0.439340 -0.538372
O2    O     O_R   0.561970 0.994310 0.560660 -0.538372
O3    O     O_R   0.556900 0.822900 0.435960 -0.533268
O4    O     O_R   0.443100 0.322900 0.564040 -0.533268
C1    C     C_R   0.575674 0.655493 0.420955 0.716211
C2    C     C_R   0.424325 0.155493 0.579044 0.716212
O5    O     O_R   0.438170 0.823950 0.431660 -0.541050
O6    O     O_R   0.561830 0.323950 0.568340 -0.541049
O7    O     O_R   0.442390 0.995390 0.556340 -0.532025
O8    O     O_R   0.557610 0.495390 0.443660 -0.532025
C3    C     C_R   0.418375 0.655303 0.415688 0.700245
C4    C     C_R   0.581625 0.155303 0.584312 0.700245
O9    O     O_3   0.501520 0.661170 0.540910 -0.375635
O10   O     O_3   0.498480 0.161170 0.459090 -0.375635
V1    V     V_3+5 0.499720 0.935580 0.492410 1.445825
V2    V     V_3+5 0.500280 0.435580 0.507590 1.445825
C5    C     C_R   0.829814 0.934704 0.856541 -0.185966
C6    C     C_R   0.170186 0.434704 0.143458 -0.185965
C7    C     C_R   0.869085 0.083678 0.865803 -0.079754
C8    C     C_R   0.130915 0.583679 0.134197 -0.079753
C9    C     C_R   0.860485 0.243933 0.827815 -0.212159
C10   C     C_R   0.139515 0.743933 0.172185 -0.212159
C11   C     C_R   0.813639 0.255707 0.781131 0.104492
C12   C     C_R   0.186361 0.755707 0.218869 0.104492
C13   C     C_R   0.773767 0.107267 0.773179 0.056683
C14   C     C_R   0.226233 0.607267 0.226821 0.056683
C15   C     C_R   0.781932 0.946407 0.811050 0.040675
C16   C     C_R   0.218068 0.446408 0.188950 0.040675
C17   C     C_R   0.806217 0.412952 0.741894 -0.208045
C18   C     C_R   0.193783 0.912952 0.258107 -0.208044
C19   C     C_R   0.759400 0.424123 0.695609 -0.101420
C20   C     C_R   0.240600 0.924123 0.304391 -0.101418
C21   C     C_R   0.718671 0.279339 0.688219 0.129375
C22   C     C_R   0.281329 0.779339 0.311781 0.129375
C23   C     C_R   0.726072 0.119159 0.726842 -0.026634
C24   C     C_R   0.273928 0.619159 0.273158 -0.026635
C25   C     C_R   0.686312 0.970259 0.718591 0.006997
C26   C     C_R   0.313688 0.470259 0.281410 0.006997
C27   C     C_R   0.694315 0.810256 0.757062 0.382162
C28   C     C_R   0.305684 0.310256 0.242938 0.382163
C29   C     C_R   0.742434 0.798985 0.802401 -0.275487
C30   C     C_R   0.257566 0.298985 0.197599 -0.275486
C31   C     C_R   0.670911 0.291892 0.642675 -0.162337
C32   C     C_R   0.329089 0.791891 0.357325 -0.162337
C33   C     C_R   0.631043 0.144585 0.633971 -0.117187
C34   C     C_R   0.368957 0.644585 0.366029 -0.117186
C35   C     C_R   0.639376 0.984109 0.671842 -0.190604
C36   C     C_R   0.360624 0.484108 0.328158 -0.190606
H1    H     H_    0.835843 0.810804 0.885610 0.128801
H2    H     H_    0.164156 0.310805 0.114389 0.128801
H3    H     H_    0.890740 0.358913 0.833968 0.130076
H4    H     H_    0.109260 0.858914 0.166032 0.130076
H5    H     H_    0.836613 0.527727 0.747059 0.132996
H6    H     H_    0.163387 0.027727 0.252941 0.132996
H7    H     H_    0.754721 0.547186 0.665947 0.140639
H8    H     H_    0.245279 0.047186 0.334054 0.140639
H9    H     H_    0.665354 0.415254 0.613247 0.140948
H10   H     H_    0.334646 0.915253 0.386753 0.140948
H11   H     H_    0.608613 0.870698 0.665359 0.168806
H12   H     H_    0.391387 0.370698 0.334641 0.168805
H13   H     H_    0.749583 0.672878 0.829967 0.144356
H14   H     H_    0.250417 0.172878 0.170033 0.144357
C37   C     C_3   0.238435 0.303127 0.796925 -0.184567
C38   C     C_3   0.761564 0.803126 0.203075 -0.184566
C39   C     C_3   0.253588 0.952536 0.804833 -0.278800
C40   C     C_3   0.746412 0.452535 0.195167 -0.278800
C41   C     C_3   0.303494 0.965188 0.757419 -0.291492
C42   C     C_3   0.696507 0.465186 0.242581 -0.291492
H15   H     H_    0.231656 0.815696 0.798692 0.180603
H16   H     H_    0.768344 0.315695 0.201308 0.180602
H17   H     H_    0.272370 0.956630 0.855306 0.204119
H18   H     H_    0.727630 0.456627 0.144694 0.204121
H19   H     H_    0.346313 0.977513 0.784853 0.204673
H20   H     H_    0.653687 0.477508 0.215148 0.204673
H21   H     H_    0.306347 0.833144 0.730605 0.204285
H22   H     H_    0.693654 0.333142 0.269396 0.204283
C43   C     C_1   0.379067 0.146651 0.625123 -0.127993
C44   C     C_1   0.620932 0.646651 0.374877 -0.127994
C45   C     C_3   0.207702 0.109034 0.792101 0.161998
C46   C     C_3   0.792298 0.609033 0.207899 0.161998
C47   C     C_3   0.289816 0.314033 0.749314 -0.203817
C48   C     C_3   0.710184 0.814032 0.250685 -0.203818
C49   C     C_3   0.293214 0.129382 0.709651 0.089271
C50   C     C_3   0.706786 0.629382 0.290349 0.089272
C51   C     C_3   0.231775 0.102993 0.672717 -0.128016
C52   C     C_3   0.768225 0.602995 0.327283 -0.128016
C53   C     C_3   0.182391 0.084951 0.721483 -0.406385
C54   C     C_3   0.817609 0.584953 0.278517 -0.406387
C55   C     C_1   0.340783 0.138893 0.663262 -0.042181
C56   C     C_1   0.659217 0.638892 0.336738 -0.042181
C57   C     C_1   0.159714 0.093865 0.837627 -0.041828
C58   C     C_1   0.840286 0.593865 0.162373 -0.041828
C59   C     C_1   0.121134 0.083781 0.875331 -0.149607
C60   C     C_1   0.878866 0.583781 0.124669 -0.149607
H23   H     H_    0.148267 0.191815 0.710195 0.144174
H24   H     H_    0.851733 0.691817 0.289805 0.144174
H25   H     H_    0.159760 0.948840 0.716650 0.180226
H26   H     H_    0.840239 0.448842 0.283351 0.180226
H27   H     H_    0.222545 0.230908 0.643859 0.114528
H28   H     H_    0.777454 0.730913 0.356141 0.114529
H29   H     H_    0.204985 0.405674 0.778721 0.110331
H30   H     H_    0.795014 0.905674 0.221278 0.110331
H31   H     H_    0.277044 0.424366 0.713611 0.125171
H32   H     H_    0.722955 0.924366 0.286388 0.125171
O11   O     O_R   0.942420 0.735670 0.056390 -0.531281
O12   O     O_R   0.057580 0.235670 0.943610 -0.531282
O13   O     O_R   0.061840 0.404850 0.068350 -0.542190
O14   O     O_R   0.938160 0.904850 0.931650 -0.542190
C61   C     C_R   0.081589 0.573565 0.084375 0.696994
C62   C     C_R   0.918410 0.073565 0.915625 0.696994
O15   O     O_R   0.943100 0.406010 0.064050 -0.532580
O16   O     O_R   0.056900 0.906010 0.935950 -0.532579
O17   O     O_R   0.938020 0.234710 0.939330 -0.537891
O18   O     O_R   0.061980 0.734710 0.060670 -0.537891
C63   C     C_R   0.924368 0.574487 0.078913 0.713582
C64   C     C_R   0.075631 0.074487 0.921087 0.713581
O19   O     O_3   0.998500 0.567790 0.959120 -0.375961
O20   O     O_3   0.001500 0.067790 0.040880 -0.375961
V3    V     V_3+5 0.000280 0.293330 0.007580 1.429470
V4    V     V_3+5 0.999720 0.793330 0.992420 1.429470
C65   C     C_2   0.254302 0.364087 0.865864 0.786390
O21   O     O_2   0.284995 0.267408 0.902378 -0.539485
O22   O     O_R   0.232281 0.531534 0.887885 -0.681660
H33   H     H_    0.245284 0.558046 0.934492 0.294400
C66   C     C_2   0.745697 0.864085 0.134136 0.786389
O23   O     O_2   0.715005 0.767404 0.097622 -0.539486
O24   O     O_R   0.767718 0.031533 0.112114 -0.681660
H34   H     H_    0.754715 0.058044 0.065508 0.294400
C67   C     C_2   0.229819 0.943154 0.625205 0.776311
O25   O     O_2   0.227479 0.975052 0.567261 -0.560803
O26   O     O_R   0.229716 0.760193 0.647144 -0.679851
H35   H     H_    0.228314 0.666989 0.610599 0.291874
C68   C     C_2   0.770181 0.443159 0.374795 0.776310
O27   O     O_2   0.772522 0.475060 0.432739 -0.560803
O28   O     O_R   0.770285 0.260197 0.352858 -0.679851
H36   H     H_    0.771687 0.166995 0.389404 0.291874
O29   O     O_3   0.659549 0.656383 0.744309 -0.578248
C69   C     C_3   0.623386 0.625264 0.795949 0.068161
H37   H     H_    0.593327 0.744982 0.801285 0.125877
H38   H     H_    0.649798 0.602920 0.842074 0.128222
C70   C     C_3   0.587016 0.451366 0.781271 -0.278418
H39   H     H_    0.560730 0.469797 0.734950 0.204606
H40   H     H_    0.616812 0.331445 0.776160 0.203881
C71   C     C_3   0.545986 0.409998 0.834736 -0.818856
H41   H     H_    0.571404 0.390080 0.881463 0.237566
H42   H     H_    0.521245 0.281087 0.822896 0.233232
H43   H     H_    0.514393 0.525306 0.839350 0.243589
O30   O     O_3   0.340450 0.156382 0.255691 -0.578248
C72   C     C_3   0.376615 0.125265 0.204052 0.068158
H44   H     H_    0.406674 0.244983 0.198718 0.125877
H45   H     H_    0.350204 0.102927 0.157926 0.128223
C73   C     C_3   0.412983 0.951365 0.218729 -0.278414
H46   H     H_    0.439268 0.969793 0.265052 0.204604
H47   H     H_    0.383186 0.831445 0.223840 0.203881
C74   C     C_3   0.454014 0.909995 0.165265 -0.818852
H48   H     H_    0.428596 0.890078 0.118538 0.237565
H49   H     H_    0.478754 0.781083 0.177105 0.233230
H50   H     H_    0.485608 0.025301 0.160652 0.243589
C75   C     C_2   0.348651 0.376591 0.780078 0.789332
O31   O     O_2   0.370056 0.522192 0.762832 -0.576465
O32   O     O_R   0.378495 0.270171 0.827587 -0.644262
H51   H     H_    0.416208 0.330336 0.844893 0.300428
C76   C     C_2   0.651349 0.876586 0.219921 0.789332
O33   O     O_2   0.629943 0.022187 0.237166 -0.576465
O34   O     O_R   0.621505 0.770164 0.172412 -0.644262
H52   H     H_    0.583792 0.830326 0.155105 0.300428

loop_
_geom_bond_atom_site_label_1
_geom_bond_atom_site_label_2
_ccdc_geom_bond_type
C40   C42   S    
C27   O29   S    
C41   C49   S    
O34   H52   S    
C39   C45   S    
O12   V3    S    
C74   H49   S    
C38   C46   S    
O14   V4    S    
C76   O33   D    
O1    C3    A    
C29   H13   S    
C37   H29   S    
O2    C4    A    
C2    O7    A    
C45   C53   S    
O32   H51   S    
O22   H33   S    
C27   C29   A    
C37   C45   S    
C44   C56   T    
C38   H30   S    
C18   H6    S    
C43   C55   T    
C37   C47   S    
C47   C75   S    
C11   C17   A    
C76   O34   S    
C12   C14   A    
C72   H45   S    
C52   C54   S    
O16   C64   A    
C48   C76   S    
C42   H20   S    
O15   V3    S    
O20   V3    S    
C51   C67   S    
O17   V3    S    
C40   H18   S    
C32   H10   S    
C39   C41   S    
C53   H23   S    
C19   C21   A    
O11   V4    S    
C41   H19   S    
C25   C35   A    
C52   H28   S    
C30   H14   S    
C45   C57   S    
C33   C35   A    
O6    V2    S    
C46   C54   S    
C74   H50   S    
O13   C61   A    
C50   C56   S    
C71   H43   S    
O13   V3    S    
O4    V2    S    
C37   C65   S    
C32   C34   A    
C36   H12   S    
C51   C53   S    
C49   C55   S    
C34   C36   A    
C28   O30   S    
C5    C15   A    
O28   H36   S    
C6    C16   A    
O30   C72   S    
C71   H42   S    
O19   V4    S    
C5    H1    S    
O16   V4    S    
C4    C33   S    
C2    C43   S    
C53   H25   S    
O5    V1    S    
C39   H17   S    
O12   C64   A    
C54   H24   S    
C59   C64   S    
C42   C50   S    
C46   C58   S    
O5    C3    A    
C51   H27   S    
C18   C20   A    
C57   C59   T    
C15   C29   A    
C52   C68   S    
C28   C30   A    
C75   O31   D    
C73   C74   S    
C54   H26   S    
O6    C4    A    
C75   O32   S    
C22   C32   A    
O1    V2    S    
C66   O24   S    
O2    V1    S    
C31   C33   A    
C62   O17   A    
C38   C48   S    
C65   O21   D    
C69   H38   S    
C61   O18   A    
C13   C23   A    
C14   C24   A    
C49   C51   S    
C8    C10   A    
C48   C50   S    
C9    C11   A    
C66   O23   D    
C10   C12   A    
C72   C73   S    
O4    C2    A    
C41   H21   S    
C5    C7    A    
O24   H34   S    
C9    H3    S    
O3    V1    S    
C6    H2    S    
C10   H4    S    
C67   O25   D    
C47   H31   S    
C7    C62   S    
C23   C25   A    
C7    C9    A    
C26   C36   A    
O11   C63   A    
C73   H47   S    
C71   H41   S    
O3    C1    A    
C69   C70   S    
C47   C49   S    
C60   C63   S    
C70   C71   S    
C42   H22   S    
C40   C46   S    
O29   C69   S    
C40   H16   S    
C14   C16   A    
C70   H40   S    
O7    V1    S    
C1    O8    A    
C17   C19   A    
O8    V2    S    
C72   H44   S    
C24   C26   A    
C26   C28   A    
C58   C60   T    
C68   O27   D    
C17   H5    S    
C39   H15   S    
C16   C30   A    
C21   C23   A    
C22   C24   A    
O14   C62   A    
C6    C8    A    
C11   C13   A    
C12   C18   A    
C65   O22   S    
C69   H37   S    
C31   H9    S    
C35   H11   S    
C8    C61   S    
C73   H46   S    
C25   C27   A    
C38   C66   S    
O9    V2    S    
C74   H48   S    
C68   O28   S    
C48   H32   S    
O10   V1    S    
C50   C52   S    
C3    C34   S    
O15   C63   A    
C19   H7    S    
C1    C44   S    
C70   H39   S    
C21   C31   A    
C20   H8    S    
O18   V4    S    
O26   H35   S    
C20   C22   A    
C67   O26   S    
C13   C15   A    
