data_mof_unit_48490.cif
_audit_creation_date              2012-12-10T22:11:06-0500
_audit_creation_method            fapswitch 2.2
_symmetry_space_group_name_H-M    P1
_symmetry_Int_Tables_number       1
_space_group_crystal_system       triclinic
_cell_length_a                    12.11362
_cell_length_b                    12.313408
_cell_length_c                    22.961694
_cell_angle_alpha                 91.012014
_cell_angle_beta                  90.530381
_cell_angle_gamma                 90.812669
_cell_volume                      3423.93148912

loop_
_atom_site_label
_atom_site_type_symbol
_atom_type_description
_atom_site_fract_x
_atom_site_fract_y
_atom_site_fract_z
_atom_type_partial_charge
C1    C     C_R   0.653737 0.998553 0.581136 0.900358
C2    C     C_R   0.346267 0.001445 0.418862 0.900327
C3    C     C_R   0.895511 0.768300 0.150234 -0.215156
C4    C     C_R   0.104432 0.231842 0.849692 -0.215126
C5    C     C_R   0.083498 0.898883 0.167349 -0.181141
C6    C     C_R   0.916547 0.101054 0.832690 -0.181230
C7    C     C_R   0.083491 0.817535 0.125275 -0.185603
C8    C     C_R   0.916555 0.182395 0.874768 -0.185595
C9    C     C_R   0.896626 0.129523 0.175493 0.470836
C10   C     C_R   0.103328 0.870615 0.824586 0.470843
C11   C     C_R   0.899399 0.212577 0.135190 -0.304463
C12   C     C_R   0.100556 0.787565 0.864891 -0.304473
C13   C     C_R   0.159729 0.912209 0.294527 -0.237039
C14   C     C_R   0.840171 0.087742 0.705520 -0.237098
C15   C     C_R   0.248259 0.911443 0.333598 -0.025640
C16   C     C_R   0.751654 0.088499 0.666440 -0.025656
C17   C     C_R   0.844076 0.101550 0.306271 -0.096506
C18   C     C_R   0.156117 0.898496 0.693829 -0.096588
C19   C     C_R   0.763876 0.099553 0.348492 -0.199535
C20   C     C_R   0.236332 0.900498 0.651614 -0.199504
C21   C     C_3   0.994628 0.007730 0.247556 -0.083988
C22   C     C_3   0.005373 0.992279 0.752444 -0.083911
C23   C     C_R   0.655024 0.001652 0.420907 0.892181
C24   C     C_R   0.344984 0.998348 0.579097 0.892233
C25   C     C_R   0.095546 0.005734 0.287907 0.069056
C26   C     C_R   0.904453 0.994266 0.712091 0.069055
C27   C     C_R   0.265164 0.001951 0.371655 -0.104421
C28   C     C_R   0.734840 0.998039 0.628340 -0.104397
C29   C     C_R   0.899321 0.005762 0.290253 0.196650
C30   C     C_R   0.100697 0.994241 0.709754 0.196392
C31   C     C_R   0.739495 0.002825 0.376872 -0.020609
C32   C     C_R   0.260533 0.997174 0.623141 -0.020513
C33   C     C_R   0.993113 0.107107 0.208505 0.067817
C34   C     C_R   0.006888 0.892910 0.791503 0.067741
C35   C     C_R   0.997069 0.270693 0.125522 -0.069258
C36   C     C_R   0.002932 0.729321 0.874485 -0.069226
C37   C     C_R   0.991506 0.913216 0.203675 0.136765
C38   C     C_R   0.008487 0.086814 0.796313 0.136945
C39   C     C_R   0.990020 0.751163 0.117126 -0.024626
C40   C     C_R   0.009977 0.248860 0.882864 -0.024593
C41   C     C_R   0.992620 0.662827 0.074914 0.871628
C42   C     C_R   0.007379 0.337179 0.925083 0.871621
C43   C     C_R   0.998813 0.352852 0.081208 0.894776
C44   C     C_R   0.001187 0.647151 0.918794 0.894743
C45   C     C_R   0.116492 0.096000 0.324919 -0.153604
C46   C     C_R   0.883600 0.904045 0.675032 -0.153568
C47   C     C_R   0.199574 0.093877 0.366327 -0.199075
C48   C     C_R   0.800516 0.906162 0.633624 -0.199095
C49   C     C_R   0.878459 0.910505 0.321673 -0.198970
C50   C     C_R   0.121422 0.089443 0.678257 -0.198971
C51   C     C_R   0.797485 0.908375 0.363693 -0.186397
C52   C     C_R   0.202387 0.091572 0.636235 -0.186515
C53   C     C_R   0.091184 0.166330 0.197485 -0.267070
C54   C     C_R   0.908857 0.833561 0.802453 -0.267121
C55   C     C_R   0.092707 0.247695 0.156841 -0.192248
C56   C     C_R   0.907337 0.752194 0.843097 -0.192266
C57   C     C_R   0.895765 0.849130 0.192888 -0.096884
C58   C     C_R   0.104176 0.151020 0.807035 -0.096632
H1    H     H_    0.210820 0.163920 0.395104 0.166125
H2    H     H_    0.789338 0.836159 0.604811 0.166093
H3    H     H_    0.925172 0.837571 0.313420 0.145312
H4    H     H_    0.074600 0.162332 0.686452 0.145355
H5    H     H_    0.168914 0.147463 0.218132 0.172973
H6    H     H_    0.831148 0.852325 0.781753 0.173029
H7    H     H_    0.819749 0.862035 0.216053 0.179629
H8    H     H_    0.180162 0.138203 0.783825 0.179474
H9    H     H_    0.156479 0.950107 0.172372 0.149313
H10   H     H_    0.843611 0.049752 0.827708 0.149357
H11   H     H_    0.142281 0.838977 0.269309 0.172267
H12   H     H_    0.857536 0.160950 0.730775 0.172285
H13   H     H_    0.863743 0.179092 0.287298 0.125918
H14   H     H_    0.136576 0.820974 0.712862 0.126028
H15   H     H_    0.781730 0.833542 0.386480 0.160731
H16   H     H_    0.218010 0.166355 0.613375 0.160691
H17   H     H_    0.169424 0.291190 0.149198 0.172394
H18   H     H_    0.830656 0.708594 0.850683 0.172381
H19   H     H_    0.821765 0.718669 0.143564 0.160273
H20   H     H_    0.178137 0.281558 0.856316 0.160223
H21   H     H_    0.156505 0.806944 0.098993 0.160756
H22   H     H_    0.843586 0.192904 0.901097 0.160735
H23   H     H_    0.825638 0.229376 0.110071 0.158002
H24   H     H_    0.174276 0.770868 0.890068 0.157979
H25   H     H_    0.721501 0.174115 0.359090 0.160381
H26   H     H_    0.278851 0.825978 0.641091 0.160350
H27   H     H_    0.066437 0.167943 0.322422 0.139819
H28   H     H_    0.933732 0.832146 0.677494 0.139855
O1    O     O_R   0.621380 0.090460 0.561410 -0.598170
O2    O     O_R   0.378620 0.909540 0.438590 -0.598133
O3    O     O_R   0.617150 0.909540 0.438590 -0.613493
O4    O     O_R   0.382850 0.090460 0.561410 -0.613471
O5    O     O_R   0.619720 0.093230 0.440890 -0.634498
O6    O     O_R   0.380280 0.906770 0.559110 -0.634487
O7    O     O_R   0.618800 0.906770 0.559110 -0.634049
O8    O     O_R   0.381200 0.093230 0.440890 -0.634062
O9    O     O_R   0.087590 0.627480 0.058790 -0.627595
O10   O     O_R   0.912410 0.372520 0.941210 -0.627571
O11   O     O_R   0.905660 0.383870 0.059980 -0.630465
O12   O     O_R   0.094340 0.616130 0.940020 -0.630454
O13   O     O_R   0.092570 0.390420 0.063230 -0.625448
O14   O     O_R   0.907430 0.609580 0.936770 -0.625432
O15   O     O_R   0.900680 0.620930 0.055550 -0.624979
O16   O     O_R   0.099320 0.379070 0.944450 -0.624958
Zn1   Zn    Zn3+2 0.501730 0.123520 0.501540 0.986178
Zn2   Zn    Zn3+2 0.498270 0.876480 0.498460 0.986201
Zn3   Zn    Zn3+2 0.125690 0.504390 0.002180 0.954257
Zn4   Zn    Zn3+2 0.874310 0.495610 0.997820 0.954264
O17   O     O_3   0.801560 0.067787 0.182416 -0.795167
H29   H     H_    0.742695 0.093911 0.156073 0.332107
O18   O     O_3   0.198343 0.932461 0.817723 -0.795081
H30   H     H_    0.257168 0.906444 0.844123 0.332109
C59   C     C_2   0.323655 0.817476 0.331074 0.920164
O19   O     O_2   0.285964 0.725250 0.324971 -0.637512
O20   O     O_R   0.438017 0.834833 0.333103 -0.794083
H31   H     H_    0.480642 0.764686 0.330493 0.340946
C60   C     C_2   0.676176 0.182400 0.668995 0.920141
O21   O     O_2   0.713787 0.274649 0.675144 -0.637494
O22   O     O_R   0.561828 0.164952 0.666938 -0.794118
H32   H     H_    0.519140 0.235059 0.669574 0.340973

loop_
_geom_bond_atom_site_label_1
_geom_bond_atom_site_label_2
_ccdc_geom_bond_type
C16   C28   A    
C1    O1    A    
C56   H18   S    
C5    C37   A    
C53   H5    S    
C17   C29   A    
C59   O19   D    
C5    H9    S    
C19   C31   A    
C39   C41   S    
C29   C49   A    
C11   H23   S    
O12   Zn3   S    
C13   H11   S    
C10   O18   S    
C42   O10   A    
C43   O13   A    
C52   H16   S    
C19   H25   S    
C21   C33   S    
C60   O21   D    
C22   C38   S    
C24   O6    A    
O16   Zn3   S    
C45   C47   A    
C32   C52   A    
O10   Zn4   S    
O9    Zn3   S    
C51   H15   S    
C38   C58   A    
C44   O12   A    
C11   C35   A    
C58   H8    S    
C4    C40   A    
C60   O22   S    
C18   H14   S    
C1    C28   S    
C50   C52   A    
O17   H29   S    
C6    C38   A    
C2    O2    A    
C2    C27   S    
C18   C30   A    
C12   C36   A    
C35   C43   S    
C18   C20   A    
C55   H17   S    
C6    H10   S    
C30   C50   A    
C3    C39   A    
C9    C33   A    
C14   H12   S    
C13   C25   A    
O13   Zn3   S    
C42   O16   A    
O7    Zn2   S    
O2    Zn2   S    
C48   H2    S    
C46   C48   A    
C53   C55   A    
C33   C53   A    
C22   C34   S    
C54   C56   A    
C49   H3    S    
C35   C55   A    
C15   C59   S    
C2    O8    A    
C59   O20   S    
O5    Zn1   S    
C5    C7    A    
C26   C46   A    
C6    C8    A    
C49   C51   A    
C21   C29   S    
C23   C31   S    
C45   H27   S    
C24   C32   S    
C4    H20   S    
C36   C56   A    
C31   C51   A    
C15   C27   A    
C23   O3    A    
C12   H24   S    
C10   C34   A    
C14   C26   A    
C9    C11   A    
C10   C12   A    
O1    Zn1   S    
O11   Zn4   S    
C3    C57   A    
O8    Zn1   S    
C17   H13   S    
C13   C15   A    
O3    Zn2   S    
C50   H4    S    
C14   C16   A    
C36   C44   S    
C3    H19   S    
C16   C60   S    
C25   C45   A    
C7    H21   S    
O20   H31   S    
C20   C32   A    
C27   C47   A    
O15   Zn4   S    
C21   C25   S    
C28   C48   A    
C22   C30   S    
C43   O11   A    
C57   H7    S    
C24   O4    A    
C34   C54   A    
C9    O17   S    
O14   Zn4   S    
C20   H26   S    
O22   H32   S    
C44   O14   A    
C41   O9    A    
C54   H6    S    
C40   C42   S    
C17   C19   A    
C41   O15   A    
C23   O5    A    
O4    Zn1   S    
O6    Zn2   S    
C47   H1    S    
C21   C37   S    
C1    O7    A    
C22   C26   S    
C4    C58   A    
C8    H22   S    
C7    C39   A    
C8    C40   A    
O18   H30   S    
C37   C57   A    
C46   H28   S    
