data_mof_unit_61225.cif
_audit_creation_date              2012-12-10T16:40:42-0500
_audit_creation_method            fapswitch 2.2
_symmetry_space_group_name_H-M    P1
_symmetry_Int_Tables_number       1
_space_group_crystal_system       triclinic
_cell_length_a                    10.834955
_cell_length_b                    10.822427
_cell_length_c                    19.43774
_cell_angle_alpha                 97.22625
_cell_angle_beta                  91.914973
_cell_angle_gamma                 98.444468
_cell_volume                      2233.53218058

loop_
_atom_site_label
_atom_site_type_symbol
_atom_type_description
_atom_site_fract_x
_atom_site_fract_y
_atom_site_fract_z
_atom_type_partial_charge
C1    C     C_R   0.475067 0.161851 0.484239 0.495360
C2    C     C_2   0.517079 0.483310 0.017080 -0.102102
C3    C     C_2   0.456748 0.560494 0.983768 0.255373
C4    C     C_R   0.524563 0.839074 0.515541 0.508569
C5    C     C_R   0.479482 0.523984 0.763909 0.040615
C6    C     C_2   0.533766 0.975286 0.521823 -0.118157
C7    C     C_2   0.465875 0.027265 0.478197 -0.101619
C8    C     C_2   0.972108 0.536689 0.521773 -0.119243
C9    C     C_2   0.030432 0.462388 0.478219 -0.103237
C10   C     C_R   0.164109 0.472739 0.484250 0.493986
C11   C     C_R   0.836921 0.526650 0.515523 0.507932
C12   C     C_R   0.512415 0.476957 0.092162 0.052596
C13   C     C_R   0.486847 0.513822 0.688514 0.501694
C14   C     C_R   0.512540 0.486179 0.311623 0.502185
C15   C     C_R   0.512369 0.477345 0.236087 0.040594
C16   C     C_R   0.402764 0.488536 0.198664 -0.134988
C17   C     C_R   0.401964 0.485580 0.127026 -0.073572
C18   C     C_3   0.390171 0.757246 0.997663 0.013914
C19   C     C_3   0.512319 0.840107 0.027184 -0.264585
C20   C     C_3   0.519173 0.973833 0.008777 -0.482440
C21   C     C_R   0.620518 0.459714 0.129186 -0.134032
C22   C     C_R   0.620474 0.459362 0.200937 -0.125825
C23   C     C_R   0.577985 0.588371 0.879005 -0.151153
C24   C     C_R   0.585245 0.576567 0.807217 -0.124174
C25   C     C_R   0.365990 0.484845 0.793155 -0.133634
C26   C     C_R   0.358148 0.499408 0.865012 -0.126889
C27   C     C_R   0.464278 0.550394 0.907926 0.022595
H1    H     H_    0.317331 0.498433 0.224840 0.124550
H2    H     H_    0.660471 0.627619 0.912059 0.098639
H3    H     H_    0.705521 0.449160 0.229148 0.125973
H4    H     H_    0.578083 0.426515 0.988329 0.074010
H5    H     H_    0.314735 0.489581 0.099291 0.161690
H6    H     H_    0.310940 0.801944 0.018716 0.150298
H7    H     H_    0.379724 0.753902 0.940312 0.135777
H8    H     H_    0.518311 0.843669 0.084619 0.180275
H9    H     H_    0.593561 0.799131 0.006011 0.154618
H10   H     H_    0.515202 0.972465 0.951498 0.150660
H11   H     H_    0.608459 0.031270 0.030698 0.149808
H12   H     H_    0.270093 0.469551 0.887246 0.124269
H13   H     H_    0.440568 0.018405 0.030780 0.149660
H14   H     H_    0.596101 0.033605 0.562120 0.105837
H15   H     H_    0.403421 0.971201 0.437300 0.124969
H16   H     H_    0.024529 0.605016 0.562031 0.104685
H17   H     H_    0.980331 0.393820 0.437383 0.122617
H18   H     H_    0.673636 0.607209 0.785547 0.130775
H19   H     H_    0.283156 0.445111 0.760496 0.130720
H20   H     H_    0.705692 0.449677 0.102788 0.102846
O1    O     O_3   0.500000 0.500000 0.500000 -0.440833
O2    O     O_R   0.410860 0.431690 0.648970 -0.544024
O3    O     O_R   0.578570 0.421470 0.344370 -0.545473
O4    O     O_R   0.567340 0.590030 0.662290 -0.547432
O5    O     O_R   0.443230 0.556810 0.344370 -0.543762
O6    O     O_3   0.379743 0.636237 0.019394 -0.585660
O7    O     O_R   0.229880 0.548640 0.449830 -0.536149
O8    O     O_R   0.775840 0.445670 0.468570 -0.541677
O9    O     O_R   0.404020 0.217050 0.524780 -0.532308
O10   O     O_R   0.590260 0.788640 0.556820 -0.535793
O11   O     O_R   0.555650 0.222860 0.449830 -0.534053
O12   O     O_R   0.450070 0.771450 0.468560 -0.539847
O13   O     O_R   0.213590 0.407490 0.524780 -0.534320
O14   O     O_R   0.780700 0.598200 0.556830 -0.537292
Zn1   Zn    Zn3+2 0.407400 0.592620 0.441700 0.937568
Zn2   Zn    Zn3+2 0.384130 0.390950 0.548790 0.939815
Zn3   Zn    Zn3+2 0.607710 0.617180 0.567810 0.941364
Zn4   Zn    Zn3+2 0.600760 0.399250 0.441700 0.937439

loop_
_geom_bond_atom_site_label_1
_geom_bond_atom_site_label_2
_ccdc_geom_bond_type
C4    O10   A    
C12   C17   A    
O14   Zn3   S    
C10   O13   A    
C23   C24   A    
C16   H1    S    
C6    C7    D    
O2    Zn2   S    
C23   C27   A    
O1    Zn4   S    
C20   H11   S    
C9    C10   S    
C2    H4    S    
O11   Zn4   S    
O1    Zn1   S    
C19   C20   S    
C8    H16   S    
C2    C12   S    
C3    C27   S    
C2    C3    D    
O9    Zn2   S    
C19   H8    S    
C21   C22   A    
C20   H10   S    
C3    O6    S    
C26   C27   A    
C14   O3    A    
C5    C24   A    
C8    C11   S    
C13   O2    A    
C24   H18   S    
C23   H2    S    
C4    O12   A    
C14   O5    A    
O8    Zn4   S    
C1    O9    A    
C19   H9    S    
C18   H7    S    
C13   O4    A    
C20   H13   S    
O3    Zn4   S    
O13   Zn2   S    
C26   H12   S    
O1    Zn3   S    
C18   H6    S    
C10   O7    A    
C15   C16   A    
C12   C21   A    
C11   O8    A    
C5    C25   A    
O10   Zn3   S    
C4    C6    S    
C18   C19   S    
C7    H15   S    
C17   H5    S    
C14   C15   S    
C8    C9    D    
C9    H17   S    
O5    Zn1   S    
C22   H3    S    
C18   O6    S    
C1    C7    S    
C25   C26   A    
C1    O11   A    
C5    C13   S    
C25   H19   S    
C15   C22   A    
O7    Zn1   S    
O4    Zn3   S    
O1    Zn2   S    
O12   Zn1   S    
C21   H20   S    
C16   C17   A    
C11   O14   A    
C6    H14   S    
