data_mof_unit_5527.cif
_audit_creation_date              2012-12-10T18:12:13-0500
_audit_creation_method            fapswitch 2.2
_symmetry_space_group_name_H-M    P1
_symmetry_Int_Tables_number       1
_space_group_crystal_system       triclinic
_cell_length_a                    18.352666
_cell_length_b                    18.361605
_cell_length_c                    42.882821
_cell_angle_alpha                 90.165435
_cell_angle_beta                  90.159255
_cell_angle_gamma                 90.256799
_cell_volume                      14450.5801406

loop_
_atom_site_label
_atom_site_type_symbol
_atom_type_description
_atom_site_fract_x
_atom_site_fract_y
_atom_site_fract_z
_atom_type_partial_charge
C1    C     C_R   0.963953 0.457909 0.887284 0.268087
C2    C     C_R   0.445521 0.038822 0.615339 0.270983
C3    C     C_R   0.233586 0.712148 0.277924 0.344935
C4    C     C_R   0.680717 0.734797 0.737324 0.323625
C5    C     C_R   0.315852 0.263383 0.266031 0.332543
C6    C     C_R   0.238760 0.708567 0.722828 0.324678
C7    C     C_R   0.767688 0.287103 0.277759 0.343116
C8    C     C_R   0.292164 0.760599 0.277180 0.319001
C9    C     C_R   0.712279 0.232848 0.722258 0.343489
C10   C     C_R   0.735185 0.681211 0.262839 0.323931
C11   C     C_R   0.263449 0.315809 0.734518 0.332528
C12   C     C_R   0.708697 0.239250 0.276957 0.324666
C13   C     C_R   0.051649 0.458506 0.385141 0.274922
C14   C     C_R   0.287147 0.767147 0.722079 0.343354
C15   C     C_R   0.265109 0.319167 0.263232 0.326202
C16   C     C_R   0.736498 0.684132 0.734372 0.331468
C17   C     C_R   0.819157 0.765024 0.237126 0.324559
C18   C     C_R   0.184166 0.236610 0.765493 0.332685
C19   C     C_R   0.260429 0.791913 0.223319 0.313436
C20   C     C_R   0.732887 0.212845 0.777913 0.343340
C21   C     C_R   0.182867 0.236541 0.235550 0.319748
C22   C     C_R   0.815887 0.763453 0.765637 0.331609
C23   C     C_R   0.737519 0.209722 0.222531 0.323931
C24   C     C_R   0.949809 0.440381 0.617817 0.266419
C25   C     C_R   0.267101 0.787749 0.777734 0.343456
C26   C     C_R   0.791461 0.261248 0.777161 0.324434
C27   C     C_R   0.211952 0.733284 0.222419 0.326110
C28   C     C_R   0.234812 0.180806 0.762526 0.323567
C29   C     C_R   0.763346 0.815721 0.234281 0.333500
C30   C     C_R   0.208208 0.739777 0.776899 0.325491
C31   C     C_R   0.786167 0.268148 0.221893 0.345293
C32   C     C_R   0.765230 0.819234 0.762690 0.323408
C33   C     C_R   0.239489 0.187148 0.232192 0.336873
C34   C     C_R   0.196486 0.303526 0.750000 -0.378197
C35   C     C_R   0.559627 0.050113 0.382189 0.265877
C36   C     C_R   0.804117 0.696122 0.249998 -0.353879
C37   C     C_R   0.695867 0.195813 0.750055 -0.370497
C38   C     C_R   0.303543 0.803384 0.250192 -0.377924
C39   C     C_R   0.803495 0.696495 0.750000 -0.378528
C40   C     C_R   0.196559 0.304450 0.249729 -0.363118
C41   C     C_R   0.304150 0.804170 0.749940 -0.370576
C42   C     C_R   0.695988 0.197133 0.249784 -0.392724
C43   C     C_R   0.196011 0.695690 0.250111 -0.361999
C44   C     C_R   0.803102 0.303751 0.750109 -0.393564
C45   C     C_R   0.696648 0.803683 0.250038 -0.378822
C46   C     C_R   0.541696 0.948480 0.614873 0.274729
C47   C     C_R   0.304001 0.196007 0.750009 -0.352948
C48   C     C_R   0.804052 0.304243 0.249883 -0.369533
C49   C     C_R   0.196256 0.696894 0.749882 -0.393626
C50   C     C_R   0.304631 0.197582 0.249379 -0.382944
C51   C     C_R   0.696022 0.803972 0.750007 -0.355213
C52   C     C_3   0.427451 0.318864 0.749660 0.137466
C53   C     C_3   0.503296 0.336982 0.737242 -0.322676
C54   C     C_3   0.549363 0.376929 0.761582 -0.995322
C55   C     C_3   0.628135 0.745602 0.313320 0.149560
C56   C     C_3   0.654806 0.683145 0.334009 -0.389429
C57   C     C_R   0.960978 0.554367 0.384668 0.271128
C58   C     C_3   0.648007 0.702303 0.368529 -0.794789
C59   C     C_3   0.725307 0.393084 0.695567 0.219461
C60   C     C_3   0.655303 0.377812 0.677115 -0.339503
C61   C     C_3   0.611676 0.447388 0.672084 -0.961363
C62   C     C_3   0.153362 0.709034 0.319003 0.127822
C63   C     C_3   0.173538 0.773289 0.340235 -0.339429
C64   C     C_3   0.107140 0.801092 0.357913 -0.827368
C65   C     C_3   0.572542 0.681084 0.749149 0.136749
C66   C     C_3   0.496612 0.663082 0.736565 -0.320027
C67   C     C_3   0.450578 0.623252 0.760746 -0.996085
C68   C     C_R   0.042007 0.536213 0.612725 0.268029
C69   C     C_3   0.372076 0.254607 0.313740 0.145714
C70   C     C_3   0.346731 0.317523 0.334573 -0.388948
C71   C     C_3   0.354106 0.298492 0.369054 -0.780439
C72   C     C_3   0.272939 0.607062 0.695051 0.212092
C73   C     C_3   0.342747 0.622145 0.676630 -0.335247
C74   C     C_3   0.386007 0.552418 0.671340 -0.961531
C75   C     C_3   0.849188 0.286804 0.318506 0.111135
C76   C     C_3   0.828094 0.221539 0.338820 -0.316918
C77   C     C_3   0.894225 0.191072 0.355932 -0.842490
C78   C     C_3   0.393866 0.727202 0.305057 0.213554
C79   C     C_R   0.018872 0.512731 0.933446 -0.106362
C80   C     C_3   0.379437 0.657826 0.323832 -0.336354
C81   C     C_3   0.449465 0.614955 0.329015 -0.959607
C82   C     C_3   0.711186 0.152751 0.681002 0.111083
C83   C     C_3   0.775539 0.174642 0.660294 -0.318904
C84   C     C_3   0.804628 0.109448 0.642119 -0.837217
C85   C     C_3   0.680856 0.572970 0.251298 0.137783
C86   C     C_3   0.663067 0.497344 0.264009 -0.321569
C87   C     C_3   0.622210 0.451065 0.240019 -0.996629
C88   C     C_3   0.255886 0.373047 0.687136 0.151120
C89   C     C_3   0.318942 0.347142 0.666586 -0.389924
C90   C     C_R   0.002390 0.503123 0.066213 -0.131535
C91   C     C_3   0.300313 0.354209 0.632023 -0.796749
C92   C     C_3   0.607826 0.273420 0.304992 0.220165
C93   C     C_3   0.623343 0.343013 0.323668 -0.339583
C94   C     C_3   0.553770 0.386484 0.329024 -0.958486
C95   C     C_3   0.289738 0.847612 0.681113 0.126065
C96   C     C_3   0.226014 0.827224 0.659616 -0.338741
C97   C     C_3   0.198493 0.893420 0.641738 -0.826007
C98   C     C_3   0.317927 0.427857 0.251887 0.137047
C99   C     C_3   0.335581 0.503610 0.264692 -0.317700
C100  C     C_3   0.373624 0.550697 0.240351 -0.995531
C101  C     C_R   0.496172 0.997155 0.933898 -0.131867
C102  C     C_3   0.743758 0.626657 0.686908 0.146341
C103  C     C_3   0.680592 0.652688 0.666355 -0.389963
C104  C     C_3   0.698628 0.644884 0.631789 -0.781895
C105  C     C_3   0.928423 0.818011 0.248284 0.137524
C106  C     C_3   0.004169 0.834880 0.235330 -0.312825
C107  C     C_3   0.051892 0.873540 0.259486 -1.000306
C108  C     C_3   0.126986 0.244258 0.812893 0.150514
C109  C     C_3   0.152989 0.181270 0.833441 -0.389403
C110  C     C_3   0.145950 0.199906 0.868004 -0.796149
C111  C     C_3   0.211944 0.882183 0.193690 0.144005
C112  C     C_R   0.945610 0.538267 0.115275 0.270526
C113  C     C_R   0.486856 0.980345 0.066670 -0.104852
C114  C     C_3   0.219822 0.924181 0.163221 -0.244104
C115  C     C_3   0.154804 0.974207 0.157876 -0.971297
C116  C     C_3   0.652439 0.210360 0.818899 0.125753
C117  C     C_3   0.672908 0.274236 0.840290 -0.337471
C118  C     C_3   0.606772 0.301812 0.858213 -0.829144
C119  C     C_3   0.074538 0.181222 0.245169 0.137591
C120  C     C_3   0.998681 0.165581 0.231954 -0.311168
C121  C     C_3   0.951169 0.125367 0.255506 -0.998814
C122  C     C_3   0.873284 0.756136 0.813119 0.145794
C123  C     C_3   0.847150 0.819248 0.833669 -0.389490
C124  C     C_R   0.518499 0.012859 0.433444 -0.106495
C125  C     C_3   0.854915 0.801228 0.868236 -0.781625
C126  C     C_3   0.769663 0.109352 0.193518 0.210372
C127  C     C_3   0.838094 0.124642 0.174217 -0.338236
C128  C     C_3   0.880530 0.054845 0.167974 -0.952512
C129  C     C_3   0.347184 0.788871 0.819005 0.110905
C130  C     C_3   0.325260 0.724535 0.839699 -0.318105
C131  C     C_3   0.390452 0.695488 0.857900 -0.839158
C132  C     C_3   0.893021 0.227095 0.804929 0.211993
C133  C     C_3   0.877931 0.157309 0.823339 -0.335173
C134  C     C_3   0.947699 0.114094 0.828641 -0.961152
C135  C     C_R   0.501738 0.003376 0.566202 -0.132026
C136  C     C_3   0.209025 0.654995 0.180574 0.118270
C137  C     C_3   0.273292 0.677420 0.159911 -0.323843
C138  C     C_3   0.302269 0.612661 0.141422 -0.833125
C139  C     C_3   0.181043 0.072660 0.750381 0.137532
C140  C     C_3   0.162958 0.996848 0.762803 -0.322586
C141  C     C_3   0.123017 0.950768 0.738467 -0.995139
C142  C     C_3   0.754308 0.872776 0.186874 0.151653
C143  C     C_3   0.816770 0.847638 0.165840 -0.390032
C144  C     C_3   0.796286 0.853783 0.131432 -0.795316
C145  C     C_3   0.106801 0.774686 0.804408 0.219415
C146  C     C_R   0.996558 0.498282 0.433805 -0.131589
C147  C     C_3   0.122062 0.844686 0.822845 -0.339492
C148  C     C_3   0.052436 0.888262 0.827886 -0.961012
C149  C     C_3   0.788106 0.350090 0.181450 0.124623
C150  C     C_3   0.723743 0.330845 0.160114 -0.338364
C151  C     C_3   0.696268 0.397813 0.142759 -0.827283
C152  C     C_3   0.819011 0.927355 0.750896 0.136843
C153  C     C_3   0.836976 0.003251 0.763491 -0.319841
C154  C     C_3   0.876813 0.049296 0.739318 -0.996068
C155  C     C_3   0.257075 0.140852 0.183204 0.128239
C156  C     C_3   0.199906 0.175814 0.161875 -0.380444
C157  C     C_R   0.987117 0.481405 0.566554 -0.106450
C158  C     C_3   0.225975 0.178356 0.128134 -0.767717
C159  C     C_R   0.969353 0.463245 0.919858 0.378031
C160  C     C_R   0.944003 0.535795 0.082559 0.387909
C161  C     C_R   0.553703 0.962563 0.917793 0.383606
C162  C     C_R   0.446387 0.932852 0.085609 0.393629
C163  C     C_R   0.064169 0.555952 0.914656 0.392328
C164  C     C_R   0.552314 0.959094 0.885188 0.275338
C165  C     C_R   0.039040 0.446976 0.082367 0.384875
C166  C     C_R   0.461714 0.054482 0.917550 0.387034
C167  C     C_R   0.533963 0.032364 0.080122 0.377995
C168  C     C_R   0.468936 0.963443 0.419839 0.378145
C169  C     C_R   0.443712 0.036471 0.582622 0.387672
C170  C     C_R   0.053238 0.462237 0.417735 0.384081
C171  C     C_R   0.943994 0.435995 0.585334 0.392362
C172  C     C_R   0.563973 0.055937 0.414673 0.392218
C173  C     C_R   0.537963 0.946844 0.582280 0.384158
C174  C     C_R   0.963303 0.556188 0.417385 0.387497
C175  C     C_R   0.452648 0.937543 0.118074 0.258293
C176  C     C_R   0.036594 0.530922 0.580149 0.378116
C177  C     C_R   0.008532 0.502096 0.868336 -0.334553
C178  C     C_R   0.998772 0.498350 0.131566 -0.336700
C179  C     C_R   0.501519 0.001381 0.868510 -0.339294
C180  C     C_R   0.498054 0.991245 0.131728 -0.331075
C181  C     C_R   0.508421 0.002096 0.368335 -0.334513
C182  C     C_R   0.498437 0.998396 0.631556 -0.337869
C183  C     C_R   0.001593 0.501595 0.368451 -0.337844
C184  C     C_R   0.997899 0.491537 0.631662 -0.334641
C185  C     C_R   0.979325 0.570913 0.983105 0.363308
C186  C     C_R   0.059689 0.550203 0.882172 0.266458
C187  C     C_R   0.079661 0.489207 0.016831 0.359727
C188  C     C_R   0.422427 0.014162 0.984358 0.366800
C189  C     C_R   0.518820 0.922962 0.015815 0.367729
C190  C     C_R   0.077252 0.482785 0.984299 0.367810
C191  C     C_R   0.982563 0.575818 0.015714 0.365459
C192  C     C_R   0.512584 0.920371 0.983278 0.358464
C193  C     C_R   0.427000 0.017416 0.016985 0.363725
C194  C     C_R   0.478976 0.071185 0.483078 0.363177
C195  C     C_R   0.579019 0.989228 0.516852 0.359078
C196  C     C_R   0.923735 0.517674 0.484326 0.365925
C197  C     C_R   0.042576 0.448770 0.114964 0.275550
C198  C     C_R   0.017227 0.423314 0.515667 0.367756
C199  C     C_R   0.576671 0.982801 0.484321 0.367828
C200  C     C_R   0.482172 0.076124 0.515687 0.365987
C201  C     C_R   0.010814 0.421001 0.483135 0.359091
C202  C     C_R   0.928683 0.520853 0.516934 0.363073
C203  C     C_R   0.520007 0.022114 0.532699 -0.148040
C204  C     C_R   0.522586 0.019943 0.467573 -0.126110
C205  C     C_R   0.980006 0.477316 0.532427 -0.126146
C206  C     C_R   0.977826 0.479954 0.467304 -0.147865
C207  C     C_R   0.020582 0.521900 0.032704 -0.147748
C208  C     C_R   0.459702 0.053080 0.884816 0.271963
C209  C     C_R   0.023033 0.519797 0.967576 -0.126098
C210  C     C_R   0.479700 0.975665 0.032541 -0.125553
C211  C     C_R   0.477831 0.978221 0.967393 -0.147616
C212  C     C_R   0.500262 0.999669 0.834248 0.937040
C213  C     C_R   0.499755 0.998988 0.165792 0.975242
C214  C     C_R   0.001087 0.500274 0.834224 0.971803
C215  C     C_R   0.000400 0.499724 0.165783 0.940007
C216  C     C_R   0.000268 0.499667 0.334228 0.939246
C217  C     C_R   0.999728 0.498923 0.665773 0.972294
C218  C     C_R   0.501070 0.000273 0.334222 0.971777
C219  C     C_R   0.539535 0.038034 0.112682 0.264499
C220  C     C_R   0.500339 0.999729 0.665778 0.938697
C221  C     C_R   0.639977 0.139813 0.749996 0.861436
C222  C     C_R   0.359708 0.859956 0.250093 0.951406
C223  C     C_R   0.859777 0.640216 0.749999 0.904647
C224  C     C_R   0.140131 0.360016 0.249966 0.901587
C225  C     C_R   0.360173 0.860036 0.750006 0.861480
C226  C     C_R   0.639975 0.140379 0.249921 0.949620
C227  C     C_R   0.140174 0.359835 0.749998 0.906611
C228  C     C_R   0.860023 0.640013 0.249999 0.907227
C229  C     C_R   0.640227 0.859886 0.250017 0.907237
C230  C     C_R   0.463667 0.958044 0.387263 0.267730
C231  C     C_R   0.360005 0.139994 0.750005 0.907607
C232  C     C_R   0.860156 0.360046 0.249993 0.863146
C233  C     C_R   0.140062 0.640303 0.749962 0.947753
C234  C     C_R   0.360172 0.140592 0.249782 0.897943
C235  C     C_R   0.640045 0.859955 0.750004 0.902565
C236  C     C_R   0.139993 0.639805 0.250011 0.860966
C237  C     C_R   0.859691 0.359945 0.750033 0.947700
C238  C     C_R   0.319251 0.265158 0.737491 0.323706
C239  C     C_R   0.684622 0.737061 0.265790 0.332800
C240  C     C_R   0.760228 0.291754 0.723091 0.325533
Cl1   Cl    Cl    0.898771 0.398105 0.870521 -0.502926
Cl2   Cl    Cl    0.376789 0.086507 0.635729 -0.525847
Cl3   Cl    Cl    0.112780 0.399167 0.365926 -0.505461
Cl4   Cl    Cl    0.898396 0.378937 0.640852 -0.512029
Cl5   Cl    Cl    0.621205 0.101397 0.359166 -0.512236
Cl6   Cl    Cl    0.601232 0.887573 0.634100 -0.505817
Cl7   Cl    Cl    0.913072 0.622926 0.364280 -0.525842
Cl8   Cl    Cl    0.101797 0.601378 0.629504 -0.502841
Cl9   Cl    Cl    0.923229 0.630959 0.961762 -0.408483
Cl10  Cl    Cl    0.164728 0.476842 0.035661 -0.384916
Cl11  Cl    Cl    0.337233 0.033258 0.966797 -0.382138
Cl12  Cl    Cl    0.876389 0.585434 0.135580 -0.525836
Cl13  Cl    Cl    0.573644 0.858792 0.035485 -0.389665
Cl14  Cl    Cl    0.143572 0.430594 0.964616 -0.391618
Cl15  Cl    Cl    0.960600 0.660385 0.033175 -0.380650
Cl16  Cl    Cl    0.528073 0.835881 0.964440 -0.381308
Cl17  Cl    Cl    0.364726 0.071052 0.038320 -0.419424
Cl18  Cl    Cl    0.423096 0.131367 0.461703 -0.409660
Cl19  Cl    Cl    0.663931 0.976347 0.535746 -0.381949
Cl20  Cl    Cl    0.838916 0.539062 0.466930 -0.380104
Cl21  Cl    Cl    0.069718 0.357175 0.535304 -0.390414
Cl22  Cl    Cl    0.642879 0.930398 0.464670 -0.390760
Cl23  Cl    Cl    0.614671 0.901037 0.865977 -0.504363
Cl24  Cl    Cl    0.460613 0.160847 0.533100 -0.380126
Cl25  Cl    Cl    0.023904 0.336194 0.464210 -0.381503
Cl26  Cl    Cl    0.868417 0.576629 0.538323 -0.408754
Cl27  Cl    Cl    0.913250 0.408541 0.943808 -0.410167
Cl28  Cl    Cl    0.858887 0.549675 0.063968 -0.388611
Cl29  Cl    Cl    0.637763 0.944739 0.936680 -0.390842
Cl30  Cl    Cl    0.387160 0.867526 0.068575 -0.421001
Cl31  Cl    Cl    0.126492 0.618005 0.931932 -0.413133
Cl32  Cl    Cl    0.059852 0.363538 0.063578 -0.396462
Cl33  Cl    Cl    0.444634 0.138840 0.936242 -0.387895
Cl34  Cl    Cl    0.405759 0.873215 0.141397 -0.535202
Cl35  Cl    Cl    0.585396 0.091162 0.056038 -0.410474
Cl36  Cl    Cl    0.412623 0.908902 0.443767 -0.410215
Cl37  Cl    Cl    0.358572 0.050929 0.564138 -0.388980
Cl38  Cl    Cl    0.136764 0.442281 0.436655 -0.390810
Cl39  Cl    Cl    0.881996 0.373637 0.568047 -0.412621
Cl40  Cl    Cl    0.626363 0.117889 0.431970 -0.412250
Cl41  Cl    Cl    0.558112 0.863374 0.563379 -0.390300
Cl42  Cl    Cl    0.948635 0.641258 0.435866 -0.389141
Cl43  Cl    Cl    0.091188 0.587156 0.556211 -0.410046
Cl44  Cl    Cl    0.121040 0.601717 0.859127 -0.512121
Cl45  Cl    Cl    0.102492 0.388426 0.134310 -0.517659
Cl46  Cl    Cl    0.410505 0.120926 0.864552 -0.523263
Cl47  Cl    Cl    0.596297 0.105941 0.129373 -0.507150
Cl48  Cl    Cl    0.398446 0.898330 0.370470 -0.503818
H1    H     H_    0.433326 0.283695 0.770673 0.120001
H2    H     H_    0.622435 0.633126 0.329028 0.249368
H3    H     H_    0.369884 0.401009 0.245050 0.157366
H4    H     H_    0.284335 0.530689 0.271973 0.260032
H5    H     H_    0.371518 0.498413 0.285471 0.230799
H6    H     H_    0.426592 0.526184 0.233697 0.273289
H7    H     H_    0.383901 0.605814 0.250104 0.263423
H8    H     H_    0.338893 0.556198 0.219264 0.261685
H9    H     H_    0.760539 0.571753 0.678808 0.169133
H10   H     H_    0.792221 0.662878 0.683701 0.124205
H11   H     H_    0.630718 0.620478 0.671604 0.249710
H12   H     H_    0.669476 0.710988 0.671251 0.278404
H13   H     H_    0.712987 0.671885 0.328976 0.275805
H14   H     H_    0.747851 0.677521 0.625997 0.282809
H15   H     H_    0.652220 0.664871 0.617571 0.303455
H16   H     H_    0.708477 0.586882 0.625775 0.261133
H17   H     H_    0.934557 0.783087 0.269360 0.119565
H18   H     H_    0.901935 0.870254 0.254997 0.160207
H19   H     H_    0.030954 0.783328 0.228217 0.262900
H20   H     H_    0.998943 0.870064 0.214390 0.224326
H21   H     H_    0.027691 0.926801 0.265966 0.274219
H22   H     H_    0.106945 0.883264 0.249664 0.254820
H23   H     H_    0.057588 0.839531 0.280699 0.263471
H24   H     H_    0.680880 0.751649 0.374055 0.284203
H25   H     H_    0.072134 0.261219 0.820926 0.169651
H26   H     H_    0.163349 0.292649 0.816191 0.125498
H27   H     H_    0.120327 0.131559 0.828240 0.248828
H28   H     H_    0.211146 0.169693 0.828499 0.276361
H29   H     H_    0.179210 0.248856 0.873752 0.284461
H30   H     H_    0.165702 0.153534 0.882228 0.299811
H31   H     H_    0.088138 0.210455 0.874057 0.261496
H32   H     H_    0.212046 0.921759 0.213445 0.137381
H33   H     H_    0.158572 0.853048 0.193187 0.164409
H34   H     H_    0.270681 0.957172 0.163985 0.250787
H35   H     H_    0.668350 0.656358 0.382854 0.300075
H36   H     H_    0.223681 0.885149 0.143432 0.266828
H37   H     H_    0.104039 0.941584 0.155187 0.278197
H38   H     H_    0.163378 0.006345 0.136301 0.289146
H39   H     H_    0.148420 0.012240 0.177852 0.278180
H40   H     H_    0.625161 0.167678 0.833071 0.186678
H41   H     H_    0.611686 0.228084 0.801167 0.087878
H42   H     H_    0.715322 0.256582 0.857177 0.276202
H43   H     H_    0.695417 0.319582 0.826118 0.241447
H44   H     H_    0.563850 0.320357 0.841784 0.250266
H45   H     H_    0.623174 0.348420 0.873260 0.293544
H46   H     H_    0.590164 0.712415 0.374669 0.261713
H47   H     H_    0.584267 0.257995 0.873238 0.291868
H48   H     H_    0.068585 0.214022 0.266951 0.115146
H49   H     H_    0.101181 0.128404 0.250804 0.154593
H50   H     H_    0.972019 0.217744 0.225680 0.260808
H51   H     H_    0.003647 0.131914 0.210483 0.231929
H52   H     H_    0.975243 0.071569 0.261132 0.273454
H53   H     H_    0.895991 0.116578 0.245551 0.263925
H54   H     H_    0.945829 0.157866 0.277243 0.261507
H55   H     H_    0.928197 0.739380 0.821243 0.169202
H56   H     H_    0.837058 0.707678 0.816301 0.124119
H57   H     H_    0.755657 0.437379 0.683635 0.193968
H58   H     H_    0.879341 0.869127 0.828432 0.249923
H59   H     H_    0.788821 0.830308 0.828759 0.278446
H60   H     H_    0.822304 0.751993 0.874015 0.282532
H61   H     H_    0.834840 0.847591 0.882451 0.303908
H62   H     H_    0.912945 0.791449 0.874266 0.261084
H63   H     H_    0.737879 0.065670 0.181650 0.194696
H64   H     H_    0.785192 0.087285 0.216834 0.105507
H65   H     H_    0.822443 0.149722 0.151623 0.273693
H66   H     H_    0.874248 0.162928 0.187026 0.249530
H67   H     H_    0.895929 0.028349 0.190292 0.267516
H68   H     H_    0.711745 0.414237 0.719285 0.100839
H69   H     H_    0.931006 0.067938 0.154881 0.287768
H70   H     H_    0.847108 0.016493 0.153826 0.277214
H71   H     H_    0.374637 0.830680 0.833747 0.181018
H72   H     H_    0.388161 0.771266 0.801398 0.088116
H73   H     H_    0.282548 0.742160 0.856396 0.280429
H74   H     H_    0.302674 0.679895 0.824986 0.245151
H75   H     H_    0.433623 0.676935 0.841648 0.247296
H76   H     H_    0.372972 0.648589 0.872402 0.299973
H77   H     H_    0.413030 0.738481 0.873489 0.284964
H78   H     H_    0.937260 0.257705 0.816971 0.193689
H79   H     H_    0.669128 0.353653 0.654095 0.274231
H80   H     H_    0.914227 0.213227 0.781269 0.105316
H81   H     H_    0.853500 0.171318 0.846262 0.273817
H82   H     H_    0.839111 0.122371 0.810217 0.247724
H83   H     H_    0.973850 0.100693 0.806010 0.269070
H84   H     H_    0.934633 0.062491 0.840898 0.285954
H85   H     H_    0.986355 0.146048 0.843246 0.278106
H86   H     H_    0.166811 0.628590 0.165688 0.181495
H87   H     H_    0.226526 0.613042 0.197761 0.087116
H88   H     H_    0.255574 0.720508 0.143421 0.277083
H89   H     H_    0.318062 0.699633 0.174659 0.247288
H90   H     H_    0.620763 0.338680 0.690084 0.246452
H91   H     H_    0.321101 0.569272 0.157504 0.247406
H92   H     H_    0.348997 0.630491 0.126885 0.301252
H93   H     H_    0.259126 0.590285 0.125848 0.284440
H94   H     H_    0.216207 0.066792 0.729358 0.120514
H95   H     H_    0.129225 0.100085 0.743729 0.161340
H96   H     H_    0.214181 0.968909 0.769556 0.255953
H97   H     H_    0.128149 0.002093 0.783856 0.232202
H98   H     H_    0.070064 0.976127 0.732341 0.273650
H99   H     H_    0.112492 0.895596 0.747977 0.263031
H100  H     H_    0.156574 0.945238 0.717112 0.263399
H101  H     H_    0.598513 0.473334 0.694813 0.269350
H102  H     H_    0.736529 0.927533 0.179056 0.169674
H103  H     H_    0.706150 0.835962 0.183839 0.125808
H104  H     H_    0.866097 0.881323 0.170508 0.248186
H105  H     H_    0.829689 0.789825 0.170829 0.277274
H106  H     H_    0.747779 0.819410 0.126203 0.284618
H107  H     H_    0.842392 0.834847 0.116836 0.299771
H108  H     H_    0.784165 0.911224 0.125336 0.260663
H109  H     H_    0.062486 0.744361 0.816345 0.194000
H110  H     H_    0.085644 0.788207 0.780686 0.100926
H111  H     H_    0.146265 0.830907 0.845862 0.274323
H112  H     H_    0.399995 0.370641 0.756325 0.161368
H113  H     H_    0.559914 0.434179 0.659802 0.285009
H114  H     H_    0.161179 0.879216 0.809861 0.246485
H115  H     H_    0.026441 0.901372 0.805161 0.269345
H116  H     H_    0.065640 0.940023 0.840153 0.285064
H117  H     H_    0.013588 0.856700 0.842386 0.277954
H118  H     H_    0.830712 0.377728 0.167356 0.187081
H119  H     H_    0.770854 0.390179 0.199540 0.088098
H120  H     H_    0.740877 0.289018 0.142868 0.275470
H121  H     H_    0.678483 0.308051 0.174264 0.241651
H122  H     H_    0.678295 0.440199 0.159552 0.249844
H123  H     H_    0.649266 0.382301 0.127756 0.292602
H124  H     H_    0.643254 0.486253 0.657602 0.277977
H125  H     H_    0.739982 0.420603 0.127748 0.294232
H126  H     H_    0.783902 0.933084 0.729781 0.116213
H127  H     H_    0.870879 0.899960 0.744351 0.160226
H128  H     H_    0.785710 0.031129 0.770177 0.256947
H129  H     H_    0.871810 0.998171 0.784615 0.232226
H130  H     H_    0.929812 0.024011 0.733272 0.273624
H131  H     H_    0.887239 0.104534 0.748938 0.263939
H132  H     H_    0.843232 0.054660 0.717893 0.262435
H133  H     H_    0.273239 0.087747 0.173005 0.179973
H134  H     H_    0.307630 0.174951 0.183705 0.119022
H135  H     H_    0.126607 0.666288 0.333320 0.186985
H136  H     H_    0.148154 0.144317 0.162999 0.255725
H137  H     H_    0.189129 0.232404 0.169751 0.270920
H138  H     H_    0.277153 0.210617 0.126436 0.273009
H139  H     H_    0.183761 0.204468 0.113372 0.312551
H140  H     H_    0.235746 0.122418 0.119193 0.263654
H141  H     H_    0.112234 0.726242 0.301344 0.087389
H142  H     H_    0.215782 0.755962 0.357262 0.275870
H143  H     H_    0.196132 0.818440 0.325978 0.242017
H144  H     H_    0.064507 0.819485 0.341308 0.250651
H145  H     H_    0.123329 0.847859 0.372911 0.293308
H146  H     H_    0.084364 0.757455 0.372960 0.292779
H147  H     H_    0.566803 0.716213 0.770254 0.115830
H148  H     H_    0.531279 0.285800 0.730488 0.255836
H149  H     H_    0.599964 0.629261 0.755707 0.160263
H150  H     H_    0.468691 0.714305 0.729880 0.256807
H151  H     H_    0.501706 0.628256 0.715442 0.232224
H152  H     H_    0.475899 0.570288 0.766785 0.273639
H153  H     H_    0.395310 0.612811 0.751136 0.263939
H154  H     H_    0.445217 0.656817 0.782172 0.262383
H155  H     H_    0.426651 0.236756 0.321874 0.170611
H156  H     H_    0.335047 0.206627 0.316567 0.122458
H157  H     H_    0.379661 0.367080 0.329608 0.249682
H158  H     H_    0.288598 0.329542 0.329657 0.278926
H159  H     H_    0.498039 0.371773 0.716191 0.232206
H160  H     H_    0.320920 0.249468 0.374564 0.282381
H161  H     H_    0.334485 0.344699 0.383478 0.303725
H162  H     H_    0.412000 0.287918 0.375077 0.261532
H163  H     H_    0.242311 0.562838 0.683013 0.193641
H164  H     H_    0.286826 0.585873 0.718708 0.105196
H165  H     H_    0.328715 0.646525 0.653703 0.273709
H166  H     H_    0.377690 0.660978 0.689741 0.247671
H167  H     H_    0.399436 0.526322 0.693976 0.269086
H168  H     H_    0.437624 0.565478 0.659072 0.285880
H169  H     H_    0.354045 0.513745 0.656749 0.278141
H170  H     H_    0.523970 0.429852 0.767703 0.273681
H171  H     H_    0.877066 0.328016 0.333410 0.180600
H172  H     H_    0.889611 0.270010 0.300522 0.087914
H173  H     H_    0.786603 0.238579 0.356180 0.280170
H174  H     H_    0.804256 0.177824 0.323960 0.244758
H175  H     H_    0.936055 0.172903 0.338964 0.247111
H176  H     H_    0.877322 0.143647 0.370243 0.298963
H177  H     H_    0.918275 0.233128 0.371589 0.286230
H178  H     H_    0.438015 0.758410 0.316880 0.194093
H179  H     H_    0.414953 0.712929 0.281425 0.105068
H180  H     H_    0.355524 0.672323 0.346800 0.273250
H181  H     H_    0.604567 0.387460 0.752079 0.263044
H182  H     H_    0.340378 0.622487 0.311049 0.248442
H183  H     H_    0.475085 0.601047 0.306328 0.269204
H184  H     H_    0.436864 0.563637 0.341573 0.285710
H185  H     H_    0.488385 0.647396 0.343294 0.277757
H186  H     H_    0.669357 0.125275 0.666272 0.181259
H187  H     H_    0.728818 0.111829 0.698617 0.088289
H188  H     H_    0.757883 0.217281 0.643580 0.280397
H189  H     H_    0.820191 0.197278 0.674995 0.245203
H190  H     H_    0.823219 0.066352 0.658389 0.247296
H191  H     H_    0.851534 0.126904 0.627604 0.299843
H192  H     H_    0.554888 0.343399 0.782938 0.263327
H193  H     H_    0.761620 0.086814 0.626545 0.285558
H194  H     H_    0.715382 0.566763 0.230099 0.120066
H195  H     H_    0.628873 0.600347 0.244852 0.161662
H196  H     H_    0.714462 0.469384 0.270502 0.255899
H197  H     H_    0.628999 0.502883 0.285271 0.232132
H198  H     H_    0.569095 0.476453 0.234175 0.273697
H199  H     H_    0.611914 0.396028 0.249704 0.263278
H200  H     H_    0.655019 0.445213 0.218467 0.263424
H201  H     H_    0.238900 0.427885 0.679127 0.169579
H202  H     H_    0.207493 0.336684 0.683811 0.125571
H203  H     H_    0.573332 0.762458 0.321462 0.169962
H204  H     H_    0.368643 0.379826 0.671801 0.248690
H205  H     H_    0.330573 0.289017 0.671512 0.276136
H206  H     H_    0.251383 0.320915 0.626260 0.284709
H207  H     H_    0.346742 0.334545 0.617797 0.299347
H208  H     H_    0.289692 0.411988 0.625988 0.261633
H209  H     H_    0.563732 0.242772 0.316943 0.195345
H210  H     H_    0.586211 0.287474 0.281406 0.100614
H211  H     H_    0.647786 0.328714 0.346579 0.275110
H212  H     H_    0.662356 0.377803 0.310742 0.246194
H213  H     H_    0.527713 0.400355 0.306398 0.268861
H214  H     H_    0.664314 0.794229 0.316325 0.125332
H215  H     H_    0.567078 0.437836 0.341583 0.285299
H216  H     H_    0.514907 0.354497 0.343358 0.278013
H217  H     H_    0.332542 0.874963 0.667026 0.187010
H218  H     H_    0.271836 0.888258 0.698854 0.088152
H219  H     H_    0.243848 0.784960 0.642701 0.275983
H220  H     H_    0.180569 0.804580 0.673701 0.241784
H221  H     H_    0.179749 0.936181 0.658197 0.250358
H222  H     H_    0.152009 0.877074 0.626601 0.293329
H223  H     H_    0.242430 0.916074 0.626808 0.292903
H224  H     H_    0.282427 0.433815 0.230900 0.115789
O1    O     O_3   0.500000 0.000000 0.750000 -0.540001
O2    O     O_R   0.439140 1.000000 0.180550 -0.626903
O3    O     O_R   0.000000 0.560860 0.819450 -0.621716
O4    O     O_R   0.000000 0.439140 0.180550 -0.599715
O5    O     O_R   0.939140 0.500000 0.319450 -0.604676
O6    O     O_R   0.060860 0.500000 0.680550 -0.620380
O7    O     O_R   0.500000 0.939140 0.319450 -0.620745
O8    O     O_R   0.500000 0.060860 0.680550 -0.605439
O9    O     O_R   0.060860 0.500000 0.319450 -0.600875
O10   O     O_R   0.939140 0.500000 0.680550 -0.621841
O11   O     O_R   0.500000 0.060860 0.319450 -0.622503
O12   O     O_3   0.500000 1.000000 0.250000 -0.520096
O13   O     O_R   0.500000 0.939140 0.680550 -0.600468
O14   O     O_R   0.646030 0.085480 0.768310 -0.625478
O15   O     O_R   0.353970 0.914520 0.231690 -0.606285
O16   O     O_R   0.914520 0.646030 0.768310 -0.635822
O17   O     O_R   0.085480 0.353970 0.231690 -0.595758
O18   O     O_R   0.353970 0.914520 0.768310 -0.625297
O19   O     O_R   0.646030 0.085480 0.231690 -0.636090
O20   O     O_R   0.085480 0.353970 0.768310 -0.634976
O21   O     O_R   0.914520 0.646030 0.231690 -0.594801
O22   O     O_R   0.646030 0.914520 0.231690 -0.635368
O23   O     O_3   0.000000 0.500000 0.750000 -0.519194
O24   O     O_R   0.353970 0.085480 0.768310 -0.594211
O25   O     O_R   0.914520 0.353970 0.231690 -0.627659
O26   O     O_R   0.085480 0.646030 0.768310 -0.627502
O27   O     O_R   0.353970 0.085480 0.231690 -0.628570
O28   O     O_R   0.646030 0.914520 0.768310 -0.594419
O29   O     O_R   0.085480 0.646030 0.231690 -0.625135
O30   O     O_R   0.914520 0.353970 0.768310 -0.633244
O31   O     O_R   0.146030 0.585480 0.268310 -0.626905
O32   O     O_R   0.853970 0.414520 0.731690 -0.627717
O33   O     O_R   0.414520 0.146030 0.268310 -0.635851
O34   O     O_3   1.000000 0.500000 0.250000 -0.539463
O35   O     O_R   0.585480 0.853970 0.731690 -0.594360
O36   O     O_R   0.853970 0.414520 0.268310 -0.626015
O37   O     O_R   0.146030 0.585480 0.731690 -0.633454
O38   O     O_R   0.585480 0.853970 0.268310 -0.634230
O39   O     O_R   0.414520 0.146030 0.731690 -0.594215
O40   O     O_R   0.146030 0.414520 0.731690 -0.635136
O41   O     O_R   0.853970 0.585480 0.268310 -0.594137
O42   O     O_R   0.414520 0.853970 0.731690 -0.625614
O43   O     O_R   0.585480 0.146030 0.268310 -0.628408
O44   O     O_R   0.853970 0.585480 0.731690 -0.635958
O45   O     O_R   0.439140 0.000000 0.819450 -0.604894
O46   O     O_R   0.146030 0.414520 0.268310 -0.594186
O47   O     O_R   0.585480 0.146030 0.731690 -0.625381
O48   O     O_R   0.414520 0.853970 0.268310 -0.637846
O49   O     O_3   0.387700 0.282179 0.726113 -0.594853
O50   O     O_3   0.620636 0.722909 0.281807 -0.611781
O51   O     O_3   0.771353 0.331215 0.695997 -0.573952
O52   O     O_3   0.216610 0.677840 0.305749 -0.607292
O53   O     O_3   0.612237 0.717775 0.725772 -0.592116
O54   O     O_3   0.379761 0.277309 0.282321 -0.610674
O55   O     O_3   0.226993 0.669020 0.695670 -0.583771
O56   O     O_R   0.560860 1.000000 0.180550 -0.622266
O57   O     O_3   0.786399 0.320174 0.305774 -0.604917
O58   O     O_3   0.331530 0.772624 0.304372 -0.584729
O59   O     O_3   0.678231 0.215034 0.694350 -0.605407
O60   O     O_3   0.718296 0.613042 0.274528 -0.594420
O61   O     O_3   0.277903 0.380042 0.718758 -0.612012
O62   O     O_3   0.669800 0.227512 0.304161 -0.573623
O63   O     O_3   0.321228 0.784400 0.694236 -0.606640
O64   O     O_3   0.281923 0.387277 0.275195 -0.590730
O65   O     O_3   0.722001 0.619801 0.718499 -0.611974
O66   O     O_3   0.887185 0.781581 0.225128 -0.594059
O67   O     O_R   0.000000 0.439140 0.819450 -0.620323
O68   O     O_3   0.119919 0.222218 0.781276 -0.611910
O69   O     O_3   0.270798 0.833211 0.196717 -0.567672
O70   O     O_3   0.715622 0.178798 0.805759 -0.606415
O71   O     O_3   0.115512 0.219826 0.222761 -0.585233
O72   O     O_3   0.880225 0.777896 0.781533 -0.611892
O73   O     O_3   0.724198 0.171559 0.195136 -0.585266
O74   O     O_3   0.284890 0.821803 0.805641 -0.605291
O75   O     O_3   0.831033 0.273018 0.804315 -0.583901
O76   O     O_3   0.176713 0.716788 0.194620 -0.601329
O77   O     O_3   0.217758 0.112411 0.773918 -0.594751
O78   O     O_R   0.000000 0.560860 0.180550 -0.606152
O79   O     O_3   0.777571 0.879766 0.218336 -0.611335
O80   O     O_3   0.168704 0.728667 0.803989 -0.573957
O81   O     O_3   0.819562 0.286223 0.193994 -0.608116
O82   O     O_3   0.782275 0.887664 0.774260 -0.592005
O83   O     O_3   0.228275 0.126818 0.213293 -0.605103
O84   O     O_R   0.560860 0.000000 0.819450 -0.599868
Zn1   Zn    Zn3+2 0.500000 0.086800 0.724180 1.006825
Zn2   Zn    Zn3+2 0.000000 0.413200 0.775820 0.994816
Zn3   Zn    Zn3+2 0.413200 1.000000 0.224180 1.002410
Zn4   Zn    Zn3+2 0.586800 0.000000 0.775820 1.008268
Zn5   Zn    Zn3+2 1.000000 0.413200 0.224180 1.006257
Zn6   Zn    Zn3+2 0.000000 0.586800 0.775820 0.995052
Zn7   Zn    Zn3+2 0.586800 1.000000 0.224180 0.993305
Zn8   Zn    Zn3+2 0.413200 0.000000 0.775820 1.006970
Zn9   Zn    Zn3+2 0.500000 0.913200 0.275820 0.994564
Zn10  Zn    Zn3+2 0.913200 0.500000 0.724180 0.994983
Zn11  Zn    Zn3+2 0.086800 0.500000 0.275820 1.007426
Zn12  Zn    Zn3+2 0.500000 0.913200 0.724180 1.008176
Zn13  Zn    Zn3+2 0.500000 0.086800 0.275820 0.993290
Zn14  Zn    Zn3+2 0.086800 0.500000 0.724180 0.994806
Zn15  Zn    Zn3+2 0.913200 0.500000 0.275820 1.007169
Zn16  Zn    Zn3+2 1.000000 0.586800 0.224180 1.006727

loop_
_geom_bond_atom_site_label_1
_geom_bond_atom_site_label_2
_ccdc_geom_bond_type
C215  O78   A    
O16   Zn6   S    
C126  C127  S    
C140  H96   S    
C125  H61   S    
C24   C184  A    
C20   O70   S    
C57   Cl7   S    
C81   H185  S    
C73   H166  S    
C102  H9    S    
C114  C115  S    
C68   C176  A    
C28   C47   A    
C60   H90   S    
C53   H159  S    
C114  H36   S    
C178  C215  S    
C135  C173  A    
C180  C213  S    
C145  O80   S    
C176  Cl43  S    
C92   O62   S    
C113  C210  S    
C43   C236  S    
C126  O73   S    
O40   Zn14  S    
C21   C33   A    
C106  C107  S    
O10   Zn10  S    
C107  H22   S    
C18   O68   S    
C143  C144  S    
C125  H60   S    
O24   Zn8   S    
C108  H25   S    
C25   C30   A    
C108  C109  S    
C51   C235  S    
C24   C171  A    
C12   C42   A    
C143  H104  S    
C139  O77   S    
C124  C168  A    
C154  H130  S    
O5    Zn15  S    
C192  Cl16  S    
O23   Zn2   S    
C232  O36   A    
O34   Zn16  S    
O22   Zn7   S    
O41   Zn15  S    
C112  Cl12  S    
C131  H75   S    
C153  H128  S    
C148  H115  S    
C237  O30   A    
C59   C60   S    
C104  H16   S    
C142  O79   S    
C35   C172  A    
C111  C114  S    
C81   H183  S    
C8    C38   A    
C120  H51   S    
C100  H7    S    
C233  O37   A    
C118  H47   S    
C103  H12   S    
C55   O50   S    
C35   Cl5   S    
O48   Zn9   S    
C58   H46   S    
O84   Zn4   S    
C110  H31   S    
C1    C159  A    
O17   Zn5   S    
O34   Zn11  S    
C58   H24   S    
C3    C8    A    
C25   C41   A    
C135  C203  S    
C4    C51   A    
C33   C50   A    
C78   H179  S    
C55   H214  S    
C111  O69   S    
C221  O14   A    
C70   H157  S    
C29   C45   A    
C23   C31   A    
C137  H89   S    
C66   H151  S    
C78   O58   S    
C47   C238  A    
C86   H196  S    
C124  C172  A    
C56   H13   S    
C95   H217  S    
C9    C240  A    
O23   Zn6   S    
C122  H55   S    
C164  C179  A    
C231  O24   A    
C128  H67   S    
C151  H125  S    
C106  H20   S    
C30   C49   A    
C213  O56   A    
C31   C48   A    
C90   C165  A    
O35   Zn12  S    
C199  C204  A    
C185  C209  A    
C158  H139  S    
C71   H161  S    
O26   Zn6   S    
C155  H134  S    
C87   H200  S    
O6    Zn14  S    
C156  H137  S    
C118  H45   S    
C116  O70   S    
C112  C178  A    
O4    Zn5   S    
C234  O33   A    
C78   H178  S    
C68   C184  A    
C112  C160  A    
C191  C207  A    
C92   H210  S    
C130  H74   S    
C195  Cl19  S    
C72   C73   S    
C11   O61   S    
C150  H121  S    
C91   H208  S    
C139  H95   S    
C139  C140  S    
C236  O29   A    
C232  O25   A    
C35   C181  A    
C32   O82   S    
O25   Zn5   S    
C31   O81   S    
C67   H154  S    
C77   H177  S    
C97   H223  S    
C7    C48   A    
C156  C158  S    
C130  C131  S    
C37   C221  S    
C157  C171  A    
C134  H84   S    
C146  C174  A    
C152  H127  S    
C98   H224  S    
C233  O26   A    
O33   Zn13  S    
C196  C206  A    
C101  C166  A    
C170  Cl38  S    
C152  H126  S    
C5    C15   A    
O44   Zn10  S    
C2    C169  A    
C185  Cl9   S    
C102  O65   S    
C89   H205  S    
C195  C203  A    
C88   C89   S    
C98   C99   S    
C77   H176  S    
C187  C207  A    
C155  C156  S    
C132  O75   S    
C189  Cl13  S    
C65   H147  S    
C194  Cl18  S    
C109  C110  S    
C221  O47   A    
C225  O42   A    
C212  O45   A    
C215  O4    A    
O32   Zn10  S    
C141  H98   S    
C61   H124  S    
C231  O39   A    
C165  Cl32  S    
C131  H76   S    
C64   H146  S    
C110  H29   S    
C54   H192  S    
C147  C148  S    
C52   H1    S    
C191  Cl15  S    
C26   C44   A    
C192  C211  A    
C85   C86   S    
C76   H173  S    
C69   H156  S    
C22   C32   A    
C21   O71   S    
O3    Zn6   S    
C97   H221  S    
C122  H56   S    
C189  C210  A    
C120  H50   S    
C105  O66   S    
C78   C80   S    
C214  O3    A    
C173  Cl41  S    
C96   H220  S    
C53   H148  S    
C63   H142  S    
C217  O6    A    
C194  C200  A    
O46   Zn11  S    
C107  H23   S    
C239  O50   S    
C75   H172  S    
C24   Cl4   S    
C17   C36   A    
C89   C91   S    
C87   H198  S    
C88   H202  S    
C235  O28   A    
C66   C67   S    
C10   C239  A    
C62   O52   S    
C69   C70   S    
C116  H40   S    
C44   C240  A    
C91   H206  S    
C167  C219  A    
C195  C199  A    
C42   C226  S    
C7    C12   A    
C126  H64   S    
C144  H107  S    
C67   H152  S    
O13   Zn12  S    
C18   C28   A    
C74   H167  S    
C46   Cl6   S    
C100  H6    S    
C121  H52   S    
O21   Zn16  S    
C147  H111  S    
C162  C175  A    
C179  C212  S    
C84   H191  S    
C163  Cl31  S    
C4    C16   A    
C54   H181  S    
C10   O60   S    
C45   C239  A    
C214  O67   A    
C6    C14   A    
C202  Cl26  S    
C129  H71   S    
C208  Cl46  S    
C83   C84   S    
C95   O63   S    
C181  C230  A    
C201  C206  A    
C194  C204  A    
C72   H163  S    
C155  O83   S    
C61   H101  S    
C65   H149  S    
C148  H117  S    
C224  O17   A    
C33   O83   S    
C52   H112  S    
C224  O46   A    
C14   C41   A    
C226  O43   A    
C141  H100  S    
C188  C193  A    
C160  Cl28  S    
C109  H28   S    
C133  H82   S    
C27   O76   S    
C52   C53   S    
C98   O64   S    
C129  C130  S    
C151  H122  S    
C154  H132  S    
C2    Cl2   S    
O12   Zn3   S    
C178  C197  A    
C158  H138  S    
C136  C137  S    
C73   H165  S    
C102  H10   S    
C198  Cl21  S    
C3    O52   S    
C175  C180  A    
C94   H215  S    
C219  Cl47  S    
O23   Zn10  S    
C46   C182  A    
C62   H135  S    
C117  C118  S    
C20   C37   A    
C193  C210  A    
C21   C40   A    
C107  H21   S    
C22   C39   A    
O38   Zn9   S    
C108  H26   S    
C56   C58   S    
C102  C103  S    
C168  Cl36  S    
C157  C176  A    
C63   C64   S    
C56   H2    S    
C154  H131  S    
C136  O76   S    
C169  Cl37  S    
C152  C153  S    
C222  O48   A    
C132  H78   S    
C150  C151  S    
C180  C219  A    
C80   H182  S    
C115  H39   S    
C54   H170  S    
C99   H4    S    
C127  H66   S    
C55   C56   S    
C148  H116  S    
C17   C29   A    
C73   C74   S    
O12   Zn7   S    
C82   H186  S    
C152  O82   S    
C82   O59   S    
C100  H8    S    
C39   C223  S    
C121  H54   S    
C199  Cl22  S    
C236  O31   A    
C101  C211  S    
C11   C238  A    
C103  H11   S    
C201  Cl25  S    
C131  H77   S    
C163  C186  A    
O42   Zn12  S    
O47   Zn1   S    
C23   O73   S    
C138  H91   S    
C79   C159  A    
C88   O61   S    
C115  H38   S    
C150  H120  S    
C123  C125  S    
C70   H158  S    
C50   C234  S    
C137  H88   S    
C187  C190  A    
C142  H102  S    
C228  O41   A    
C117  H43   S    
C86   H197  S    
O56   Zn7   S    
C136  H87   S    
C149  O81   S    
C145  H110  S    
C13   C183  A    
C93   H212  S    
O20   Zn2   S    
C193  Cl17  S    
C212  O84   A    
C63   H143  S    
C70   C71   S    
C228  O21   A    
O9    Zn11  S    
C146  C206  S    
C105  H18   S    
C30   O80   S    
O1    Zn4   S    
C34   C227  S    
C223  O16   A    
C125  H62   S    
C198  C205  A    
C83   H188  S    
C158  H140  S    
C166  C208  A    
C155  H133  S    
C87   H199  S    
C22   O72   S    
C145  C147  S    
C123  H58   S    
C185  C191  A    
C85   H194  S    
C229  O38   A    
O7    Zn9   S    
C94   H213  S    
C41   C225  S    
C216  O9    A    
C58   H35   S    
C217  O10   A    
C91   H207  S    
C86   C87   S    
C161  Cl29  S    
C53   C54   S    
C68   Cl8   S    
C67   H153  S    
C60   C61   S    
C188  Cl11  S    
C32   C51   A    
C62   C63   S    
C19   C38   A    
C165  C197  A    
C213  O2    A    
C108  O68   S    
C225  O18   A    
C5    O54   S    
C134  H85   S    
C59   O51   S    
C26   O75   S    
C132  H80   S    
C46   C173  A    
C157  C205  S    
C75   O57   S    
C140  C141  S    
C28   O77   S    
O12   Zn13  S    
C111  H33   S    
C186  Cl44  S    
C89   H204  S    
C184  C217  S    
C124  C204  S    
O1    Zn8   S    
C77   H175  S    
O78   Zn16  S    
C133  C134  S    
C5    C50   A    
C19   O69   S    
C81   H184  S    
C64   H144  S    
O39   Zn1   S    
C127  C128  S    
C161  C164  A    
C227  O40   A    
C59   H57   S    
C183  C216  S    
C79   C209  S    
C179  C208  A    
O67   Zn2   S    
C119  H48   S    
O29   Zn16  S    
C122  O72   S    
C177  C214  S    
C110  H30   S    
O43   Zn13  S    
C99   H5    S    
C113  C167  A    
C128  H70   S    
C119  C120  S    
C128  H69   S    
C151  H123  S    
C71   H160  S    
C105  C106  S    
C69   H155  S    
O11   Zn13  S    
C38   C222  S    
C66   H150  S    
O14   Zn4   S    
C149  C150  S    
C59   H68   S    
O31   Zn11  S    
C84   H193  S    
C95   H218  S    
C101  C161  A    
C92   C93   S    
C98   H3    S    
O36   Zn15  S    
C135  C169  A    
C90   C160  A    
C144  H106  S    
C15   C40   A    
C175  Cl34  S    
O19   Zn7   S    
C177  C186  A    
C16   C39   A    
C57   C174  A    
C27   C43   A    
C106  H19   S    
C72   O55   S    
C82   C83   S    
C226  O19   A    
C230  Cl48  S    
C103  C104  S    
C190  Cl14  S    
C75   H171  S    
C142  C143  S    
C97   H222  S    
C71   H162  S    
C10   C36   A    
C118  H44   S    
C153  H129  S    
C227  O20   A    
C182  C220  S    
C93   C94   S    
C218  O7    A    
C4    O53   S    
C92   H209  S    
C130  H73   S    
C95   C96   S    
C6    O55   S    
C75   C76   S    
C44   C237  S    
C218  O11   A    
C111  H32   S    
C220  O8    A    
C220  O13   A    
C3    C43   A    
C17   O66   S    
C144  H108  S    
C23   C42   A    
C129  O74   S    
C40   C224  S    
C222  O15   A    
C174  Cl42  S    
C190  C209  A    
C74   H168  S    
C25   O74   S    
C200  C203  A    
C188  C211  A    
C134  H83   S    
C119  H49   S    
C147  H114  S    
C47   C231  S    
C140  H97   S    
C14   O63   S    
C159  Cl27  S    
C164  Cl23  S    
C116  C117  S    
O8    Zn1   S    
C2    C182  A    
C196  Cl20  S    
O45   Zn8   S    
C49   C233  S    
C8    O58   S    
C113  C162  A    
C1    C177  A    
C76   H174  S    
C132  C133  S    
C200  Cl24  S    
C72   H164  S    
C15   O64   S    
C74   H169  S    
C19   C27   A    
C223  O44   A    
C141  H99   S    
C136  H86   S    
C36   C228  S    
C60   H79   S    
C65   O53   S    
C109  H27   S    
C64   H145  S    
C45   C229  S    
C85   O60   S    
O37   Zn14  S    
O34   Zn15  S    
C138  H92   S    
O1    Zn1   S    
C83   H189  S    
C76   C77   S    
C234  O27   A    
C167  Cl35  S    
C123  H59   S    
C52   O49   S    
C96   H219  S    
C237  O32   A    
C94   H216  S    
C90   C207  S    
C9    O59   S    
C189  C192  A    
C55   H203  S    
C166  Cl33  S    
O28   Zn4   S    
C138  H93   S    
C12   O62   S    
C99   C100  S    
C29   O79   S    
C69   O54   S    
C96   C97   S    
C119  O71   S    
C198  C201  A    
C9    C37   A    
O2    Zn3   S    
O27   Zn3   S    
C88   H201  S    
C18   C34   A    
C172  Cl40  S    
C1    Cl1   S    
C149  H118  S    
C13   C170  A    
C235  O35   A    
C216  O5    A    
C146  C170  A    
O30   Zn2   S    
C196  C202  A    
C229  O22   A    
C57   C183  A    
C139  H94   S    
C171  Cl39  S    
O15   Zn3   S    
C127  H65   S    
C61   H113  S    
C126  H63   S    
C162  Cl30  S    
C104  H14   S    
C11   C34   A    
C82   H187  S    
C79   C163  A    
C80   C81   S    
C143  H105  S    
C121  H53   S    
C197  Cl45  S    
C85   H195  S    
C104  H15   S    
C114  H34   S    
C137  C138  S    
C80   H180  S    
O18   Zn8   S    
C187  Cl10  S    
C149  H119  S    
C116  H41   S    
C122  C123  S    
O34   Zn5   S    
C240  O51   S    
C115  H37   S    
C129  H72   S    
C13   Cl3   S    
C20   C26   A    
O1    Zn12  S    
C6    C49   A    
O12   Zn9   S    
C142  H103  S    
C168  C230  A    
C117  H42   S    
C48   C232  S    
O23   Zn14  S    
C145  H109  S    
C65   C66   S    
C93   H211  S    
C181  C218  S    
C156  H136  S    
C120  C121  S    
C84   H190  S    
C16   O65   S    
C202  C205  A    
C238  O49   S    
C133  H81   S    
C153  C154  S    
C62   H141  S    
C7    O57   S    
C105  H17   S    
