data_mof_unit_6036.cif
_audit_creation_date              2012-12-11T16:33:22-0500
_audit_creation_method            fapswitch 2.2
_symmetry_space_group_name_H-M    P1
_symmetry_Int_Tables_number       1
_space_group_crystal_system       triclinic
_cell_length_a                    6.951372
_cell_length_b                    18.359208
_cell_length_c                    20.097862
_cell_angle_alpha                 68.480426
_cell_angle_beta                  90.400811
_cell_angle_gamma                 90.170035
_cell_volume                      2386.06952652

loop_
_atom_site_label
_atom_site_type_symbol
_atom_type_description
_atom_site_fract_x
_atom_site_fract_y
_atom_site_fract_z
_atom_type_partial_charge
O1    O     O_R   0.488960 0.443750 0.941980 -0.536199
O2    O     O_R   0.823890 0.406510 0.087590 -0.539385
O3    O     O_R   0.999680 0.556250 0.058020 -0.539466
C1    C     C_R   0.655229 0.383340 0.115021 0.681588
O4    O     O_R   0.818360 0.434410 0.944340 -0.533655
O5    O     O_R   0.994110 0.584350 0.913750 -0.536123
C2    C     C_R   0.649342 0.420025 0.924139 0.722844
O6    O     O_R   0.494530 0.415650 0.086250 -0.541299
O7    O     O_3   0.662590 0.549160 0.990130 -0.365575
V1    V     V_3+5 0.935320 0.490880 0.001830 1.463197
O8    O     O_R   0.324180 0.593490 0.912410 -0.534745
C3    C     C_R   0.154165 0.617224 0.885870 0.688987
O9    O     O_R   0.329720 0.565590 0.055660 -0.536375
C4    C     C_R   0.161409 0.579784 0.076055 0.715690
V2    V     V_3+5 0.435990 0.509120 0.998170 1.460775
O10   O     O_3   0.158850 0.450840 0.009870 -0.368705
C5    C     C_3   0.065846 0.705588 0.313361 -0.131504
C6    C     C_3   0.250342 0.689146 0.278038 -0.151285
H1    H     H_    0.346900 0.637949 0.301859 0.133051
H2    H     H_    0.010705 0.668193 0.366720 0.149588
H3    H     H_    0.457793 0.796955 0.262906 0.155195
C7    C     C_1   0.153669 0.625840 0.121291 -0.156914
C8    C     C_1   0.112038 0.875758 0.377121 -0.052350
C9    C     C_3   0.955241 0.725747 0.241331 -0.187591
C10   C     C_3   0.139970 0.710044 0.206620 0.127502
C11   C     C_3   0.018347 0.811862 0.220217 -0.039474
C12   C     C_3   0.126827 0.792088 0.291331 0.109023
C13   C     C_3   0.201186 0.796534 0.184286 -0.089696
C14   C     C_3   0.311129 0.776210 0.256470 -0.104546
C15   C     C_1   0.147478 0.663925 0.159575 -0.000722
C16   C     C_1   0.118843 0.837957 0.338621 0.041700
H4    H     H_    0.255986 0.834183 0.130945 0.186986
H5    H     H_    0.808201 0.705457 0.234713 0.126067
C17   C     C_R   0.082716 0.772326 0.880193 -0.181621
C18   C     C_R   0.059586 0.846060 0.882667 0.281823
C19   C     C_R   0.065654 0.911820 0.819765 -0.093136
C20   C     C_R   0.088963 0.903563 0.752980 -0.145923
C21   C     C_R   0.108296 0.826942 0.748918 0.022983
C22   C     C_R   0.110506 0.761138 0.815065 0.022759
C23   C     C_R   0.132289 0.813463 0.682931 -0.137992
C24   C     C_R   0.177956 0.735682 0.685464 0.028709
C25   C     C_R   0.167718 0.671628 0.752304 -0.003269
C26   C     C_R   0.141512 0.684611 0.816479 -0.114116
C27   C     C_R   0.237238 0.717585 0.624766 0.116447
C28   C     C_R   0.244629 0.639383 0.628518 -0.087021
C29   C     C_R   0.225104 0.578223 0.694021 0.258858
C30   C     C_R   0.190133 0.594145 0.754871 -0.183747
H6    H     H_    0.080121 0.723539 0.930847 0.128664
H7    H     H_    0.181823 0.544216 0.804588 0.146673
H8    H     H_    0.871884 0.341685 0.426196 0.132665
C31   C     C_R   0.511354 0.100557 0.243694 0.177585
C32   C     C_R   0.427601 0.099336 0.180089 0.340381
C33   C     C_R   0.416439 0.167254 0.119820 -0.176088
C34   C     C_R   0.490995 0.236797 0.120870 -0.203976
C35   C     C_R   0.566213 0.242156 0.184381 0.045992
C36   C     C_R   0.566526 0.173953 0.248807 -0.029803
C37   C     C_R   0.644436 0.314118 0.183417 -0.146332
C38   C     C_R   0.710077 0.320301 0.247924 0.070961
C39   C     C_R   0.695828 0.255028 0.313509 0.058212
C40   C     C_R   0.623484 0.182052 0.314434 -0.156890
C41   C     C_R   0.784623 0.391840 0.248830 -0.152191
C42   C     C_R   0.843382 0.398978 0.312530 -0.116681
C43   C     C_R   0.827591 0.335696 0.376700 -0.097627
C44   C     C_R   0.754177 0.264676 0.377565 -0.140583
H9    H     H_    0.355454 0.165660 0.070633 0.175153
H10   H     H_    0.487009 0.286446 0.070921 0.134562
H11   H     H_    0.796803 0.443347 0.200573 0.107685
H12   H     H_    0.899902 0.454158 0.312130 0.122314
H13   H     H_    0.743546 0.217761 0.429198 0.094626
O11   O     O_R   0.770540 0.084530 0.414050 -0.537013
O12   O     O_R   0.445710 0.065660 0.555720 -0.531733
O13   O     O_R   0.270420 0.915650 0.586190 -0.516455
C45   C     C_R   0.613753 0.078687 0.577226 0.702131
O14   O     O_R   0.441140 0.093540 0.412470 -0.538965
O15   O     O_R   0.265820 0.943740 0.441930 -0.499655
C46   C     C_R   0.609887 0.115662 0.384382 0.752271
O16   O     O_R   0.775150 0.056440 0.558310 -0.535140
O17   O     O_3   0.602370 0.950960 0.510050 -0.330798
V3    V     V_3+5 0.329450 0.009140 0.498150 1.572971
O18   O     O_R   0.935790 0.934280 0.444060 -0.527103
C47   C     C_R   0.103962 0.921354 0.422743 0.788485
O19   O     O_R   0.940370 0.906390 0.587310 -0.539549
C48   C     C_R   0.111962 0.880051 0.612615 0.753017
V4    V     V_3+5 0.828810 0.990710 0.501460 1.569307
O20   O     O_3   0.105780 0.049100 0.489960 -0.373519
C49   C     C_3   0.701373 0.312058 0.719825 -0.063574
C50   C     C_3   0.515903 0.282217 0.696288 -0.086822
C51   C     C_1   0.617668 0.121424 0.625131 -0.146255
C52   C     C_1   0.639977 0.373088 0.879885 -0.129696
C53   C     C_3   0.797870 0.230965 0.737375 -0.151312
C54   C     C_3   0.610149 0.201273 0.713929 0.078332
C55   C     C_3   0.716389 0.205087 0.814405 -0.023288
C56   C     C_3   0.625093 0.286359 0.796827 0.043956
C57   C     C_3   0.530288 0.173921 0.791399 -0.201130
C58   C     C_3   0.439818 0.256168 0.773374 -0.054651
C59   C     C_1   0.613741 0.156824 0.665587 -0.009028
C60   C     C_1   0.633553 0.333942 0.842643 0.035602
H14   H     H_    0.459421 0.116953 0.820724 0.161645
H15   H     H_    0.945542 0.220077 0.722465 0.143387
C61   C     C_1   0.054564 0.988658 0.824362 0.399013
N1    N     N_1   0.047156 0.050221 0.827505 -0.351226
C62   C     C_1   0.103417 0.976191 0.691778 0.267598
N2    N     N_1   0.114818 0.035461 0.644391 -0.314778
Br1   Br    Br    0.379755 0.788180 0.545906 -0.540385
C63   C     C_1   0.284676 0.621300 0.565624 0.484417
N3    N     N_1   0.316429 0.606850 0.515353 -0.314435
Br2   Br    Br    0.577015 0.998983 0.313910 -0.495802
Br3   Br    Br    0.329545 0.005236 0.171398 -0.494676
C64   C     C_1   0.402368 0.323647 0.631542 0.356840
N4    N     N_1   0.312766 0.356254 0.580583 -0.314581
C65   C     C_1   0.787020 0.388286 0.678648 0.420600
N5    N     N_1   0.852068 0.448712 0.645551 -0.271780
C66   C     C_1   0.253001 0.274227 0.796612 0.380272
N6    N     N_1   0.108794 0.290423 0.815856 -0.348605
C67   C     C_1   0.819138 0.162115 0.881334 0.400711
N7    N     N_1   0.899685 0.128388 0.934269 -0.271919
C68   C     C_1   0.890712 0.879324 0.188044 0.411017
N8    N     N_1   0.790329 0.932631 0.162596 -0.228440
Br4   Br    Br    0.273675 0.471857 0.704760 -0.562230
Br5   Br    Br    0.025946 0.854164 0.974632 -0.533666

loop_
_geom_bond_atom_site_label_1
_geom_bond_atom_site_label_2
_ccdc_geom_bond_type
C35   C36   A    
C51   C59   T    
C50   C54   S    
C12   C14   S    
C24   C25   A    
C65   N5    T    
C11   C68   S    
C1    O6    A    
O12   V3    S    
C27   Br1   S    
C30   H7    S    
C33   C34   A    
C32   C33   A    
C10   C13   S    
C11   C12   S    
C42   C43   A    
O14   C46   A    
C13   C14   S    
C9    C11   S    
C17   C18   A    
C3    C26   S    
O5    C3    A    
C21   C22   A    
C57   H14   S    
C67   N7    T    
C2    C52   S    
C5    H2    S    
C6    H1    S    
C55   C56   S    
C54   C59   S    
C34   C35   A    
O8    V2    S    
C17   C22   A    
C18   C19   A    
C50   C58   S    
C1    C37   S    
O1    V2    S    
C33   H9    S    
O7    V1    S    
C41   C42   A    
O18   V4    S    
C38   C41   A    
C39   C40   A    
C56   C58   S    
O9    C4    A    
H8    C43   S    
C23   C48   S    
C18   Br5   S    
C57   C58   S    
C6    C10   S    
C28   C63   S    
C5    C9    S    
C12   C16   S    
C31   C32   A    
C5    C12   S    
C13   H4    S    
V4    O20   S    
C49   C53   S    
O12   C45   A    
O17   V3    S    
O15   C47   A    
C22   C26   A    
O16   V4    S    
C38   C39   A    
C28   C29   A    
H3    C14   S    
C40   C46   S    
C36   C40   A    
C52   C60   T    
C8    C16   T    
O2    C1    A    
C45   C51   S    
C20   C21   A    
C49   C56   S    
C41   H11   S    
C53   C55   S    
C55   C57   S    
C5    C6    S    
C39   C44   A    
C19   C61   S    
C6    C14   S    
C44   H13   S    
C9    C10   S    
O3    C4    A    
C50   C64   S    
C23   C24   A    
O6    V2    S    
O19   V4    S    
O14   V3    S    
C35   C37   A    
O11   C46   A    
C24   C27   A    
C17   H6    S    
C25   C26   A    
C53   C54   S    
O2    V1    S    
C56   C60   S    
C53   H15   S    
V3    O20   S    
O11   V4    S    
C27   C28   A    
C49   C50   S    
O4    C2    A    
C66   N6    T    
C10   C15   S    
C29   C30   A    
C19   C20   A    
C8    C47   S    
O1    C2    A    
C31   C36   A    
O18   C47   A    
O5    V1    S    
O8    C3    A    
C34   H10   S    
O13   V3    S    
C63   N3    T    
C11   C13   S    
C9    H5    S    
C42   H12   S    
C4    C7    S    
O9    V2    S    
C49   C65   S    
O7    V2    S    
O4    V1    S    
O3    V1    S    
V1    O10   S    
C64   N4    T    
C54   C57   S    
C21   C23   A    
C37   C38   A    
C20   C62   S    
C58   C66   S    
C61   N1    T    
C29   Br4   S    
C25   C30   A    
C62   N2    T    
C7    C15   T    
C55   C67   S    
O13   C48   A    
C43   C44   A    
O17   V4    S    
C32   Br3   S    
C31   Br2   S    
O19   C48   A    
C45   O16   A    
C68   N8    T    
O15   V3    S    
V2    O10   S    
