data_mof_unit_68518.cif
_audit_creation_date              2012-12-11T18:15:34-0500
_audit_creation_method            fapswitch 2.2
_symmetry_space_group_name_H-M    P1
_symmetry_Int_Tables_number       1
_space_group_crystal_system       triclinic
_cell_length_a                    20.195142
_cell_length_b                    19.982266
_cell_length_c                    8.332135
_cell_angle_alpha                 90.0
_cell_angle_beta                  91.637004
_cell_angle_gamma                 89.975459
_cell_volume                      3361.01632533

loop_
_atom_site_label
_atom_site_type_symbol
_atom_type_description
_atom_site_fract_x
_atom_site_fract_y
_atom_site_fract_z
_atom_type_partial_charge
Ba1   Ba    Ba6+2 0.999980 0.452130 0.155200 1.621769
Ba2   Ba    Ba6+2 0.999980 0.547870 0.655200 1.628198
Ba3   Ba    Ba6+2 0.499980 0.952130 0.155200 1.622123
Ba4   Ba    Ba6+2 0.499980 0.047870 0.655200 1.621212
C1    C     C_3   0.964109 0.129580 0.441300 -0.029281
C2    C     C_R   0.113126 0.662463 0.179199 -0.286875
C3    C     C_R   0.613641 0.837902 0.679821 -0.298139
C4    C     C_R   0.611664 0.163626 0.182964 -0.297729
C5    C     C_R   0.125269 0.284102 0.578816 0.006593
C6    C     C_R   0.126074 0.715329 0.075687 -0.015779
C7    C     C_R   0.627172 0.785542 0.575782 0.008255
C8    C     C_R   0.625131 0.215994 0.078812 0.007003
C9    C     C_R   0.173435 0.236586 0.621474 -0.135572
C10   C     C_R   0.173652 0.763262 0.119409 -0.148894
C11   C     C_R   0.674675 0.737510 0.619409 -0.143894
C12   C     C_3   0.957980 0.867934 0.923429 -0.021555
C13   C     C_R   0.673217 0.263546 0.121577 -0.135550
C14   C     C_R   0.210929 0.243237 0.765601 -0.002841
C15   C     C_R   0.210424 0.757155 0.264869 0.005005
C16   C     C_R   0.711716 0.743815 0.764360 -0.002032
C17   C     C_R   0.710753 0.256871 0.265679 -0.003325
C18   C     C_R   0.201713 0.300081 0.864777 -0.031760
C19   C     C_R   0.200774 0.700686 0.365144 -0.031778
C20   C     C_R   0.702453 0.800598 0.863755 -0.026243
C21   C     C_R   0.701603 0.199998 0.364816 -0.031385
C22   C     C_R   0.800340 0.701692 0.946251 -0.021166
C23   C     C_3   0.466564 0.631106 0.432978 -0.076655
C24   C     C_R   0.800167 0.298414 0.446214 -0.028601
C25   C     C_R   0.300370 0.201701 0.946070 -0.029045
C26   C     C_R   0.298507 0.799679 0.447898 -0.033192
C27   C     C_R   0.791695 0.758929 0.044840 0.002331
C28   C     C_R   0.791537 0.241177 0.544734 -0.000783
C29   C     C_R   0.291709 0.258938 0.044577 -0.000938
C30   C     C_R   0.288520 0.743501 0.548820 0.003249
C31   C     C_R   0.850190 0.653688 0.990336 0.055013
C32   C     C_R   0.850237 0.346223 0.489987 0.046602
C33   C     C_R   0.350452 0.153874 0.989817 0.047821
C34   C     C_3   0.463822 0.370205 0.943418 -0.030277
C35   C     C_R   0.349195 0.846910 0.490861 0.047934
C36   C     C_R   0.888575 0.663699 0.130927 -0.277465
C37   C     C_R   0.888912 0.335967 0.630062 -0.284724
C38   C     C_R   0.389154 0.164138 0.129857 -0.284391
C39   C     C_R   0.387389 0.836969 0.631607 -0.288291
C40   C     C_3   0.025984 0.208089 0.925755 0.347956
C41   C     C_3   0.027081 0.789757 0.427406 0.398606
C42   C     C_3   0.522917 0.707680 0.907198 0.360040
C43   C     C_3   0.525906 0.292019 0.424634 0.345323
C44   C     C_R   0.876438 0.717277 0.233581 0.007755
C45   C     C_R   0.150593 0.346981 0.822067 0.042755
C46   C     C_R   0.876919 0.282334 0.732637 0.009250
C47   C     C_R   0.377127 0.217790 0.232436 0.008666
C48   C     C_R   0.374139 0.784396 0.735945 0.014709
C49   C     C_R   0.829366 0.765625 0.188921 -0.128998
C50   C     C_R   0.829497 0.234270 0.688389 -0.141913
C51   C     C_R   0.329657 0.265841 0.188204 -0.142282
C52   C     C_R   0.325729 0.737133 0.693660 -0.102767
C53   C     C_R   0.758991 0.694725 0.807765 -0.042498
C54   C     C_R   0.758489 0.305630 0.308308 -0.045733
C55   C     C_R   0.258687 0.194481 0.808207 -0.045742
C56   C     C_R   0.150912 0.652794 0.320528 0.036776
C57   C     C_R   0.257777 0.806221 0.308170 -0.046218
C58   C     C_3   0.060265 0.141441 0.958373 -0.368919
C59   C     C_3   0.061668 0.856770 0.451029 -0.381972
C60   C     C_3   0.554363 0.638604 0.917797 -0.385767
C61   C     C_3   0.560448 0.358375 0.459006 -0.364596
C62   C     C_3   0.811428 0.457873 0.819463 0.312414
C63   C     C_3   0.811200 0.541898 0.318200 0.307744
C64   C     C_3   0.310303 0.958544 0.817850 0.310908
C65   C     C_3   0.311745 0.042360 0.319309 0.312153
C66   C     C_3   0.749424 0.414581 0.810335 -0.398231
C67   C     C_R   0.651648 0.847707 0.820484 0.038324
C68   C     C_3   0.748872 0.584651 0.305041 -0.393744
C69   C     C_3   0.247572 0.916400 0.805591 -0.397930
C70   C     C_3   0.249725 0.085665 0.308938 -0.398731
C71   C     C_3   0.189840 0.541431 0.995984 0.340522
C72   C     C_3   0.185032 0.455590 0.480851 0.330071
C73   C     C_3   0.684931 0.044243 0.981362 0.334483
C74   C     C_3   0.689896 0.958560 0.494924 0.340879
C75   C     C_3   0.251782 0.584953 0.993145 -0.037487
C76   C     C_3   0.244463 0.409112 0.471297 -0.062140
C77   C     C_3   0.744425 0.090397 0.971415 -0.054917
C78   C     C_R   0.650541 0.153061 0.322059 0.043272
C79   C     C_3   0.751730 0.914950 0.490503 -0.040167
C80   C     C_3   0.984126 0.202642 0.417900 0.383745
C81   C     C_3   0.009476 0.815207 0.971241 0.336498
C82   C     C_3   0.484617 0.703718 0.400553 0.332789
C83   C     C_3   0.483570 0.297219 0.917511 0.384993
C84   C     C_R   0.243721 0.307648 0.002077 -0.044346
C85   C     C_R   0.241052 0.694504 0.505648 -0.048307
C86   C     C_R   0.744093 0.807907 0.001737 -0.046937
C87   C     C_R   0.743606 0.192450 0.502158 -0.043500
C88   C     C_3   0.370441 0.580529 0.055708 -0.204691
C89   C     C_R   0.111710 0.336420 0.683021 -0.296930
C90   C     C_3   0.356439 0.392809 0.578383 -0.212148
C91   C     C_3   0.857083 0.105344 0.072316 -0.196121
C92   C     C_3   0.870108 0.917948 0.554403 -0.204516
C93   C     C_3   0.062955 0.070274 0.545635 -0.224416
C94   C     C_3   0.973235 0.961752 0.109952 -0.256692
C95   C     C_3   0.379456 0.562071 0.542348 -0.224156
C96   C     C_3   0.562890 0.429332 0.046771 -0.225358
H1    H     H_    0.945780 0.227616 0.340319 0.039026
H2    H     H_    0.724003 0.585576 0.422200 0.117925
H3    H     H_    0.056707 0.028131 0.459335 0.095860
H4    H     H_    0.884833 0.911440 0.062276 0.211432
H5    H     H_    0.956887 0.980055 0.228192 0.111711
H6    H     H_    0.965591 0.001809 0.018879 0.108125
H7    H     H_    0.026908 0.949960 0.120382 0.106428
H8    H     H_    0.365090 0.644852 0.396602 0.195078
H9    H     H_    0.328553 0.565130 0.588578 0.146443
H10   H     H_    0.413453 0.546446 0.642703 0.106876
H11   H     H_    0.380356 0.524334 0.444464 0.122741
H12   H     H_    0.470534 0.429355 0.149316 0.193359
H13   H     H_    0.223229 0.915346 0.923420 0.115334
H14   H     H_    0.586792 0.447348 0.160433 0.098448
H15   H     H_    0.555742 0.472725 0.964574 0.098478
H16   H     H_    0.596498 0.392423 0.992105 0.143365
H17   H     H_    0.909901 0.128045 0.461990 0.024396
H18   H     H_    0.915382 0.841996 0.863084 0.075758
H19   H     H_    0.473503 0.600787 0.322943 0.090850
H20   H     H_    0.409751 0.371742 0.965647 0.023773
H21   H     H_    0.110502 0.141980 0.907539 0.075051
H22   H     H_    0.113298 0.853504 0.409426 0.070057
H23   H     H_    0.605067 0.640306 0.869789 0.074460
H24   H     H_    0.225405 0.086197 0.426815 0.110768
H25   H     H_    0.610081 0.358404 0.405005 0.073633
H26   H     H_    0.073610 0.372239 0.649088 0.067225
H27   H     H_    0.075784 0.626050 0.144210 0.066755
H28   H     H_    0.575928 0.874040 0.645280 0.068243
H29   H     H_    0.573631 0.127778 0.148975 0.067247
H30   H     H_    0.026492 0.218001 0.794811 -0.024554
H31   H     H_    0.029610 0.775358 0.299215 -0.087697
H32   H     H_    0.521213 0.723272 0.779176 -0.056484
H33   H     H_    0.525777 0.283000 0.293243 -0.022798
H34   H     H_    0.173147 0.536846 0.120604 -0.016052
H35   H     H_    0.165786 0.455388 0.603694 -0.014590
H36   H     H_    0.666100 0.044291 0.104620 -0.017998
H37   H     H_    0.673415 0.962783 0.619820 -0.016916
H38   H     H_    0.150634 0.565534 0.919579 0.026023
H39   H     H_    0.146424 0.436597 0.395285 0.052170
H40   H     H_    0.646142 0.063481 0.896496 0.049225
H41   H     H_    0.983103 0.773912 0.032538 -0.025528
H42   H     H_    0.650555 0.934769 0.418432 0.027055
H43   H     H_    0.241941 0.634696 0.046486 0.018737
H44   H     H_    0.229246 0.356508 0.489619 0.034309
H45   H     H_    0.729801 0.142757 0.995872 0.026296
H46   H     H_    0.741717 0.864828 0.541455 0.018225
H47   H     H_    0.182805 0.195583 0.540266 0.063071
H48   H     H_    0.182502 0.804664 0.038905 0.062463
H49   H     H_    0.683527 0.696106 0.538888 0.072561
H50   H     H_    0.682482 0.304605 0.040483 0.063089
H51   H     H_    0.821248 0.807543 0.268301 0.060129
H52   H     H_    0.448797 0.725543 0.311350 0.082529
H53   H     H_    0.821136 0.192527 0.767972 0.059059
H54   H     H_    0.321209 0.307555 0.267809 0.059047
H55   H     H_    0.316845 0.695847 0.774376 0.061440
H56   H     H_    0.925638 0.627004 0.166135 0.063276
H57   H     H_    0.926038 0.372588 0.665119 0.066534
H58   H     H_    0.426285 0.127495 0.164937 0.066685
H59   H     H_    0.425306 0.872958 0.665440 0.066614
H60   H     H_    0.239475 0.351061 0.078285 0.096150
H61   H     H_    0.236414 0.651592 0.583122 0.096875
H62   H     H_    0.739899 0.851366 0.077870 0.095385
H63   H     H_    0.445231 0.272903 0.838854 0.039041
H64   H     H_    0.739396 0.149032 0.578332 0.096101
H65   H     H_    0.762919 0.651327 0.731436 0.098100
H66   H     H_    0.762444 0.349039 0.232011 0.100362
H67   H     H_    0.262638 0.151075 0.731904 0.100752
H68   H     H_    0.262442 0.849130 0.230556 0.101337
H69   H     H_    0.973644 0.100617 0.330811 0.087693
H70   H     H_    0.978918 0.903699 0.835876 0.089193
H71   H     H_    0.500468 0.611644 0.529727 0.090322
H72   H     H_    0.472827 0.399811 0.833528 0.090136
H73   H     H_    0.054551 0.247550 0.991165 0.092380
H74   H     H_    0.713794 0.434896 0.718702 0.122120
H75   H     H_    0.054008 0.752124 0.502364 0.101934
H76   H     H_    0.554487 0.742971 0.978594 0.087466
H77   H     H_    0.554737 0.252071 0.487743 0.090587
H78   H     H_    0.065035 0.132139 0.089395 0.146761
H79   H     H_    0.062779 0.870966 0.579838 0.143484
H80   H     H_    0.557506 0.621746 0.044831 0.139918
H81   H     H_    0.566688 0.366302 0.590252 0.147746
H82   H     H_    0.031122 0.100082 0.902759 0.114644
H83   H     H_    0.034917 0.896112 0.381594 0.111056
H84   H     H_    0.524177 0.602204 0.846423 0.102580
H85   H     H_    0.714241 0.563717 0.212026 0.123218
H86   H     H_    0.530700 0.400316 0.407855 0.116272
H87   H     H_    0.832921 0.460684 0.699120 0.008399
H88   H     H_    0.833596 0.538686 0.198924 0.009065
H89   H     H_    0.332239 0.961825 0.698056 0.010526
H90   H     H_    0.333685 0.039550 0.199477 0.009352
H91   H     H_    0.847414 0.434474 0.905675 0.072261
H92   H     H_    0.846399 0.565915 0.405273 0.068724
H93   H     H_    0.345645 0.934111 0.903968 0.066922
H94   H     H_    0.347426 0.065708 0.406278 0.072859
H95   H     H_    0.762150 0.362536 0.777354 0.071229
H96   H     H_    0.212704 0.937932 0.713869 0.121668
H97   H     H_    0.761413 0.636688 0.271715 0.065782
H98   H     H_    0.259464 0.864369 0.770961 0.066000
H99   H     H_    0.262543 0.137759 0.276742 0.071738
H100  H     H_    0.296461 0.544664 0.200857 0.209185
H101  H     H_    0.373402 0.631513 0.108143 0.141168
H102  H     H_    0.380542 0.582821 0.925481 0.128458
H103  H     H_    0.408693 0.548194 0.114294 0.093823
H104  H     H_    0.277629 0.428140 0.706969 0.215150
H105  H     H_    0.351524 0.340766 0.623098 0.147592
H106  H     H_    0.394462 0.419442 0.651459 0.096099
H107  H     H_    0.214502 0.065473 0.216259 0.121887
H108  H     H_    0.372932 0.392823 0.452285 0.128149
H109  H     H_    0.780182 0.067239 0.202508 0.214916
H110  H     H_    0.850650 0.158058 0.111079 0.142517
H111  H     H_    0.874574 0.103244 0.947101 0.128355
H112  H     H_    0.894824 0.081257 0.150828 0.095985
H113  H     H_    0.796252 0.953383 0.700329 0.212268
H114  H     H_    0.871608 0.865915 0.600651 0.148068
H115  H     H_    0.908532 0.948255 0.618470 0.093785
H116  H     H_    0.881079 0.918101 0.424492 0.134236
H117  H     H_    0.264957 0.592204 0.865604 0.081195
H118  H     H_    0.725640 0.413885 0.928869 0.110815
H119  H     H_    0.264778 0.413445 0.348978 0.091901
H120  H     H_    0.763138 0.087882 0.847175 0.091659
H121  H     H_    0.765049 0.908652 0.362743 0.087794
H122  H     H_    0.985390 0.227737 0.537032 -0.060600
H123  H     H_    0.047231 0.837482 0.054781 -0.003971
H124  H     H_    0.481088 0.731571 0.515677 -0.042634
H125  H     H_    0.484540 0.271413 0.035765 -0.061454
H126  H     H_    0.969903 0.068691 0.644372 0.194405
H127  H     H_    0.085855 0.050624 0.659040 0.096895
H128  H     H_    0.096990 0.108120 0.496181 0.143037
N1    N     N_2   0.305748 0.552517 0.081211 -0.410279
N2    N     N_2   0.294310 0.427503 0.591179 -0.427903
N3    N     N_2   0.795628 0.069657 0.085679 -0.414794
N4    N     N_2   0.805683 0.946507 0.580384 -0.410222
N5    N     N_2   0.999272 0.099902 0.578135 -0.427811
N6    N     N_2   0.935266 0.902988 0.064112 -0.444906
N7    N     N_2   0.398531 0.626624 0.481566 -0.452885
N8    N     N_2   0.499655 0.398984 0.080256 -0.427617
O1    O     O_2   0.130070 0.404060 0.104920 -0.476091
O2    O     O_3   0.960986 0.795347 0.474005 -0.603502
O3    O     O_3   0.459071 0.704796 0.969567 -0.612519
O4    O     O_3   0.460881 0.294892 0.480093 -0.612653
O5    O     O_3   0.924190 0.533610 0.949240 -0.494725
O6    O     O_3   0.924190 0.466390 0.449240 -0.493528
O7    O     O_3   0.424190 0.033610 0.949240 -0.493181
O8    O     O_3   0.424190 0.966390 0.449240 -0.493549
O9    O     O_3   0.075780 0.466370 0.861070 -0.488227
O10   O     O_3   0.075780 0.533630 0.361070 -0.494716
O11   O     O_3   0.575780 0.966370 0.861070 -0.495121
O12   O     O_2   0.130070 0.595940 0.604920 -0.464455
O13   O     O_3   0.575780 0.033630 0.361070 -0.488477
O14   O     O_3   0.022320 0.344950 0.359800 -0.480524
O15   O     O_3   0.022320 0.655050 0.859800 -0.459322
O16   O     O_3   0.522320 0.844950 0.359800 -0.481096
O17   O     O_3   0.522320 0.155050 0.859800 -0.480023
O18   O     O_2   0.132254 0.291243 0.245123 -0.493868
O19   O     O_2   0.130583 0.708822 0.740949 -0.495932
O20   O     O_2   0.633285 0.793203 0.242866 -0.487064
O21   O     O_2   0.632034 0.208951 0.744959 -0.493718
O22   O     O_3   0.206183 0.478260 0.937252 -0.639361
O23   O     O_2   0.630070 0.904060 0.104920 -0.461915
O24   O     O_3   0.205277 0.520384 0.441673 -0.648033
O25   O     O_3   0.705149 0.979560 0.941417 -0.642109
O26   O     O_3   0.706275 0.021864 0.437281 -0.639083
O27   O     O_3   0.045100 0.205247 0.340616 -0.611582
O28   O     O_3   0.040863 0.792803 0.832903 -0.605224
O29   O     O_3   0.548379 0.705451 0.337546 -0.616197
O30   O     O_3   0.544620 0.294775 0.840604 -0.611266
O31   O     O_2   0.869860 0.403670 0.205810 -0.465654
O32   O     O_2   0.869860 0.596330 0.705810 -0.466301
O33   O     O_2   0.369860 0.903670 0.205810 -0.466401
O34   O     O_2   0.630070 0.095940 0.604920 -0.475800
O35   O     O_2   0.369860 0.096330 0.705810 -0.466245
O36   O     O_3   0.977590 0.344880 0.951200 -0.484302
O37   O     O_3   0.977590 0.655120 0.451200 -0.487067
O38   O     O_3   0.477590 0.844880 0.951200 -0.484123
O39   O     O_3   0.477590 0.155120 0.451200 -0.483737
O40   O     O_2   0.870225 0.289735 0.066262 -0.491047
O41   O     O_2   0.870885 0.711720 0.568631 -0.480806
O42   O     O_2   0.370758 0.788722 0.071168 -0.493607
O43   O     O_2   0.370193 0.210227 0.565982 -0.491109
O44   O     O_3   0.793490 0.478000 0.370291 -0.640614
O45   O     O_3   0.793562 0.521935 0.870325 -0.642239
O46   O     O_3   0.293704 0.978319 0.369749 -0.641091
O47   O     O_3   0.293222 0.022446 0.871021 -0.641329
O48   O     O_3   0.960703 0.204980 0.979383 -0.613927
P1    P     P_3+3 0.136530 0.426510 0.931350 0.966550
P2    P     P_3+3 0.920110 0.719900 0.431199 0.950207
P3    P     P_3+3 0.418996 0.781043 0.931549 0.935009
P4    P     P_3+3 0.420264 0.219891 0.431004 0.928256
P5    P     P_3+3 0.081921 0.717995 0.878909 0.946955
P6    P     P_3+3 0.082511 0.282387 0.381095 0.939018
P7    P     P_3+3 0.582326 0.217728 0.881062 0.940334
P8    P     P_3+3 0.583867 0.783418 0.378951 0.944496
P9    P     P_3+3 0.136530 0.573490 0.431350 0.961645
P10   P     P_3+3 0.636530 0.926510 0.931350 0.967174
P11   P     P_3+3 0.636530 0.073490 0.431350 0.967357
P12   P     P_3+3 0.863410 0.426100 0.379280 0.971109
P13   P     P_3+3 0.863410 0.573900 0.879280 0.972902
P14   P     P_3+3 0.363410 0.926100 0.379280 0.970819
P15   P     P_3+3 0.363410 0.073900 0.879280 0.971008
P16   P     P_3+3 0.920203 0.280164 0.931016 0.927740

loop_
_geom_bond_atom_site_label_1
_geom_bond_atom_site_label_2
_ccdc_geom_bond_type
C29   C51   A    
C51   H54   S    
C30   C52   A    
C48   P3    S    
Ba1   O36   S    
C8    P7    S    
C72   O24   S    
C66   H118  S    
H126  N5    S    
C73   O25   S    
C9    C14   A    
C91   H112  S    
C29   C84   A    
C2    H27   S    
C79   N4    S    
C40   H30   S    
C25   C29   A    
C92   H114  S    
H109  N3    S    
C33   C38   A    
C5    C9    A    
C46   P16   S    
C7    C11   A    
C66   H95   S    
C19   C85   A    
C64   H93   S    
C3    H28   S    
Ba4   O7    S    
C64   O47   S    
H8    N7    S    
O17   P7    S    
C96   H15   S    
C11   C16   A    
C59   H83   S    
O42   P3    D    
O9    P1    S    
C47   P4    S    
C24   C28   A    
C90   H108  S    
C77   H120  S    
C13   C17   A    
C23   C82   S    
C15   C19   A    
C12   H18   S    
Ba1   O31   S    
C71   O22   S    
C27   C86   A    
Ba2   O32   S    
C65   C70   S    
C40   H73   S    
C93   H3    S    
C88   H103  S    
C18   C45   A    
C7    P8    S    
C12   C81   S    
O15   P5    S    
C87   H64   S    
C96   N8    S    
C11   H49   S    
C55   H67   S    
Ba3   O38   S    
C36   C44   A    
O3    P3    S    
O4    P4    S    
Ba1   P12   S    
C91   H110  S    
C10   C15   A    
Ba3   P10   S    
C76   N2    S    
C71   H38   S    
C20   C86   A    
C24   C54   A    
C92   H116  S    
C57   H68   S    
C31   C36   A    
Ba2   O15   S    
C62   C66   S    
C64   H89   S    
C15   C57   A    
Ba3   O23   S    
O12   P9    D    
C35   P14   S    
C47   C51   A    
C84   H60   S    
C22   C53   A    
C68   H85   S    
C83   O30   S    
C79   H121  S    
O47   P15   S    
C22   C31   A    
C32   P12   S    
C93   H128  S    
C77   N3    S    
C26   C57   A    
C42   C60   S    
C4    H29   S    
C45   C89   A    
O18   P6    D    
C71   C75   S    
C16   C20   A    
C95   H9    S    
C33   P15   S    
C90   H106  S    
C73   H40   S    
C71   H34   S    
O8    P14   S    
C86   H62   S    
Ba2   O9    S    
C39   H59   S    
C41   H75   S    
C42   H32   S    
C39   C48   A    
C75   H117  S    
C63   C68   S    
C89   H26   S    
C75   N1    S    
C68   H97   S    
C75   H43   S    
C65   O46   S    
O23   P10   D    
C76   H44   S    
H4    N6    S    
C74   O26   S    
Ba2   P9    S    
O33   P14   D    
C72   H35   S    
C70   H107  S    
C44   C49   A    
C26   C30   A    
C96   H14   S    
C6    C10   A    
C81   H41   S    
C1    C80   S    
C63   H92   S    
Ba1   O1    S    
Ba4   O11   S    
Ba2   O6    S    
C56   P9    S    
C94   N6    S    
C4    C8    A    
C95   H11   S    
C69   H98   S    
C42   O3    S    
C66   H74   S    
C69   H96   S    
C9    H47   S    
Ba2   P13   S    
Ba3   Ba4   S    
C74   H37   S    
C59   H22   S    
C88   H102  S    
C90   N2    S    
C72   H39   S    
C17   C21   A    
C61   H86   S    
C14   C18   A    
Ba4   O39   S    
C72   C76   S    
C65   H90   S    
C34   H72   S    
Ba3   O33   S    
C91   H111  S    
C30   C85   A    
C17   C54   A    
O19   P5    D    
C80   H122  S    
C68   H2    S    
C88   N1    S    
O44   P12   S    
C26   C35   A    
O28   P5    S    
C54   H66   S    
Ba1   O6    S    
C60   H84   S    
C14   C55   A    
O7    P15   S    
C49   H51   S    
Ba4   O8    S    
C70   H24   S    
C23   H71   S    
C13   H50   S    
C96   H16   S    
Ba4   P11   S    
O1    P1    D    
C76   H119  S    
Ba1   P1    S    
O11   P10   S    
O21   P7    D    
C46   C50   A    
O22   P1    S    
C4    C78   A    
C91   N3    S    
C78   P11   S    
C74   H42   S    
C34   N8    S    
C5    P6    S    
C53   H65   S    
C40   O48   S    
C69   H13   S    
C28   C50   A    
Ba2   O12   S    
C44   P2    S    
C74   C79   S    
C8    C13   A    
C73   H36   S    
C18   C84   A    
O36   P16   S    
C34   H20   S    
Ba4   O35   S    
C62   H87   S    
C43   H33   S    
O37   P2    S    
C32   C37   A    
C38   H58   S    
O39   P4    S    
C85   H61   S    
O40   P16   D    
O13   P11   S    
Ba3   O13   S    
O45   P13   S    
O5    P13   S    
H12   N8    S    
O48   P16   S    
C94   H7    S    
O16   P8    S    
C62   O45   S    
C58   H82   S    
C79   H46   S    
C94   H5    S    
C73   C77   S    
C81   H123  S    
C37   H57   S    
C93   H127  S    
C41   H31   S    
C21   C78   A    
H100  N1    S    
C81   O28   S    
C37   C46   A    
C63   H88   S    
O14   P6    S    
C2    C6    A    
O6    P12   S    
C60   H23   S    
O10   P9    S    
C34   C83   S    
O35   P15   D    
Ba2   O37   S    
C95   H10   S    
C65   H94   S    
C12   H70   S    
C70   H99   S    
C24   C32   A    
C25   C33   A    
C1    H69   S    
O38   P3    S    
C82   O29   S    
C83   H63   S    
C50   H53   S    
C61   H81   S    
C3    C7    A    
C45   P1    S    
C92   H115  S    
C82   H52   S    
Ba1   O10   S    
C3    C67   A    
C60   H80   S    
C28   C87   A    
C10   H48   S    
C59   H79   S    
Ba1   Ba2   S    
C41   O2    S    
O34   P11   D    
C25   C55   A    
C83   H125  S    
O29   P8    S    
C80   O27   S    
C94   H6    S    
Ba4   P15   S    
C12   N6    S    
O2    P2    S    
C23   N7    S    
C38   C47   A    
Ba3   O8    S    
C22   C27   A    
C1    N5    S    
O25   P10   S    
C80   H1    S    
C90   H105  S    
C82   H124  S    
Ba4   O17   S    
C52   H55   S    
C6    P5    S    
Ba4   O34   S    
C19   C56   A    
C31   P13   S    
C21   C87   A    
C2    C56   A    
Ba3   O16   S    
Ba1   O14   S    
C35   C39   A    
C40   C58   S    
C64   C69   S    
C41   C59   S    
C1    H17   S    
C67   P10   S    
C61   H25   S    
Ba3   P14   S    
O32   P13   D    
C95   N7    S    
C93   N5    S    
C62   H91   S    
Ba3   O7    S    
C27   C49   A    
O30   P7    S    
H113  N4    S    
Ba1   O5    S    
C77   H45   S    
O27   P6    S    
C42   H76   S    
C5    C89   A    
O20   P8    D    
O46   P14   S    
C58   H78   S    
C23   H19   S    
O41   P2    D    
O43   P4    D    
C63   O44   S    
C43   H77   S    
C92   N4    S    
H104  N2    S    
O31   P12   D    
Ba2   O5    S    
C43   O4    S    
O24   P9    S    
O26   P11   S    
C36   H56   S    
C16   C53   A    
C43   C61   S    
C58   H21   S    
C88   H101  S    
C48   C52   A    
C20   C67   A    
