data_mof_unit_37878.cif
_audit_creation_date              2012-12-10T16:54:35-0500
_audit_creation_method            fapswitch 2.2
_symmetry_space_group_name_H-M    P1
_symmetry_Int_Tables_number       1
_space_group_crystal_system       triclinic
_cell_length_a                    15.015634
_cell_length_b                    11.002629
_cell_length_c                    9.75976
_cell_angle_alpha                 89.990438
_cell_angle_beta                  89.680014
_cell_angle_gamma                 89.285982
_cell_volume                      1612.27374723

loop_
_atom_site_label
_atom_site_type_symbol
_atom_type_description
_atom_site_fract_x
_atom_site_fract_y
_atom_site_fract_z
_atom_type_partial_charge
C1    C     C_R   0.503569 0.266180 0.499869 0.926061
C2    C     C_R   0.903618 0.612201 0.486026 -0.009812
C3    C     C_R   0.953014 0.282110 0.447994 -0.245263
C4    C     C_R   0.045694 0.281726 0.437039 0.018351
C5    C     C_R   0.093562 0.389554 0.466638 0.009654
C6    C     C_R   0.045894 0.501420 0.475225 0.028916
C7    C     C_R   0.091366 0.613103 0.484146 -0.021548
C8    C     C_R   0.041675 0.722750 0.485225 -0.227108
C9    C     C_R   0.948936 0.723293 0.478845 0.449319
C10   C     C_R   0.186617 0.389275 0.489401 -0.044067
C11   C     C_R   0.231785 0.500695 0.497744 -0.179993
C12   C     C_R   0.329063 0.500571 0.500064 0.868310
C13   C     C_R   0.185125 0.612528 0.492096 -0.040810
C14   C     C_2   0.482455 0.937412 0.390148 0.384737
C15   C     C_2   0.479370 0.867149 0.504839 -0.242751
C16   C     C_2   0.470462 0.071270 0.402843 -0.226624
C17   C     C_2   0.512586 0.135392 0.498293 -0.306366
C18   C     C_2   0.430951 0.480038 0.926562 -0.040902
C19   C     C_2   0.431279 0.522005 0.074586 -0.034112
C20   C     C_R   0.496375 0.735013 0.500310 0.841728
C21   C     C_R   0.670680 0.498983 0.499522 0.767488
C22   C     C_R   0.810872 0.609476 0.500250 -0.227383
C23   C     C_R   0.766676 0.499069 0.497137 -0.036055
C24   C     C_R   0.813437 0.389953 0.480110 -0.220103
C25   C     C_R   0.906156 0.390364 0.470786 0.121446
C26   C     C_R   0.952020 0.501407 0.477195 0.026805
Cu1   Cu    Cu3+1 0.500020 0.500020 0.638630 1.024387
Cu2   Cu    Cu3+1 0.499980 0.499980 0.361370 1.011538
H1    H     H_    0.772297 0.692854 0.511535 0.157616
H2    H     H_    0.429139 0.118878 0.329155 0.206986
H3    H     H_    0.555083 0.092253 0.574155 0.134034
H4    H     H_    0.549412 0.548639 0.889638 0.210893
H5    H     H_    0.548987 0.446364 0.109217 0.196534
H6    H     H_    0.777433 0.305269 0.473378 0.122902
H7    H     H_    0.916873 0.198679 0.431682 0.158828
H8    H     H_    0.074063 0.809465 0.491194 0.204536
N1    N     N_2   0.499020 0.498660 0.846910 -0.315698
N2    N     N_2   0.499000 0.498630 0.153040 -0.321556
O1    O     O_R   0.500020 0.321960 0.617040 -0.530483
O2    O     O_R   0.499980 0.321920 0.382900 -0.590212
O3    O     O_R   0.370270 0.499990 0.617090 -0.553908
O4    O     O_R   0.370240 0.499950 0.382940 -0.560490
O5    O     O_R   0.500020 0.678080 0.617100 -0.549656
O6    O     O_R   0.499980 0.678040 0.382960 -0.494068
O7    O     O_R   0.629760 0.500050 0.617060 -0.582195
O8    O     O_R   0.629730 0.500010 0.382910 -0.588747
C27   C     C_2   0.450389 0.916186 0.640583 0.866437
O9    O     O_2   0.384008 0.981260 0.650155 -0.570525
O10   O     O_R   0.498724 0.885052 0.757473 -0.756762
H9    H     H_    0.470444 0.918700 0.843606 0.322803
C28   C     C_2   0.356665 0.405739 0.876676 0.954511
O11   O     O_2   0.279471 0.439607 0.891388 -0.536649
O12   O     O_R   0.375574 0.295853 0.811098 -0.739090
H10   H     H_    0.319945 0.249890 0.786961 0.349737
C29   C     C_2   0.356239 0.596896 0.127746 0.958525
O13   O     O_2   0.371412 0.694471 0.181672 -0.553833
O14   O     O_R   0.268866 0.555308 0.121754 -0.712400
H11   H     H_    0.224363 0.614398 0.164359 0.344349
C30   C     C_2   0.088466 0.171888 0.377559 0.850076
O15   O     O_2   0.139712 0.181436 0.280371 -0.569226
O16   O     O_R   0.070164 0.057703 0.432262 -0.742258
H12   H     H_    0.104126 0.990825 0.382530 0.340251
C31   C     C_2   0.234958 0.274056 0.521280 0.847773
O17   O     O_2   0.303882 0.247522 0.460850 -0.592846
O18   O     O_R   0.199350 0.194215 0.618100 -0.740525
H13   H     H_    0.235554 0.116302 0.626776 0.372684
C32   C     C_2   0.235077 0.727968 0.499216 0.817970
O19   O     O_2   0.279475 0.750423 0.600479 -0.567250
O20   O     O_R   0.231637 0.809983 0.389968 -0.770210
H14   H     H_    0.268430 0.885049 0.407173 0.346759
O21   O     O_3   0.903972 0.834073 0.472565 -0.586688
C33   C     C_3   0.863718 0.849079 0.342104 0.037346
H15   H     H_    0.799691 0.899101 0.357407 0.163624
H16   H     H_    0.846836 0.761987 0.290342 0.136778
C34   C     C_3   0.923049 0.923991 0.247238 -0.330256
H17   H     H_    0.931095 0.015978 0.291361 0.242829
H18   H     H_    0.989606 0.879438 0.237584 0.233893
C35   C     C_3   0.882387 0.936992 0.104962 -0.868245
H19   H     H_    0.875321 0.846317 0.056457 0.263897
H20   H     H_    0.926424 0.993116 0.039423 0.276846
H21   H     H_    0.815955 0.982246 0.111816 0.249580
O22   O     O_3   0.499823 0.880964 0.263766 -0.553194
C36   C     C_3   0.492008 0.958272 0.148515 0.077968
H22   H     H_    0.527878 0.913229 0.062469 0.164015
H23   H     H_    0.527543 0.045543 0.162550 0.129738
C37   C     C_3   0.393753 0.975596 0.107173 -0.346084
H24   H     H_    0.373344 0.898649 0.041245 0.247206
H25   H     H_    0.349483 0.975552 0.198693 0.255378
C38   C     C_3   0.378860 0.094409 0.029824 -0.820271
H26   H     H_    0.390491 0.173407 0.097925 0.259871
H27   H     H_    0.309141 0.099332 0.992715 0.290679
H28   H     H_    0.424810 0.099865 0.940787 0.273631

loop_
_geom_bond_atom_site_label_1
_geom_bond_atom_site_label_2
_ccdc_geom_bond_type
C8    C9    A    
C7    C13   A    
C29   O13   D    
C31   O18   S    
C22   H1    S    
C10   C31   S    
C15   C27   S    
C7    C8    A    
C27   O10   S    
O12   H10   S    
Cu2   O8    S    
C18   N1    D    
C5    C6    A    
C37   H25   S    
Cu2   O2    S    
C16   H2    S    
C18   C19   S    
C8    H8    S    
C12   O4    A    
C1    O2    A    
C27   O9    D    
Cu1   O1    S    
C16   C17   D    
C2    C22   A    
C23   C24   A    
C3    H7    S    
C38   H27   S    
Cu1   O7    S    
C30   O15   D    
O16   H12   S    
C33   C34   S    
C20   O6    A    
C18   C28   S    
C21   O7    A    
C15   C20   S    
C30   O16   S    
C32   O19   D    
C3    C25   A    
C24   C25   A    
C33   H16   S    
C35   H19   S    
C33   H15   S    
C25   C26   A    
Cu2   O6    S    
C24   H6    S    
C28   O11   D    
C28   O12   S    
C34   H17   S    
C12   O3    A    
C19   N2    D    
Cu1   O3    S    
C36   H22   S    
C14   C15   D    
Cu2   N2    S    
C2    C26   A    
H4    N1    S    
C38   H28   S    
C34   H18   S    
C36   H23   S    
O22   C36   S    
C29   O14   S    
C17   H3    S    
C14   C16   S    
C14   O22   S    
C3    C4    A    
C20   O5    A    
C21   O8    A    
C13   C32   S    
C19   C29   S    
C37   H24   S    
C9    O21   S    
C4    C5    A    
C37   C38   S    
C11   C12   S    
C6    C7    A    
C1    C17   S    
H5    N2    S    
C21   C23   S    
C5    C10   A    
C11   C13   A    
C35   H21   S    
O14   H11   S    
C6    C26   A    
Cu1   N1    S    
C4    C30   S    
Cu2   O4    S    
C35   H20   S    
O18   H13   S    
O20   H14   S    
C34   C35   S    
C10   C11   A    
C1    O1    A    
C31   O17   D    
Cu1   O5    S    
O21   C33   S    
C36   C37   S    
O10   H9    S    
Cu1   Cu2   S    
C22   C23   A    
C32   O20   S    
C38   H26   S    
C2    C9    A    
