data_mof_unit_51062.cif
_audit_creation_date              2012-12-10T17:01:29-0500
_audit_creation_method            fapswitch 2.2
_symmetry_space_group_name_H-M    P1
_symmetry_Int_Tables_number       1
_space_group_crystal_system       triclinic
_cell_length_a                    12.862057
_cell_length_b                    10.746834
_cell_length_c                    10.019792
_cell_angle_alpha                 90.000757
_cell_angle_beta                  97.671233
_cell_angle_gamma                 90.076537
_cell_volume                      1372.60317381

loop_
_atom_site_label
_atom_site_type_symbol
_atom_type_description
_atom_site_fract_x
_atom_site_fract_y
_atom_site_fract_z
_atom_type_partial_charge
C1    C     C_R   0.497288 0.262682 0.499392 0.930619
C2    C     C_2   0.486471 0.131227 0.497519 -0.301775
C3    C     C_2   0.566470 0.563520 0.936256 -0.114558
C4    C     C_R   0.297999 0.503915 0.472516 0.934148
C5    C     C_2   0.562152 0.569451 0.085576 -0.092814
C6    C     C_R   0.502008 0.737337 0.500250 0.953743
C7    C     C_R   0.701763 0.500380 0.527063 0.895637
C8    C     C_R   0.813956 0.499739 0.544789 -0.105685
C9    C     C_R   0.185151 0.511858 0.454347 -0.210896
C10   C     C_R   0.019043 0.582520 0.341053 -0.248698
C11   C     C_R   0.126879 0.574055 0.344172 0.414297
C12   C     C_R   0.029173 0.476922 0.559307 0.048178
C13   C     C_R   0.135691 0.461744 0.558056 -0.219960
C14   C     C_R   0.970781 0.535773 0.447237 0.074330
C15   C     C_R   0.863917 0.547090 0.441403 -0.218911
C16   C     C_R   0.870511 0.446888 0.659417 -0.296331
C17   C     C_R   0.978872 0.435304 0.668665 0.401718
C18   C     C_2   0.493464 0.932948 0.386513 -0.102187
C19   C     C_2   0.510838 0.868934 0.501485 -0.320389
C20   C     C_2   0.499554 0.066853 0.387100 -0.141608
H1    H     H_    0.819017 0.591086 0.354641 0.158611
H2    H     H_    0.475999 0.886963 0.289482 0.201734
H3    H     H_    0.534494 0.911853 0.598701 0.152450
H4    H     H_    0.514394 0.112423 0.294666 0.182291
H5    H     H_    0.956102 0.433731 0.970374 0.344276
H6    H     H_    0.058576 0.670696 0.048779 0.361819
H7    H     H_    0.464969 0.088632 0.588018 0.163870
H8    H     H_    0.627403 0.616720 0.897029 0.159140
H9    H     H_    0.439692 0.456684 0.887471 0.199117
H10   H     H_    0.615185 0.633493 0.144299 0.149620
H11   H     H_    0.455022 0.435702 0.094359 0.191654
H12   H     H_    0.829644 0.411615 0.739300 0.201272
H13   H     H_    0.972326 0.628284 0.257278 0.167393
H14   H     H_    0.181906 0.411634 0.638604 0.235106
N1    N     N_2   0.501130 0.501330 0.852280 -0.183845
N2    N     N_2   0.501160 0.501360 0.147950 -0.165814
O1    O     O_R   0.499980 0.319060 0.613040 -0.612962
O2    O     O_2   0.136269 0.453613 0.872684 -0.281005
O3    O     O_3   0.967149 0.349201 0.935414 -0.516578
O4    O     O_2   0.268650 0.736968 0.275131 -0.268075
O5    O     O_2   0.231822 0.554593 0.130380 -0.244947
O6    O     O_3   0.094003 0.731925 0.113531 -0.514083
O7    O     O_R   0.500020 0.319100 0.386900 -0.617738
O8    O     O_R   0.346340 0.499960 0.594380 -0.612890
O9    O     O_R   0.346380 0.500000 0.368250 -0.541423
O10   O     O_R   0.499980 0.680900 0.613100 -0.613604
O11   O     O_R   0.500020 0.680940 0.386960 -0.597271
O12   O     O_R   0.653620 0.500000 0.631750 -0.626673
O13   O     O_R   0.653660 0.500040 0.405620 -0.628931
O14   O     O_2   0.091154 0.245546 0.784455 -0.242005
S1    S     S_3+6 0.047278 0.369621 0.817481 0.035699
S2    S     S_3+6 0.184145 0.649567 0.214044 0.071181
Zn1   Zn    Zn3+2 0.499980 0.499970 0.650990 0.988694
Zn2   Zn    Zn3+2 0.500020 0.500030 0.349010 1.025056

loop_
_geom_bond_atom_site_label_1
_geom_bond_atom_site_label_2
_ccdc_geom_bond_type
C12   C17   A    
O3    S1    S    
C2    H7    S    
O2    S1    D    
C1    O1    A    
C16   H12   S    
C6    O10   A    
H9    N1    S    
O5    S2    D    
C19   H3    S    
C14   C15   A    
C3    N1    D    
O1    Zn1   S    
C7    O12   A    
C17   S1    S    
O14   S1    D    
C13   H14   S    
C8    C16   A    
O4    S2    D    
H5    O3    S    
O7    Zn2   S    
C6    C19   S    
C9    C11   A    
H6    O6    S    
C15   H1    S    
O11   Zn2   S    
O10   Zn1   S    
C3    H8    S    
C12   C14   A    
O9    Zn2   S    
C1    C2    S    
C10   H13   S    
C18   C20   S    
C4    O9    A    
O12   Zn1   S    
N1    Zn1   S    
C10   C11   A    
C2    C20   D    
O13   Zn2   S    
C5    N2    D    
C6    O11   A    
C7    C8    S    
N2    Zn2   S    
C12   C13   A    
C7    O13   A    
C18   C19   D    
C10   C14   A    
C9    C13   A    
H11   N2    S    
C11   S2    S    
C4    O8    A    
C4    C9    S    
C18   H2    S    
O8    Zn1   S    
C1    O7    A    
C8    C15   A    
C20   H4    S    
C5    H10   S    
O6    S2    S    
C16   C17   A    
C3    C5    S    
