data_mof_unit_40260.cif
_audit_creation_date              2012-12-11T15:49:25-0500
_audit_creation_method            fapswitch 2.2
_symmetry_space_group_name_H-M    P1
_symmetry_Int_Tables_number       1
_space_group_crystal_system       triclinic
_cell_length_a                    8.259079
_cell_length_b                    19.090717
_cell_length_c                    27.02701
_cell_angle_alpha                 95.577396
_cell_angle_beta                  92.61265
_cell_angle_gamma                 85.29503
_cell_volume                      4223.88991853

loop_
_atom_site_label
_atom_site_type_symbol
_atom_type_description
_atom_site_fract_x
_atom_site_fract_y
_atom_site_fract_z
_atom_type_partial_charge
Ba1   Ba    Ba6+2 0.854000 0.466860 0.523710 1.691625
Ba2   Ba    Ba6+2 0.335820 0.533080 0.476290 1.681710
C1    C     C_3   0.608649 0.290617 0.744549 -0.272103
C2    C     C_3   0.590638 0.303433 0.689630 0.738491
C3    C     C_3   0.536950 0.637790 0.627919 0.288331
C4    C     C_3   0.570729 0.656155 0.683552 0.350650
C5    C     C_3   0.056040 0.688400 0.338315 0.274877
C6    C     C_3   0.103360 0.701776 0.286576 -0.289602
C7    C     C_3   0.561472 0.711168 0.363042 0.337725
C8    C     C_3   0.573345 0.782331 0.343229 -0.347986
C9    C     C_R   0.016322 0.441722 0.180809 0.677285
C10   C     C_R   0.911461 0.562345 0.179607 0.668398
C11   C     C_2   0.734295 0.512903 0.268930 0.409152
C12   C     C_3   0.106125 0.317520 0.658361 0.373523
C13   C     C_3   0.693652 0.513173 0.323710 -0.092992
C14   C     C_1   0.981308 0.488972 0.343438 0.055226
C15   C     C_2   0.021648 0.489605 0.296435 -0.175104
C16   C     C_2   0.893825 0.503327 0.256144 0.117530
C17   C     C_R   0.027993 0.500239 0.104298 -0.111439
C18   C     C_R   0.066329 0.439611 0.130588 -0.125422
C19   C     C_R   0.152067 0.379698 0.105282 0.453517
C20   C     C_R   0.951651 0.561668 0.129366 -0.004969
C21   C     C_2   0.842237 0.520748 0.357965 -0.366396
C22   C     C_2   0.338025 0.476155 0.642509 -0.286100
C23   C     C_3   0.100207 0.296907 0.711094 -0.296298
C24   C     C_R   0.166976 0.435942 0.975125 0.038798
C25   C     C_R   0.066014 0.561039 0.976016 0.019184
C26   C     C_R   0.133644 0.497936 0.950025 0.058400
C27   C     C_R   0.226087 0.373501 0.946741 -0.088524
C28   C     C_R   0.258691 0.372910 0.896604 -0.054125
C29   C     C_R   0.232291 0.434216 0.871912 -0.024672
C30   C     C_R   0.168300 0.496755 0.898356 -0.081135
C31   C     C_R   0.139056 0.558052 0.873112 -0.051772
C32   C     C_R   0.176283 0.556261 0.822210 0.614775
C33   C     C_R   0.267792 0.433837 0.821150 0.572404
C34   C     C_3   0.187426 0.317984 0.417738 0.307359
C35   C     C_2   0.439553 0.473605 0.731023 -0.099973
C36   C     C_3   0.483955 0.478013 0.677685 -0.068691
C37   C     C_1   0.203409 0.511819 0.657543 0.059270
C38   C     C_2   0.162128 0.515596 0.705027 -0.065281
C39   C     C_2   0.285259 0.493789 0.744803 0.231872
C40   C     C_R   0.138385 0.437918 0.027204 -0.038382
C41   C     C_R   0.064881 0.499824 0.052789 0.062478
C42   C     C_R   0.027304 0.561415 0.027230 0.037378
C43   C     C_R   0.184757 0.380058 0.054856 -0.118522
C44   C     C_R   0.914815 0.621560 0.103670 -0.033605
C45   C     C_3   0.197703 0.238531 0.404378 -0.367894
C46   C     C_R   0.039380 0.621779 0.949515 -0.091229
C47   C     C_R   0.074948 0.620166 0.899439 -0.036572
C48   C     C_R   0.951173 0.621531 0.053988 -0.088975
C49   C     C_R   0.397980 0.298716 0.521834 -0.246221
C50   C     C_R   0.537108 0.276249 0.495766 0.104560
C51   C     C_R   0.586206 0.203873 0.488614 -0.059465
C52   C     C_R   0.495390 0.153652 0.507618 0.021032
C53   C     C_R   0.350499 0.177437 0.531942 -0.034727
C54   C     C_R   0.301285 0.249711 0.538162 0.031278
C55   C     C_R   0.536290 0.034666 0.540924 -0.031793
C56   C     C_3   0.004458 0.681161 0.580685 0.320207
C57   C     C_R   0.586466 0.962573 0.535685 -0.078962
C58   C     C_R   0.651524 0.930472 0.491026 0.053109
C59   C     C_R   0.667017 0.972819 0.451966 -0.066488
C60   C     C_R   0.616950 0.045104 0.457250 -0.083025
C61   C     C_R   0.550105 0.076883 0.501739 0.044523
C62   C     C_R   0.844659 0.826647 0.460896 -0.129803
C63   C     C_R   0.892219 0.754014 0.457436 0.017233
C64   C     C_R   0.657434 0.733047 0.502589 0.035281
C65   C     C_R   0.608680 0.805276 0.506330 -0.109679
C66   C     C_R   0.701130 0.853128 0.485285 -0.010545
C67   C     C_3   0.984615 0.760620 0.593909 -0.335905
C68   C     C_R   0.795485 0.707733 0.476907 -0.279483
C69   C     C_3   0.690748 0.369151 0.374017 0.272818
C70   C     C_3   0.723711 0.338201 0.320982 -0.300689
H1    H     H_    0.279114 0.224094 0.372778 0.138425
H2    H     H_    0.246470 0.210581 0.436463 0.030637
H3    H     H_    0.885377 0.661874 0.568634 -0.025947
H4    H     H_    0.090143 0.669721 0.550005 0.064600
H5    H     H_    0.893328 0.773578 0.623007 0.147059
H6    H     H_    0.943673 0.787950 0.560747 0.049182
H7    H     H_    0.102728 0.780092 0.608026 0.156673
H8    H     H_    0.806232 0.385298 0.392167 0.024574
H9    H     H_    0.599941 0.415184 0.373543 0.043818
H10   H     H_    0.504590 0.262894 0.755410 0.137552
H11   H     H_    0.800784 0.287766 0.321566 0.137654
H12   H     H_    0.789061 0.374630 0.301125 0.084451
H13   H     H_    0.471850 0.332753 0.683199 -0.130593
H14   H     H_    0.613011 0.341548 0.767814 0.089159
H15   H     H_    0.408726 0.624905 0.620946 0.007261
H16   H     H_    0.618733 0.590650 0.616193 -0.012999
H17   H     H_    0.573873 0.608070 0.703533 -0.062991
H18   H     H_    0.691627 0.677860 0.689531 0.052691
H19   H     H_    0.723347 0.258339 0.752279 0.118192
H20   H     H_    0.211699 0.263608 0.720545 0.153999
H21   H     H_    0.102439 0.633775 0.344757 0.081769
H22   H     H_    0.921504 0.693374 0.339848 -0.015683
H23   H     H_    0.069826 0.657592 0.259484 0.124257
H24   H     H_    0.040179 0.751903 0.275705 0.117281
H25   H     H_    0.678373 0.696278 0.382516 -0.058776
H26   H     H_    0.461011 0.716655 0.389509 0.090867
H27   H     H_    0.457402 0.798703 0.323578 0.137798
H28   H     H_    0.007612 0.358935 0.652656 0.106792
H29   H     H_    0.674015 0.778964 0.317014 0.131817
H30   H     H_    0.534015 0.461174 0.758711 0.081288
H31   H     H_    0.304769 0.323543 0.877070 0.130460
H32   H     H_    0.251971 0.334097 0.038023 0.132384
H33   H     H_    0.855695 0.669297 0.121954 0.129685
H34   H     H_    0.992634 0.672292 0.966422 0.083756
H35   H     H_    0.223609 0.339565 0.653693 -0.047417
H36   H     H_    0.052016 0.668409 0.881330 0.144765
H37   H     H_    0.039856 0.534631 0.715381 0.120128
H38   H     H_    0.915175 0.669783 0.037542 0.078338
H39   H     H_    0.833909 0.549559 0.394561 0.085745
H40   H     H_    0.337976 0.440217 0.608821 0.063777
H41   H     H_    0.500646 0.823980 0.526396 0.089599
H42   H     H_    0.576102 0.932108 0.566994 0.093304
H43   H     H_    0.488576 0.057652 0.576029 0.141227
H44   H     H_    0.694760 0.187026 0.468295 0.068624
H45   H     H_    0.714933 0.949768 0.416911 0.068577
H46   H     H_    0.090612 0.345245 0.737398 0.102763
H47   H     H_    0.627689 0.075848 0.426108 0.065228
H48   H     H_    0.921996 0.862305 0.446361 0.079739
H49   H     H_    0.274293 0.140037 0.544956 0.074629
H50   H     H_    0.833677 0.651972 0.474985 0.057596
H51   H     H_    0.358519 0.354344 0.526166 0.046608
H52   H     H_    0.992549 0.267014 0.714863 0.131310
H53   H     H_    0.310694 0.334741 0.427189 -0.001227
H54   H     H_    0.108781 0.330943 0.450116 0.048581
N1    N     N_R   0.941995 0.502618 0.204627 -0.419743
N2    N     N_R   0.241098 0.494567 0.796717 -0.429391
O1    O     O_2   0.913240 0.537010 0.617740 -0.470834
O2    O     O_3   0.627634 0.317418 0.398684 -0.644568
O3    O     O_3   0.085511 0.258272 0.624437 -0.552856
O4    O     O_2   0.276450 0.462960 0.382230 -0.458234
O5    O     O_3   0.044470 0.462980 0.442430 -0.497533
O6    O     O_3   0.519740 0.589470 0.411120 -0.498143
O7    O     O_3   0.122813 0.350539 0.376364 -0.619186
O8    O     O_3   0.632420 0.583650 0.524140 -0.482024
O9    O     O_3   0.111040 0.625070 0.435230 -0.493268
O10   O     O_2   0.228080 0.749146 0.465409 -0.481587
O11   O     O_3   0.124749 0.737960 0.373146 -0.600930
O12   O     O_3   0.145240 0.536960 0.557560 -0.496821
O13   O     O_3   0.557280 0.416300 0.475860 -0.489396
O14   O     O_2   0.376710 0.670070 0.522470 -0.451328
O15   O     O_3   0.568153 0.695698 0.602533 -0.615541
O16   O     O_2   0.356727 0.554839 0.327289 -0.444545
O17   O     O_3   0.530697 0.660635 0.323215 -0.572748
O18   O     O_2   0.034392 0.389018 0.203141 -0.492285
O19   O     O_2   0.321915 0.379052 0.798615 -0.638244
O20   O     O_2   0.846554 0.616019 0.200969 -0.573372
O21   O     O_2   0.153195 0.609983 0.800890 -0.524918
O22   O     O_3   0.669960 0.410470 0.588880 -0.440674
O23   O     O_2   0.811337 0.461182 0.672547 -0.508426
O24   O     O_3   0.063761 0.649482 0.623003 -0.581792
O25   O     O_3   0.723280 0.338967 0.677337 -0.623323
O26   O     O_2   0.812980 0.329910 0.477500 -0.465196
O27   O     O_3   0.078660 0.374870 0.564770 -0.515999
O28   O     O_2   0.963828 0.249900 0.533671 -0.451570
P1    P     P_3+3 0.082480 0.557670 0.610090 1.023987
P2    P     P_3+3 0.635220 0.340300 0.462910 0.994129
P3    P     P_3+3 0.105869 0.282676 0.564435 1.017474
P4    P     P_3+3 0.107220 0.442270 0.389900 1.011386
P5    P     P_3+3 0.088535 0.717070 0.433040 0.940640
P6    P     P_3+3 0.663398 0.420436 0.654314 0.959271
P7    P     P_3+3 0.561043 0.672011 0.538315 0.973245
P8    P     P_3+3 0.525072 0.578133 0.346140 1.046731
S1    S     S_3+6 0.594727 0.220609 0.652562 -0.071862
O29   O     O_2   0.427934 0.194132 0.648791 -0.309711
O30   O     O_2   0.647922 0.230397 0.601499 -0.307499
O31   O     O_3   0.725339 0.160406 0.677760 -0.490736
H55   H     H_    0.834532 0.172135 0.669092 0.356352
H56   H     H_    0.074743 0.221185 0.393701 0.126355
H57   H     H_    0.607234 0.328107 0.300363 0.152184
S2    S     S_3+6 0.418971 0.719077 0.709899 -0.022625
O32   O     O_2   0.261748 0.685003 0.711065 -0.268212
O33   O     O_2   0.473109 0.743744 0.762068 -0.238189
O34   O     O_3   0.392159 0.788576 0.675832 -0.497494
H58   H     H_    0.299565 0.818318 0.690698 0.363864
H59   H     H_    0.236685 0.705169 0.285749 0.165962
H60   H     H_    0.597357 0.822679 0.374549 0.067602
H61   H     H_    0.146260 0.476283 0.286316 0.166567
S3    S     S_3+6 0.227806 0.302909 0.134351 0.003156
O35   O     O_2   0.087101 0.263631 0.147082 -0.222568
O36   O     O_2   0.335760 0.254593 0.100432 -0.268695
O37   O     O_3   0.336453 0.326618 0.186578 -0.452282
H62   H     H_    0.360972 0.282496 0.202895 0.371916
H63   H     H_    0.245743 0.323155 0.961721 0.092500
S4    S     S_3+6 0.572575 0.508676 0.223295 -0.031372
O38   O     O_2   0.502354 0.582296 0.216093 -0.263802
O39   O     O_2   0.628645 0.472865 0.174361 -0.273600
O40   O     O_3   0.427726 0.462686 0.243235 -0.507119
H64   H     H_    0.335783 0.468698 0.218830 0.362482

loop_
_geom_bond_atom_site_label_1
_geom_bond_atom_site_label_2
_ccdc_geom_bond_type
C25   C46   A    
C5    O11   S    
C53   C54   A    
C53   H49   S    
C7    H26   S    
C14   P4    S    
C49   H51   S    
C67   H5    S    
C17   C18   A    
C22   H40   S    
C41   C42   A    
C23   H46   S    
O1    P1    D    
C56   H4    S    
C5    C6    S    
C55   H43   S    
C10   N1    Am   
C4    S2    S    
C51   C52   A    
S2    O32   D    
O4    P4    D    
C11   C16   D    
C62   C66   A    
Ba1   P2    S    
C35   C36   S    
O26   P2    D    
C54   P3    S    
Ba1   O1    S    
C28   C29   A    
O12   P1    S    
C3    O15   S    
C52   C61   S    
C31   C47   A    
C63   C68   A    
C44   H33   S    
C10   C20   A    
C48   H38   S    
C22   C37   D    
C2    S1    S    
C34   C45   S    
C1    H19   S    
C49   C54   A    
Ba1   O27   S    
C52   C53   A    
C3    H16   S    
C25   C42   A    
C19   S3    S    
C46   H34   S    
C34   H53   S    
C56   O24   S    
C14   C15   D    
C6    H24   S    
C28   H31   S    
Ba2   O4    S    
O7    P4    S    
Ba1   O8    S    
C7    C8    S    
C51   H44   S    
C5    H21   S    
C15   H61   S    
C13   C21   S    
C64   C65   A    
C57   C58   A    
S1    O30   D    
O16   P8    D    
C1    H14   S    
C39   N2    S    
C67   H6    S    
C59   C60   A    
C6    H23   S    
Ba1   O5    S    
C6    H59   S    
O15   P7    S    
C69   H8    S    
C32   O21   D    
S3    O36   D    
C56   H3    S    
C55   C61   A    
C47   H36   S    
C19   C43   A    
C12   O3    S    
O28   P3    D    
C50   P2    S    
O22   P6    S    
C9    C18   A    
Ba2   O5    S    
C59   H45   S    
C49   C50   A    
C8    H60   S    
C70   H57   S    
C13   P8    S    
O11   P5    S    
C17   C20   A    
Ba1   O13   S    
C45   H1    S    
O14   P7    D    
C33   O19   D    
C2    H13   S    
C17   C41   A    
C4    H18   S    
O27   P3    S    
Ba2   O8    S    
C35   H30   S    
C65   C66   A    
C58   C59   A    
C40   C43   A    
C9    N1    Am   
O37   H62   S    
C60   C61   A    
C43   H32   S    
C16   N1    S    
S3    O37   S    
C68   H50   S    
C22   C36   S    
C29   C30   A    
C26   C30   A    
O23   P6    D    
C1    H10   S    
C31   C32   A    
Ba1   O22   S    
C9    O18   D    
Ba2   O6    S    
C50   C51   A    
O3    P3    S    
C60   H47   S    
C70   H12   S    
Ba1   O12   S    
Ba2   P4    S    
C38   C39   S    
C20   C44   A    
C14   C21   D    
C64   C68   A    
C11   C13   S    
Ba2   O14   S    
C29   C33   A    
C67   H7    S    
C40   C41   A    
S4    O39   D    
C1    C2    S    
C34   O7    S    
C12   H35   S    
C37   C38   D    
C45   H56   S    
S3    O35   D    
C24   C40   A    
C42   C48   A    
O40   H64   S    
C5    H22   S    
O24   P1    S    
O31   H55   S    
C23   H20   S    
C7    H25   S    
C11   S4    S    
Ba2   O9    S    
C8    H29   S    
C34   H54   S    
C45   H2    S    
Ba1   O26   S    
S2    O34   S    
C56   C67   S    
C12   H28   S    
C38   H37   S    
O17   P8    S    
S1    O31   S    
C4    H17   S    
C21   H39   S    
C44   C48   A    
C24   C26   A    
C62   H48   S    
C15   C16   S    
O25   P6    S    
O2    P2    S    
O5    P4    S    
Ba2   O12   S    
C62   C63   A    
C10   O20   D    
S4    O40   S    
Ba1   P1    S    
C65   H41   S    
C69   C70   S    
O34   H58   S    
C30   C31   A    
C69   O2    S    
O9    P5    S    
C3    C4    S    
C57   H42   S    
C46   C47   A    
Ba1   Ba2   S    
C7    O17   S    
S2    O33   D    
C27   H63   S    
C64   P7    S    
C2    O25   S    
O10   P5    D    
O13   P2    S    
C12   C23   S    
C35   C39   D    
C8    H27   S    
C23   H52   S    
C70   H11   S    
C55   C57   A    
O6    P8    S    
C27   C28   A    
C3    H15   S    
S1    O29   D    
C36   P6    S    
C18   C19   A    
C58   C66   S    
C24   C27   A    
C32   N2    Am   
C63   P5    S    
C33   N2    Am   
Ba2   O13   S    
C69   H9    S    
S4    O38   D    
C37   P1    S    
C25   C26   A    
O8    P7    S    
