data_mof_unit_35185.cif
_audit_creation_date              2012-12-11T15:41:22-0500
_audit_creation_method            fapswitch 2.2
_symmetry_space_group_name_H-M    P1
_symmetry_Int_Tables_number       1
_space_group_crystal_system       triclinic
_cell_length_a                    19.197676
_cell_length_b                    10.916312
_cell_length_c                    18.648502
_cell_angle_alpha                 89.893978
_cell_angle_beta                  90.513316
_cell_angle_gamma                 89.846364
_cell_volume                      3907.94817029

loop_
_atom_site_label
_atom_site_type_symbol
_atom_type_description
_atom_site_fract_x
_atom_site_fract_y
_atom_site_fract_z
_atom_type_partial_charge
C1    C     C_R   0.708845 0.003063 0.860769 0.564872
C2    C     C_R   0.292930 0.499682 0.044142 0.019589
C3    C     C_R   0.774045 0.812752 0.360771 0.537178
C4    C     C_2   0.496712 0.170498 0.920795 -0.112341
C5    C     C_2   0.503086 0.170409 0.079095 -0.113785
C6    C     C_2   0.996712 0.670498 0.920795 -0.112341
C7    C     C_2   0.003086 0.670409 0.079095 -0.113786
C8    C     C_2   0.496856 0.068652 0.039384 -0.167003
C9    C     C_2   0.502868 0.068632 0.960658 -0.166049
C10   C     C_2   0.996855 0.568652 0.039384 -0.167002
C11   C     C_2   0.002867 0.568632 0.960658 -0.166048
C12   C     C_R   0.780332 0.489310 0.061957 0.012357
C13   C     C_R   0.206676 0.999316 0.955819 0.019221
C14   C     C_R   0.219460 0.489425 0.937951 0.012585
C15   C     C_R   0.280332 0.989309 0.061957 0.012357
C16   C     C_R   0.719460 0.989425 0.937951 0.012586
C17   C     C_3   0.834101 0.514116 0.569984 -0.062455
C18   C     C_3   0.133161 0.473336 0.429213 -0.073427
C19   C     C_3   0.334101 0.014116 0.569984 -0.062455
C20   C     C_3   0.633161 0.973336 0.429213 -0.073427
C21   C     C_R   0.792930 0.999683 0.044143 0.019589
C22   C     C_R   0.823321 0.419393 0.947311 -0.146454
C23   C     C_R   0.176484 0.419886 0.052698 -0.146378
C24   C     C_R   0.323321 0.919396 0.947310 -0.146455
C25   C     C_R   0.676484 0.919886 0.052698 -0.146379
C26   C     C_R   0.834077 0.442129 0.019928 -0.156772
C27   C     C_R   0.165777 0.442410 0.980007 -0.156673
C28   C     C_R   0.334077 0.942132 0.019927 -0.156773
C29   C     C_R   0.291083 0.003163 0.139108 0.564479
C30   C     C_R   0.665777 0.942408 0.980007 -0.156672
C31   C     C_3   0.644605 0.503720 0.046509 -0.263510
C32   C     C_3   0.355122 0.504059 0.953544 -0.263978
C33   C     C_3   0.144604 0.003708 0.046511 -0.263511
C34   C     C_3   0.855122 0.004060 0.953545 -0.263979
C35   C     C_3   0.631593 0.471962 0.968320 -0.269355
C36   C     C_3   0.368129 0.472383 0.031825 -0.269103
C37   C     C_3   0.131592 0.971950 0.968322 -0.269354
C38   C     C_3   0.868129 0.972385 0.031825 -0.269103
C39   C     C_R   0.756668 0.435670 0.916353 0.019395
C40   C     C_R   0.208845 0.503063 0.860769 0.564872
C41   C     C_R   0.243082 0.436039 0.083664 0.019081
C42   C     C_R   0.256668 0.935670 0.916353 0.019395
C43   C     C_R   0.743081 0.936039 0.083664 0.019081
C44   C     C_R   0.455700 0.174824 0.437351 -0.006465
C45   C     C_R   0.487250 0.169008 0.582393 0.015550
C46   C     C_R   0.955700 0.674824 0.437351 -0.006465
C47   C     C_R   0.987250 0.669008 0.582393 0.015550
C48   C     C_R   0.444372 0.277594 0.479488 0.018538
C49   C     C_R   0.455487 0.273669 0.552330 0.014210
C50   C     C_R   0.944372 0.777594 0.479488 0.018538
C51   C     C_R   0.791083 0.503163 0.139108 0.564479
C52   C     C_R   0.955487 0.773669 0.552330 0.014210
C53   C     C_R   0.492650 0.062106 0.541682 -0.122365
C54   C     C_R   0.477008 0.065308 0.469421 -0.181832
C55   C     C_R   0.992651 0.562106 0.541682 -0.122365
C56   C     C_R   0.977008 0.565308 0.469421 -0.181832
C57   C     C_R   0.528892 0.177689 0.850212 0.547033
C58   C     C_R   0.471057 0.177648 0.149755 0.555085
C59   C     C_R   0.028892 0.677689 0.850212 0.547033
C60   C     C_R   0.971057 0.677648 0.149755 0.555085
C61   C     C_3   0.475455 0.402860 0.472987 -0.255673
C62   C     C_R   0.718812 0.527741 0.027316 0.027149
C63   C     C_3   0.477161 0.405740 0.553719 -0.264993
C64   C     C_3   0.975455 0.902860 0.472987 -0.255673
C65   C     C_3   0.977161 0.905740 0.553719 -0.264992
C66   C     C_R   0.746429 0.383427 0.414789 0.013466
C67   C     C_R   0.251242 0.398514 0.581881 0.014127
C68   C     C_R   0.246429 0.883427 0.414789 0.013466
C69   C     C_R   0.751242 0.898514 0.581881 0.014127
C70   C     C_R   0.792084 0.303378 0.451427 -0.028862
C71   C     C_R   0.214531 0.300792 0.550549 -0.039216
C72   C     C_R   0.292084 0.803378 0.451427 -0.028862
C73   C     C_R   0.280801 0.527999 0.972571 0.027613
C74   C     C_R   0.714531 0.800792 0.550549 -0.039216
C75   C     C_R   0.783266 0.280089 0.523919 -0.001980
C76   C     C_R   0.222062 0.275844 0.478170 -0.010712
C77   C     C_R   0.283266 0.780089 0.523919 -0.001981
C78   C     C_R   0.722062 0.775844 0.478170 -0.010712
C79   C     C_R   0.674113 0.384929 0.521518 -0.180247
C80   C     C_R   0.305993 0.436970 0.467504 -0.166846
C81   C     C_R   0.174113 0.884929 0.521518 -0.180247
C82   C     C_R   0.805993 0.936969 0.467504 -0.166846
C83   C     C_R   0.683866 0.414575 0.448693 -0.172154
C84   C     C_R   0.218810 0.027736 0.027317 0.027150
C85   C     C_R   0.299012 0.463065 0.540030 -0.166984
C86   C     C_R   0.183866 0.914575 0.448693 -0.172155
C87   C     C_R   0.799012 0.963065 0.540030 -0.166983
C88   C     C_3   0.869220 0.315741 0.460919 -0.226500
C89   C     C_3   0.137208 0.279622 0.547553 -0.222680
C90   C     C_3   0.369220 0.815741 0.460919 -0.226500
C91   C     C_3   0.637208 0.779622 0.547553 -0.222681
C92   C     C_3   0.858876 0.301766 0.540618 0.166692
C93   C     C_3   0.144584 0.261865 0.467581 0.171204
C94   C     C_3   0.358876 0.801766 0.540618 0.166693
C95   C     C_R   0.780801 0.028000 0.972571 0.027613
C96   C     C_3   0.644583 0.761865 0.467581 0.171204
C97   C     C_R   0.725448 0.320870 0.560902 -0.004234
C98   C     C_R   0.269191 0.339920 0.436465 0.000927
C99   C     C_R   0.225448 0.820870 0.560902 -0.004234
C100  C     C_R   0.769191 0.839920 0.436465 0.000927
C101  C     C_R   0.738965 0.366189 0.851942 0.548910
C102  C     C_R   0.260963 0.366264 0.148095 0.547379
C103  C     C_R   0.238965 0.866188 0.851942 0.548910
C104  C     C_R   0.760963 0.866264 0.148095 0.547379
C105  C     C_R   0.727869 0.953353 0.648324 0.546331
C106  C     C_R   0.706678 0.499320 0.955818 0.019221
C107  C     C_R   0.271365 0.950570 0.351166 0.533097
C108  C     C_R   0.227869 0.453353 0.648324 0.546331
C109  C     C_R   0.771365 0.450570 0.351166 0.533097
C110  C     C_R   0.527649 0.176862 0.646751 0.550813
C111  C     C_R   0.438444 0.180846 0.362801 0.545755
C112  C     C_R   0.027650 0.676862 0.646751 0.550813
C113  C     C_R   0.938444 0.680846 0.362801 0.545755
C114  C     C_R   0.724406 0.307594 0.639556 0.563518
C115  C     C_R   0.274045 0.312752 0.360771 0.537178
C116  C     C_R   0.224406 0.807594 0.639556 0.563518
Cr1   Cr    Cr6+3 0.769260 0.163750 0.750730 1.013121
Cr2   Cr    Cr6+3 0.385810 0.322400 0.252290 1.005122
Cr3   Cr    Cr6+3 0.114190 0.822400 0.747710 1.000070
Cr4   Cr    Cr6+3 0.885810 0.822400 0.252290 1.005122
Cr5   Cr    Cr6+3 0.230740 0.163750 0.249270 1.018536
Cr6   Cr    Cr6+3 0.269260 0.663750 0.750730 1.013121
Cr7   Cr    Cr6+3 0.730740 0.663750 0.249270 1.018536
Cr8   Cr    Cr6+3 0.612640 0.009910 0.748780 1.007686
Cr9   Cr    Cr6+3 0.387360 0.009910 0.251220 1.009962
Cr10  Cr    Cr6+3 0.112640 0.509910 0.748780 1.007686
Cr11  Cr    Cr6+3 0.887360 0.509910 0.251220 1.009962
Cr12  Cr    Cr6+3 0.614190 0.322400 0.747710 1.000070
H1    H     H_    0.486242 0.981947 0.065321 0.134439
H2    H     H_    0.436368 0.464946 0.577148 0.129548
H3    H     H_    0.028389 0.899261 0.449470 0.145641
H4    H     H_    0.936368 0.964946 0.577148 0.129548
H5    H     H_    0.631385 0.425324 0.548884 0.123331
H6    H     H_    0.334611 0.499860 0.434327 0.132125
H7    H     H_    0.131385 0.925324 0.548884 0.123331
H8    H     H_    0.834611 0.999860 0.434327 0.132125
H9    H     H_    0.646099 0.471785 0.421355 0.117923
H10   H     H_    0.325105 0.542433 0.561267 0.115438
H11   H     H_    0.146098 0.971785 0.421355 0.117922
H12   H     H_    0.513456 0.981850 0.934868 0.134181
H13   H     H_    0.825106 0.042433 0.561267 0.115438
H14   H     H_    0.886731 0.406327 0.444528 0.167676
H15   H     H_    0.105428 0.359840 0.562252 0.161357
H16   H     H_    0.386731 0.906327 0.444528 0.167676
H17   H     H_    0.605428 0.859840 0.562252 0.161357
H18   H     H_    0.897986 0.238066 0.436384 0.102179
H19   H     H_    0.122548 0.194078 0.576100 0.097098
H20   H     H_    0.397986 0.738066 0.436384 0.102179
H21   H     H_    0.622548 0.694078 0.576100 0.097098
H22   H     H_    0.885693 0.219248 0.562167 0.117511
H23   H     H_    0.986241 0.481947 0.065321 0.134440
H24   H     H_    0.130365 0.167934 0.451049 0.121241
H25   H     H_    0.385693 0.719248 0.562167 0.117511
H26   H     H_    0.630365 0.667934 0.451049 0.121241
H27   H     H_    0.520370 0.255756 0.055275 0.099392
H28   H     H_    0.479412 0.255956 0.944485 0.099612
H29   H     H_    0.020370 0.755756 0.055274 0.099392
H30   H     H_    0.979412 0.755956 0.944485 0.099613
H31   H     H_    0.864904 0.374993 0.918195 0.139691
H32   H     H_    0.134978 0.375582 0.081871 0.140328
H33   H     H_    0.364904 0.874999 0.918194 0.139691
H34   H     H_    0.013455 0.481850 0.934868 0.134181
H35   H     H_    0.634978 0.875581 0.081871 0.140328
H36   H     H_    0.882284 0.412513 0.044293 0.127995
H37   H     H_    0.117717 0.412697 0.955636 0.128295
H38   H     H_    0.382284 0.912519 0.044292 0.127995
H39   H     H_    0.617717 0.912696 0.955636 0.128295
H40   H     H_    0.117234 0.088514 0.063595 0.140751
H41   H     H_    0.882218 0.088891 0.936293 0.140483
H42   H     H_    0.617236 0.588529 0.063592 0.140751
H43   H     H_    0.382219 0.588889 0.936293 0.140484
H44   H     H_    0.638695 0.424037 0.083202 0.150799
H45   H     H_    0.942393 0.974366 0.448709 0.130895
H46   H     H_    0.361365 0.424350 0.917061 0.149593
H47   H     H_    0.138697 0.924024 0.083203 0.150799
H48   H     H_    0.861366 0.924352 0.917061 0.149593
H49   H     H_    0.618573 0.373765 0.959911 0.148386
H50   H     H_    0.381470 0.374206 0.040484 0.147869
H51   H     H_    0.118576 0.873753 0.959912 0.148385
H52   H     H_    0.881471 0.874208 0.040484 0.147869
H53   H     H_    0.596535 0.538200 0.940461 0.141324
H54   H     H_    0.402925 0.538677 0.059570 0.141996
H55   H     H_    0.096532 0.038185 0.940464 0.141325
H56   H     H_    0.028484 0.926311 0.576204 0.155205
H57   H     H_    0.902924 0.038679 0.059571 0.141996
H58   H     H_    0.513131 0.978412 0.564365 0.164768
H59   H     H_    0.486663 0.984227 0.437950 0.169715
H60   H     H_    0.013131 0.478412 0.564365 0.164768
H61   H     H_    0.986663 0.484227 0.437950 0.169715
H62   H     H_    0.785751 0.512055 0.601422 0.147246
H63   H     H_    0.823149 0.533003 0.512579 0.098531
H64   H     H_    0.860977 0.594769 0.592075 0.134539
H65   H     H_    0.178906 0.488559 0.395024 0.155735
H66   H     H_    0.143084 0.504121 0.485005 0.106997
H67   H     H_    0.442393 0.474366 0.448709 0.130895
H68   H     H_    0.094315 0.535684 0.404798 0.139820
H69   H     H_    0.285751 0.012055 0.601422 0.147246
H70   H     H_    0.323149 0.033002 0.512579 0.098531
H71   H     H_    0.360977 0.094770 0.592075 0.134539
H72   H     H_    0.678906 0.988559 0.395024 0.155735
H73   H     H_    0.643084 0.004121 0.485005 0.106997
H74   H     H_    0.594316 0.035684 0.404798 0.139820
H75   H     H_    0.528483 0.426311 0.576204 0.155206
H76   H     H_    0.528389 0.399261 0.449470 0.145641
O1    O     O_R   0.784290 0.290360 0.830540 -0.525824
O2    O     O_R   0.456020 0.282110 0.333230 -0.511649
O3    O     O_R   0.043980 0.782110 0.666770 -0.535206
O4    O     O_R   0.956020 0.782110 0.333230 -0.511650
O5    O     O_R   0.679070 0.374030 0.674430 -0.512804
O6    O     O_R   0.320930 0.374030 0.325570 -0.520933
O7    O     O_R   0.179070 0.874030 0.674430 -0.512804
O8    O     O_R   0.820930 0.874030 0.325570 -0.520933
O9    O     O_3   0.665360 0.165350 0.749070 -0.292046
O10   O     O_3   0.334640 0.165350 0.250930 -0.308241
O11   O     O_3   0.165360 0.665350 0.749070 -0.292046
O12   O     O_R   0.215710 0.290360 0.169460 -0.524957
O13   O     O_3   0.834640 0.665350 0.250930 -0.308241
O14   O     O_R   0.762610 0.041070 0.825230 -0.498194
O15   O     O_R   0.237390 0.041070 0.174770 -0.495575
O16   O     O_R   0.262610 0.541070 0.825230 -0.498194
O17   O     O_R   0.737390 0.541070 0.174770 -0.495575
O18   O     O_R   0.667390 0.924160 0.829970 -0.514429
O19   O     O_R   0.332610 0.924160 0.170030 -0.513380
O20   O     O_R   0.167390 0.424160 0.829970 -0.514428
O21   O     O_R   0.832610 0.424160 0.170030 -0.513380
O22   O     O_R   0.553980 0.081420 0.821780 -0.507686
O23   O     O_R   0.284290 0.790360 0.830540 -0.525823
O24   O     O_R   0.446020 0.081420 0.178220 -0.503557
O25   O     O_R   0.053980 0.581420 0.821780 -0.507686
O26   O     O_R   0.946020 0.581420 0.178220 -0.503557
O27   O     O_R   0.543210 0.283170 0.826740 -0.519620
O28   O     O_R   0.456790 0.283170 0.173260 -0.514917
O29   O     O_R   0.043210 0.783170 0.826740 -0.519620
O30   O     O_R   0.956790 0.783170 0.173260 -0.514917
O31   O     O_R   0.678350 0.375000 0.822720 -0.494724
O32   O     O_R   0.321650 0.375000 0.177280 -0.494681
O33   O     O_R   0.178350 0.875000 0.822720 -0.494724
O34   O     O_R   0.715710 0.790360 0.169460 -0.524957
O35   O     O_R   0.821650 0.875000 0.177280 -0.494680
O36   O     O_R   0.785060 0.289300 0.670580 -0.471704
O37   O     O_R   0.214940 0.289300 0.329420 -0.468135
O38   O     O_R   0.285060 0.789300 0.670580 -0.471704
O39   O     O_R   0.714940 0.789300 0.329420 -0.468135
O40   O     O_R   0.763330 0.040090 0.676940 -0.522107
O41   O     O_R   0.236670 0.040090 0.323060 -0.514197
O42   O     O_R   0.263330 0.540090 0.676940 -0.522107
O43   O     O_R   0.736670 0.540090 0.323060 -0.514197
O44   O     O_R   0.668160 0.923110 0.670000 -0.519626
O45   O     O_R   0.554690 0.080440 0.673480 -0.505882
O46   O     O_R   0.331840 0.923110 0.330000 -0.523581
O47   O     O_R   0.168160 0.423110 0.670000 -0.519626
O48   O     O_R   0.831840 0.423110 0.330000 -0.523581
O49   O     O_3   0.876074 0.408194 0.582242 -0.542818
O50   O     O_3   0.108362 0.350961 0.424384 -0.551810
O51   O     O_3   0.376074 0.908194 0.582242 -0.542818
O52   O     O_3   0.608362 0.850961 0.424384 -0.551810
O53   O     O_R   0.445310 0.080440 0.326520 -0.502995
O54   O     O_R   0.054690 0.580440 0.673480 -0.505882
O55   O     O_R   0.945310 0.580440 0.326520 -0.502995
O56   O     O_R   0.543980 0.282110 0.666770 -0.535206

loop_
_geom_bond_atom_site_label_1
_geom_bond_atom_site_label_2
_ccdc_geom_bond_type
C35   H49   S    
C7    C10   D    
C79   C83   A    
C55   C56   A    
C46   C113  S    
C109  O48   A    
C102  O32   A    
C49   C63   S    
C108  O42   A    
C18   H66   S    
C24   C42   A    
C24   H33   S    
C91   H17   S    
C70   C88   S    
C42   C103  S    
C25   C43   A    
C80   C85   A    
Cr7   O39   S    
C15   C28   A    
C22   C26   A    
Cr6   O38   S    
Cr3   O7    S    
C53   C54   A    
C17   H63   S    
Cr3   O11   S    
Cr7   O17   S    
C13   C84   A    
C17   O49   S    
Cr8   O45   S    
Cr6   O16   S    
C5    C58   S    
C40   O20   A    
C60   O26   A    
C50   C64   S    
Cr12  O56   S    
C114  O5    A    
C47   C55   A    
Cr9   O46   S    
Cr2   O2    S    
C51   O17   A    
C30   H39   S    
C116  O7    A    
Cr1   O1    S    
C99   C116  S    
C61   H76   S    
C71   C76   A    
C76   C93   S    
C9    H12   S    
Cr10  O20   S    
C67   C108  S    
C67   C71   A    
C22   H31   S    
C22   C39   A    
C2    C41   A    
C103  O23   A    
C47   C112  S    
C37   H55   S    
Cr9   O53   S    
C77   C94   S    
C3    O8    A    
C80   H6    S    
C41   C102  S    
C89   H19   S    
Cr11  O48   S    
Cr9   O10   S    
C63   H2    S    
C61   C63   S    
C43   C104  S    
C20   H72   S    
C90   H20   S    
C112  O54   A    
C66   C83   A    
C21   C43   A    
C104  O35   A    
C3    C100  S    
Cr3   O29   S    
C96   H26   S    
C21   C38   S    
C88   C92   S    
Cr1   O36   S    
C78   C96   S    
C8    C9    S    
C16   C95   A    
C4    C57   S    
C101  O31   A    
C50   C52   A    
C15   C29   S    
C1    O14   A    
C68   C107  S    
C23   C27   A    
C14   C27   A    
Cr9   O24   S    
C61   H67   S    
C105  O40   A    
C13   C37   S    
C81   C86   A    
C69   C87   A    
C103  O33   A    
Cr12  O9    S    
Cr6   O42   S    
Cr7   O34   S    
Cr4   O30   S    
C92   O49   S    
Cr12  O31   S    
Cr5   O41   S    
C91   C96   S    
C45   C53   A    
C17   H64   S    
C115  O37   A    
C40   O16   A    
C18   H65   S    
C89   C93   S    
C65   H4    S    
Cr5   O15   S    
C31   C62   S    
C59   O29   A    
Cr4   O8    S    
C79   H5    S    
C101  O1    A    
C88   H14   S    
C13   C42   A    
C6    H30   S    
C79   C97   A    
C90   C94   S    
C92   H22   S    
Cr8   O9    S    
Cr9   O19   S    
C110  O45   A    
C37   H51   S    
C116  O38   A    
C67   C85   A    
C19   H69   S    
Cr10  O54   S    
C108  O47   A    
C18   H68   S    
Cr4   O4    S    
C113  O4    A    
Cr1   O14   S    
Cr10  O25   S    
C38   H52   S    
C34   C95   S    
C96   O52   S    
Cr10  O11   S    
Cr2   O28   S    
C32   C73   S    
C91   H21   S    
C69   C105  S    
C45   C110  S    
Cr3   O33   S    
C81   C99   A    
C5    H27   S    
C32   H46   S    
Cr11  O26   S    
C18   O50   S    
C36   H50   S    
C93   O50   S    
C12   C26   A    
C1    O18   A    
C74   C91   S    
Cr8   O44   S    
C78   C100  A    
Cr5   O37   S    
C53   H58   S    
Cr5   O12   S    
C105  O44   A    
C110  O56   A    
C72   C77   A    
Cr6   O11   S    
C2    C36   S    
C44   C54   A    
C10   H23   S    
C34   H48   S    
C12   C62   A    
C14   C73   A    
C64   H45   S    
Cr8   O22   S    
C71   C89   S    
C64   H3    S    
C45   C49   A    
C68   C72   A    
C39   C101  S    
C23   H32   S    
C39   C106  A    
C60   O30   A    
C69   C74   A    
Cr2   O10   S    
C1    C16   S    
C3    O39   A    
C55   H60   S    
C87   H13   S    
Cr1   O9    S    
C44   C48   A    
C34   H41   S    
C111  O2    A    
C15   C84   A    
C2    C73   A    
C63   H75   S    
C75   C92   S    
C27   H37   S    
C7    H29   S    
C68   C86   A    
C86   H11   S    
C19   O51   S    
C48   C49   A    
C4    H28   S    
C32   H43   S    
Cr8   O18   S    
Cr12  O27   S    
C54   H59   S    
C6    C11   D    
C74   C78   A    
C44   C111  S    
Cr11  O55   S    
C33   H40   S    
C36   H54   S    
C57   O22   A    
C16   C30   A    
C59   O25   A    
C32   C36   S    
C7    C60   S    
C83   H9    S    
C12   C51   S    
C58   O24   A    
Cr11  O13   S    
C114  O36   A    
C72   C90   S    
C102  O12   A    
C25   C30   A    
C29   O19   A    
C56   H61   S    
C19   H70   S    
C107  O46   A    
C80   C98   A    
C20   O52   S    
C34   C38   S    
C82   C100  A    
C6    C59   S    
C107  O41   A    
Cr12  O5    S    
C24   C28   A    
C112  O3    A    
C20   H73   S    
C5    C8    D    
C104  O34   A    
C47   C52   A    
C62   C106  A    
C31   H42   S    
C28   H38   S    
C17   H62   S    
C35   H53   S    
C38   H57   S    
C21   C95   A    
C46   C50   A    
C33   H47   S    
C19   H71   S    
C23   C41   A    
C75   C97   A    
C51   O21   A    
Cr2   O6    S    
Cr5   O10   S    
C4    C9    D    
C20   H74   S    
C35   C106  S    
C89   H15   S    
C94   O51   S    
C64   C65   S    
Cr7   O43   S    
C98   C115  S    
C66   C70   A    
C81   H7    S    
C25   H35   S    
C94   H25   S    
C57   O27   A    
Cr6   O23   S    
C26   H36   S    
C111  O53   A    
C77   C99   A    
C31   C35   S    
C11   H34   S    
C66   C109  S    
C82   H8    S    
Cr7   O13   S    
C33   C84   S    
C33   C37   S    
C8    H1    S    
C58   O28   A    
C10   C11   S    
Cr4   O13   S    
Cr4   O35   S    
C14   C40   S    
Cr1   O40   S    
Cr2   O32   S    
C29   O15   A    
Cr3   O3    S    
C109  O43   A    
C31   H44   S    
C46   C56   A    
C70   C75   A    
Cr11  O21   S    
C48   C61   S    
C88   H18   S    
Cr10  O47   S    
C93   H24   S    
C113  O55   A    
C97   C114  S    
C76   C98   A    
C85   H10   S    
C115  O6    A    
C90   H16   S    
C52   C65   S    
C82   C87   A    
C65   H56   S    
