data_mof_unit_16876.cif
_audit_creation_date              2013-03-05T16:01:22-0500
_audit_creation_method            fapswitch 2.2
_symmetry_space_group_name_H-M    P1
_symmetry_Int_Tables_number       1
_space_group_crystal_system       triclinic
_cell_length_a                    19.608262
_cell_length_b                    6.932458
_cell_length_c                    17.783563
_cell_angle_alpha                 89.972928
_cell_angle_beta                  108.080185
_cell_angle_gamma                 90.031873
_cell_volume                      2298.0179093

loop_
_atom_site_label
_atom_site_type_symbol
_atom_site_description
_atom_site_fract_x
_atom_site_fract_y
_atom_site_fract_z
_atom_type_partial_charge
O1    O     O_R   0.561700 0.369960 0.440190 -0.577070
O2    O     O_R   0.061700 0.630040 0.940190 -0.576982
O3    O     O_R   0.413790 0.033680 0.407460 -0.594464
O4    O     O_R   0.913790 0.966320 0.907460 -0.595859
O5    O     O_R   0.438300 0.869760 0.559810 -0.607515
O6    O     O_R   0.938300 0.130240 0.059810 -0.597251
C1    C     C_R   0.386698 0.203835 0.384748 1.010533
C2    C     C_R   0.886693 0.796153 0.884751 1.016485
O7    O     O_R   0.559630 0.039830 0.430710 -0.555680
O8    O     O_R   0.059630 0.960170 0.930710 -0.558854
O9    O     O_R   0.585190 0.875950 0.583220 -0.599363
O10   O     O_R   0.085190 0.124050 0.083220 -0.599937
C3    C     C_R   0.580744 0.208747 0.414893 1.005164
C4    C     C_R   0.080748 0.791349 0.915105 1.001527
O11   O     O_R   0.414810 0.363770 0.416780 -0.603009
O12   O     O_R   0.914810 0.636230 0.916780 -0.602333
O13   O     O_3   0.508210 0.205480 0.550010 -0.294903
O14   O     O_3   0.008210 0.794520 0.050010 -0.290124
V1    V     V_3+5 0.498480 0.928140 0.490720 1.216630
V2    V     V_3+5 0.998480 0.071860 0.990720 1.221379
O15   O     O_R   0.586210 0.546600 0.592540 -0.605804
O16   O     O_R   0.086210 0.453400 0.092540 -0.609288
C5    C     C_R   0.613536 0.715991 0.615374 1.024683
C6    C     C_R   0.113540 0.284027 0.115368 1.016696
O17   O     O_R   0.440370 0.540460 0.569290 -0.603304
O18   O     O_R   0.940370 0.459540 0.069290 -0.593094
C7    C     C_R   0.419020 0.709081 0.584663 0.919715
C8    C     C_R   0.919099 0.290901 0.084266 0.911128
V3    V     V_3+5 0.501520 0.428910 0.509280 1.187588
V4    V     V_3+5 0.001520 0.571090 0.009280 1.195374
O19   O     O_3   0.491790 0.701440 0.449990 -0.236938
O20   O     O_3   0.991790 0.298560 0.949990 -0.240846
C9    C     C_R   0.315087 0.903843 0.716717 -0.111372
C10   C     C_R   0.750685 0.218798 0.142031 -0.088889
C11   C     C_R   0.360367 0.894265 0.669516 -0.167756
C12   C     C_R   0.798402 0.223061 0.097477 -0.158211
H1    H     H_    0.387834 0.024091 0.660997 0.140741
H2    H     H_    0.779289 0.184156 0.035446 0.113276
C13   C     C_R   0.370717 0.719019 0.634646 -0.124615
C14   C     C_R   0.869763 0.281355 0.132183 -0.103094
C15   C     C_R   0.333865 0.554130 0.647429 -0.162480
C16   C     C_R   0.893304 0.331040 0.212564 -0.167304
C17   C     C_R   0.287689 0.564524 0.693671 -0.058687
C18   C     C_R   0.846163 0.321316 0.257795 -0.009317
H3    H     H_    0.258944 0.436119 0.701107 0.113235
H4    H     H_    0.866327 0.355124 0.320239 0.128608
C19   C     C_R   0.278525 0.738917 0.729787 0.190046
C20   C     C_R   0.773734 0.268993 0.222778 0.185513
C21   C     C_R   0.231032 0.614595 0.839187 0.379376
C22   C     C_R   0.720485 0.405488 0.326123 0.383019
C23   C     C_R   0.181060 0.629655 0.881096 -0.183784
C24   C     C_R   0.675914 0.379899 0.374055 -0.186744
H5    H     H_    0.183126 0.525646 0.927253 0.191474
H6    H     H_    0.675878 0.489204 0.417518 0.203077
C25   C     C_R   0.131020 0.781201 0.867196 -0.357875
C26   C     C_R   0.629928 0.219909 0.365334 -0.364918
C27   C     C_R   0.130611 0.918912 0.808344 0.417320
C28   C     C_R   0.630260 0.079968 0.307455 0.398131
C29   C     C_R   0.178963 0.901339 0.764854 -0.222713
C30   C     C_R   0.676655 0.101193 0.261677 -0.178924
C31   C     C_R   0.229559 0.751206 0.779329 -0.120125
C32   C     C_R   0.722793 0.260817 0.270533 -0.137655
C33   C     C_2   0.712988 0.896995 0.710347 -0.049942
C34   C     C_2   0.213039 0.103061 0.210246 -0.050930
C35   C     C_2   0.680453 0.726833 0.683296 -0.446417
C36   C     C_2   0.180468 0.273199 0.183276 -0.450556
H7    H     H_    0.702339 0.591504 0.710669 0.153880
H8    H     H_    0.202336 0.408500 0.210695 0.153541
C37   C     C_2   0.780382 0.921035 0.778015 -0.075495
C38   C     C_2   0.280441 0.078981 0.277899 -0.076556
C39   C     C_2   0.820340 0.773690 0.817159 -0.422924
C40   C     C_2   0.320344 0.226307 0.317157 -0.424360
H9    H     H_    0.797539 0.067756 0.795542 0.134806
H10   H     H_    0.297647 0.932250 0.295320 0.135645
H11   H     H_    0.309024 0.040321 0.743605 0.149763
H12   H     H_    0.695458 0.177815 0.113061 0.130919
H13   H     H_    0.804329 0.626528 0.800068 0.160524
H14   H     H_    0.304285 0.373479 0.300159 0.160983
H15   H     H_    0.339918 0.417346 0.620797 0.125371
H16   H     H_    0.948442 0.374543 0.240547 0.113413
N1    N     N_R   0.284458 0.465200 0.860725 0.224744
O21   O     O_R   0.350884 0.502914 0.866368 -0.374215
O22   O     O_R   0.268978 0.298607 0.885062 -0.390263
N2    N     N_R   0.759632 0.583412 0.331906 0.229584
O23   O     O_R   0.764147 0.668385 0.268356 -0.415346
O24   O     O_R   0.781570 0.675378 0.398913 -0.389985
N3    N     N_R   0.079808 0.073506 0.789562 0.230838
O25   O     O_R   0.032525 0.080920 0.719679 -0.389482
O26   O     O_R   0.091425 0.226665 0.833948 -0.371942
N4    N     N_R   0.582167 0.918960 0.291771 0.235727
O27   O     O_R   0.537675 0.895266 0.220962 -0.374484
O28   O     O_R   0.594414 0.775157 0.341079 -0.377190
H17   H     H_    0.176547 0.005905 0.718766 0.153988
H18   H     H_    0.677056 0.989585 0.219216 0.189007
H19   H     H_    0.688951 0.029914 0.681881 0.136827
H20   H     H_    0.189029 0.970173 0.181717 0.136890

loop_
_geom_bond_atom_site_label_1
_geom_bond_atom_site_label_2
_geom_bond_distance
_ccdc_geom_bond_type
C36   H8    1.082414 S    
N3    O25   1.300584 A    
C33   C35   1.356155 D    
C16   H16   1.083203 S    
O13   V3    1.697409 S    
O4    C2    1.305217 A    
V1    O19   1.718608 S    
N1    O21   1.301329 A    
C22   N2    1.439186 S    
C13   C15   1.407575 A    
O9    V1    1.997944 S    
C11   H1    1.083068 S    
N2    O24   1.301444 A    
O3    C1    1.305318 A    
C27   C29   1.402593 A    
C8    C14   1.475771 S    
C28   C30   1.404081 A    
C33   H19   1.086020 S    
C30   C32   1.406561 A    
O7    V1    1.992123 S    
C21   N1    1.438246 S    
C37   C39   1.342957 D    
O7    C3    1.301233 A    
C40   H14   1.082796 S    
C9    C11   1.400015 A    
O5    C7    1.296843 A    
C20   C32   1.499544 S    
C9    H11   1.083405 S    
O6    C8    1.293812 A    
C33   C37   1.495024 S    
C7    C13   1.488173 S    
C35   H7    1.082417 S    
C38   H10   1.086149 S    
C22   C24   1.408547 A    
O3    V1    1.989848 S    
O14   V4    1.697900 S    
C34   C38   1.495038 S    
C23   C25   1.406398 A    
C6    C36   1.484127 S    
C3    C26   1.496756 S    
C24   H6    1.082815 S    
C14   C16   1.402072 A    
C4    C25   1.491277 S    
C2    O12   1.289449 A    
C15   C17   1.401239 A    
C16   C18   1.402622 A    
N1    O22   1.301497 A    
C18   H4    1.082604 S    
O11   V3    2.016070 S    
O17   V3    1.992659 S    
C29   C31   1.405757 A    
C21   C31   1.418052 A    
C12   C14   1.402058 A    
N2    O23   1.301335 A    
C34   H20   1.086021 S    
O8    C4    1.300143 A    
O8    V2    1.993034 S    
C1    C40   1.480285 S    
C1    O11   1.289446 A    
C21   C23   1.407113 A    
O15   V3    2.022163 S    
C27   N3    1.430671 S    
C23   H5    1.083576 S    
C34   C36   1.356194 D    
C11   C13   1.407396 A    
C15   H15   1.083065 S    
C28   N4    1.431359 S    
N4    O28   1.299671 A    
O10   V2    1.997885 S    
O1    V3    1.992491 S    
C37   H9    1.086154 S    
C17   H3    1.083124 S    
O18   V4    1.991750 S    
C25   C27   1.414459 A    
C9    C19   1.406233 A    
O16   C6    1.302258 A    
C10   C20   1.408836 A    
C12   H2    1.083352 S    
C39   H13   1.082796 S    
V2    O20   1.718115 S    
C2    C39   1.480251 S    
O16   V4    2.022343 S    
C19   C31   1.493492 S    
O5    V1    1.991181 S    
O17   C7    1.299358 A    
O6    V2    1.991685 S    
O10   C6    1.291693 A    
O18   C8    1.296056 A    
O2    V4    1.991982 S    
C5    C35   1.484110 S    
O15   C5    1.302177 A    
V3    O19   2.142721 S    
V4    O20   2.143413 S    
N4    O27   1.300740 A    
C17   C19   1.406790 A    
C22   C32   1.419135 A    
O9    C5    1.291665 A    
O13   V1    2.172869 S    
C10   C12   1.401500 A    
C26   C28   1.416246 A    
O14   V2    2.172175 S    
O2    C4    1.300583 A    
O4    V2    1.989682 S    
C18   C20   1.409622 A    
O1    C3    1.302328 A    
N3    O26   1.300468 A    
C38   C40   1.342929 D    
C29   H17   1.083904 S    
O12   V4    2.016146 S    
C24   C26   1.406951 A    
C10   H12   1.082732 S    
C30   H18   1.083114 S    
