data_mof_unit_16152.cif
_audit_creation_date              2012-12-10T17:50:33-0500
_audit_creation_method            fapswitch 2.2
_symmetry_space_group_name_H-M    P1
_symmetry_Int_Tables_number       1
_space_group_crystal_system       triclinic
_cell_length_a                    15.747318
_cell_length_b                    10.708533
_cell_length_c                    9.983582
_cell_angle_alpha                 91.007647
_cell_angle_beta                  91.184352
_cell_angle_gamma                 94.056626
_cell_volume                      1678.65522845

loop_
_atom_site_label
_atom_site_type_symbol
_atom_type_description
_atom_site_fract_x
_atom_site_fract_y
_atom_site_fract_z
_atom_type_partial_charge
C1    C     C_R   0.508656 0.261818 0.500048 0.863480
C2    C     C_3   0.083546 0.493180 0.496708 0.068053
C3    C     C_3   0.978657 0.592055 0.570677 0.052770
C4    C     C_3   0.915897 0.494082 0.501570 0.100778
C5    C     C_3   0.031376 0.598040 0.443888 0.110659
C6    C     C_3   0.968932 0.500073 0.373360 0.160379
C7    C     C_1   0.174265 0.495074 0.495677 -0.021649
C8    C     C_1   0.825331 0.496437 0.503800 -0.019420
C9    C     C_R   0.561622 0.127146 0.744147 -0.198911
C10   C     C_R   0.548051 0.072950 0.869125 0.243023
C11   C     C_R   0.500095 0.957725 0.875523 0.163891
C12   C     C_R   0.338291 0.499673 0.498837 0.895206
C13   C     C_R   0.475713 0.892642 0.755943 -0.232866
C14   C     C_R   0.497541 0.942391 0.629555 0.069252
C15   C     C_R   0.527632 0.067686 0.625176 0.061007
C16   C     C_R   0.519949 0.129765 0.501897 -0.098656
C17   C     C_R   0.506386 0.062359 0.381867 -0.233978
C18   C     C_R   0.494637 0.934750 0.383868 -0.212349
C19   C     C_R   0.490601 0.873470 0.506387 -0.103049
C20   C     C_R   0.387344 0.314468 0.120670 0.111645
C21   C     C_R   0.343037 0.224008 0.037488 -0.305834
C22   C     C_R   0.345298 0.230849 0.900439 0.102818
C23   C     C_R   0.494649 0.739521 0.501671 0.871976
C24   C     C_R   0.393509 0.328003 0.845037 -0.111136
C25   C     C_R   0.446587 0.414214 0.921995 0.051166
C26   C     C_R   0.445583 0.411428 0.066442 0.095912
C27   C     C_R   0.552679 0.580275 0.076660 0.149653
C28   C     C_R   0.553909 0.579582 0.933661 0.081044
C29   C     C_R   0.661722 0.500577 0.501246 0.893855
C30   C     C_3   0.967685 0.387788 0.554960 0.152245
C31   C     C_3   0.021585 0.392701 0.425916 -0.234967
C32   C     C_1   0.249484 0.497324 0.496340 -0.197881
C33   C     C_1   0.750326 0.498584 0.503691 -0.186418
C34   C     C_3   0.030266 0.486988 0.623472 0.074664
H1    H     H_    0.040432 0.310949 0.366470 0.153169
H2    H     H_    0.436531 0.806260 0.763561 0.178188
H3    H     H_    0.487970 0.884376 0.288791 0.183653
H4    H     H_    0.302181 0.150751 0.081669 0.140715
H5    H     H_    0.387397 0.331737 0.739816 0.219266
H6    H     H_    0.503294 0.108010 0.286278 0.171829
H7    H     H_    0.598977 0.215792 0.740407 0.171699
N1    N     N_R   0.499210 0.498800 0.142780 -0.119085
N2    N     N_R   0.499180 0.498720 0.857170 -0.142239
O1    O     O_R   0.500000 0.316780 0.614690 -0.647878
O2    O     O_R   0.499990 0.316750 0.385360 -0.605733
O3    O     O_R   0.376780 0.500000 0.614650 -0.638529
O4    O     O_R   0.376770 0.499980 0.385310 -0.594074
O5    O     O_R   0.500010 0.683250 0.614640 -0.647389
O6    O     O_R   0.500000 0.683220 0.385310 -0.599264
O7    O     O_R   0.623230 0.500020 0.614690 -0.643085
O8    O     O_R   0.623220 0.500000 0.385350 -0.589952
Zn1   Zn    Zn3+2 0.500010 0.500020 0.653130 0.912264
Zn2   Zn    Zn3+2 0.499990 0.499980 0.346870 0.968717
N3    N     N_3   0.478187 0.906231 0.003234 -0.475706
H8    H     H_    0.433493 0.962035 0.045458 0.180907
H9    H     H_    0.448207 0.816348 0.991107 0.178122
N4    N     N_3   0.608724 0.666121 0.153777 -0.388406
H10   H     H_    0.598337 0.757136 0.124576 0.195931
H11   H     H_    0.671504 0.648533 0.132351 0.169614
N5    N     N_3   0.364119 0.306540 0.256604 -0.355139
H12   H     H_    0.299215 0.321406 0.261471 0.170082
H13   H     H_    0.369951 0.214882 0.288497 0.166978
N6    N     N_3   0.297275 0.141163 0.815002 -0.456927
H14   H     H_    0.266808 0.070876 0.871815 0.182457
H15   H     H_    0.249405 0.187739 0.766977 0.174797
N7    N     N_3   0.615160 0.664688 0.872339 -0.461173
H16   H     H_    0.606734 0.663798 0.769572 0.265671
H17   H     H_    0.675307 0.632213 0.890494 0.162299
C35   C     C_3   0.930612 0.268903 0.619068 -0.923986
H18   H     H_    0.982841 0.209929 0.648441 0.242827
H19   H     H_    0.894877 0.293416 0.709353 0.241316
H20   H     H_    0.886839 0.215943 0.546488 0.252113
C36   C     C_3   0.933378 0.508389 0.231291 -0.937507
H21   H     H_    0.986342 0.511888 0.159535 0.240612
H22   H     H_    0.889299 0.425056 0.207794 0.251730
H23   H     H_    0.898302 0.594242 0.222045 0.243870
N8    N     N_3   0.067418 0.712936 0.385113 -0.451840
H24   H     H_    0.016593 0.764454 0.355314 0.193406
H25   H     H_    0.098160 0.687715 0.297963 0.185454
N9    N     N_3   0.954710 0.700118 0.648018 -0.452152
H26   H     H_    0.010851 0.746476 0.686377 0.202781
H27   H     H_    0.920526 0.666283 0.730001 0.180475
N10   N     N_3   0.065148 0.481445 0.759322 -0.457789
H28   H     H_    0.013774 0.473926 0.823987 0.180984
H29   H     H_    0.095695 0.398208 0.766225 0.189977
C37   C     C_3   0.581993 0.140220 0.994719 -0.900498
H30   H     H_    0.619284 0.229061 0.972269 0.229870
H31   H     H_    0.528325 0.163216 0.058507 0.242205
H32   H     H_    0.623940 0.079546 0.051027 0.248012

loop_
_geom_bond_atom_site_label_1
_geom_bond_atom_site_label_2
_ccdc_geom_bond_type
N7    H17   S    
N6    H15   S    
O3    Zn1   S    
C36   H21   S    
C19   C23   S    
C2    C7    S    
C4    C8    S    
C25   N2    A    
N8    H24   S    
C18   H3    S    
N1    Zn2   S    
C30   C31   S    
C37   H31   S    
N2    Zn1   S    
N4    H11   S    
C15   C16   A    
C29   C33   S    
C24   H5    S    
N5    H13   S    
C18   C19   A    
C35   H19   S    
C22   N6    S    
C21   H4    S    
C16   C17   A    
O7    Zn1   S    
C23   O5    A    
C20   N5    S    
C9    C10   A    
O4    Zn2   S    
O1    Zn1   S    
N7    H16   S    
O2    Zn2   S    
C21   C22   A    
C12   C32   S    
C36   H22   S    
C12   O4    A    
C3    N9    S    
C29   O7    A    
N8    H25   S    
N3    H9    S    
C30   C34   S    
C24   C25   A    
C13   H2    S    
N9    H27   S    
C27   N4    S    
C37   H30   S    
C3    C34   S    
C25   C26   A    
N5    H12   S    
O8    Zn2   S    
C12   O3    A    
C35   H20   S    
C28   N7    S    
C1    O1    A    
N10   H28   S    
C17   C18   A    
C1    C16   S    
C11   N3    S    
C4    C6    S    
N10   H29   S    
C36   H23   S    
C31   H1    S    
C2    C5    S    
C34   N10   S    
C5    N8    S    
C3    C4    S    
C30   C35   S    
C26   N1    A    
C6    C36   S    
C29   O8    A    
N3    H8    S    
C10   C37   S    
C7    C32   T    
C2    C34   S    
C14   C19   A    
N9    H26   S    
C3    C5    S    
C37   H32   S    
C28   N2    A    
C9    H7    S    
C9    C15   A    
C11   C13   A    
C27   N1    A    
C1    O2    A    
N4    H10   S    
C5    C6    S    
C20   C26   A    
O6    Zn2   S    
C6    C31   S    
C22   C24   A    
C8    C33   T    
C35   H18   S    
C23   O6    A    
C10   C11   A    
N6    H14   S    
O5    Zn1   S    
C20   C21   A    
C27   C28   A    
C14   C15   A    
C2    C31   S    
C13   C14   A    
C17   H6    S    
C4    C30   S    
