data_mof_unit_36713.cif
_audit_creation_date              2012-12-10T18:51:31-0500
_audit_creation_method            fapswitch 2.2
_symmetry_space_group_name_H-M    P1
_symmetry_Int_Tables_number       1
_space_group_crystal_system       triclinic
_cell_length_a                    10.555667
_cell_length_b                    10.096916
_cell_length_c                    10.490498
_cell_angle_alpha                 89.885154
_cell_angle_beta                  93.350031
_cell_angle_gamma                 90.03338
_cell_volume                      1116.16099057

loop_
_atom_site_label
_atom_site_type_symbol
_atom_type_description
_atom_site_fract_x
_atom_site_fract_y
_atom_site_fract_z
_atom_type_partial_charge
C1    C     C_R   0.871400 0.499741 0.500930 -0.079624
C2    C     C_R   0.128713 0.500022 0.500815 -0.093446
C3    C     C_R   0.261389 0.499982 0.500241 0.900949
C4    C     C_R   0.738683 0.499985 0.500877 0.948660
C5    C     C_R   0.502057 0.499900 0.258400 0.875411
C6    C     C_R   0.500087 0.500200 0.741649 0.854815
C7    C     C_3   0.584626 0.594381 0.046862 -0.244790
C8    C     C_3   0.420424 0.406488 0.953326 -0.226535
C9    C     C_3   0.620998 0.474932 0.962948 -0.271566
C10   C     C_3   0.383909 0.526109 0.036677 -0.236601
C11   C     C_3   0.465642 0.617777 0.958728 0.181615
C12   C     C_3   0.539542 0.383309 0.041111 0.193791
C13   C     C_3   0.501028 0.500958 0.876564 0.005313
C14   C     C_3   0.503662 0.499759 0.123459 0.005340
C15   C     C_R   0.576697 0.069646 0.585561 0.169373
C16   C     C_R   0.404847 0.929843 0.433498 0.155054
C17   C     C_R   0.414501 0.072376 0.421718 0.124221
C18   C     C_R   0.590625 0.929372 0.569893 0.126438
C19   C     C_R   0.071907 0.530310 0.614787 0.006568
C20   C     C_R   0.927622 0.469409 0.387194 0.022922
C21   C     C_R   0.941031 0.529461 0.614682 0.047262
C22   C     C_R   0.059125 0.469235 0.387170 0.027768
H1    H     H_    0.649335 0.671885 0.088155 0.142491
H2    H     H_    0.355934 0.328730 0.912152 0.135014
H3    H     H_    0.716395 0.451288 0.930146 0.136164
H4    H     H_    0.288209 0.549090 0.069087 0.140789
N1    N     N_R   0.500000 0.857200 0.500000 -0.127614
N2    N     N_R   0.500000 0.142800 0.500000 -0.137524
O1    O     O_R   0.316770 0.614620 0.499990 -0.632633
O2    O     O_R   0.683230 0.385380 0.500010 -0.603761
O3    O     O_R   0.683230 0.614620 0.500010 -0.620011
O4    O     O_R   0.316770 0.385380 0.499990 -0.641495
O5    O     O_R   0.499970 0.614650 0.313950 -0.619731
O6    O     O_R   0.500030 0.385350 0.686050 -0.637457
O7    O     O_R   0.500030 0.614650 0.686050 -0.626573
O8    O     O_R   0.499970 0.385350 0.313950 -0.614764
Zn1   Zn    Zn3+2 0.500000 0.653120 0.500000 0.923268
Zn2   Zn    Zn3+2 0.500000 0.346880 0.500000 0.931288
C23   C     C_3   0.623344 0.127248 0.713542 -0.348918
C24   C     C_3   0.750227 0.200305 0.711465 -0.775659
H5    H     H_    0.815089 0.165838 0.791901 0.206095
H6    H     H_    0.797504 0.182562 0.621242 0.260319
H7    H     H_    0.735982 0.307941 0.724564 0.260701
H8    H     H_    0.548638 0.184977 0.755683 0.220435
H9    H     H_    0.631747 0.048626 0.787558 0.132700
C25   C     C_3   0.280395 0.864733 0.384686 -0.291666
C26   C     C_3   0.288078 0.785700 0.260871 -0.763887
H10   H     H_    0.377549 0.806916 0.214203 0.256284
H11   H     H_    0.278225 0.678426 0.278157 0.266022
H12   H     H_    0.207691 0.811911 0.192429 0.196633
H13   H     H_    0.236489 0.811710 0.462180 0.204412
H14   H     H_    0.203531 0.936855 0.366076 0.156379
C27   C     C_3   0.323338 0.146562 0.328549 -0.316978
C28   C     C_3   0.334258 0.105645 0.189067 -0.883547
H15   H     H_    0.258928 0.033961 0.159607 0.248012
H16   H     H_    0.320299 0.193271 0.125614 0.255338
H17   H     H_    0.428570 0.061767 0.173625 0.274298
H18   H     H_    0.223914 0.140614 0.356599 0.156085
H19   H     H_    0.339206 0.251545 0.331475 0.283154
C29   C     C_3   0.710927 0.863349 0.624432 -0.344847
C30   C     C_3   0.811707 0.864795 0.525248 -0.814306
H20   H     H_    0.844608 0.967842 0.510183 0.231249
H21   H     H_    0.894711 0.804557 0.559587 0.242933
H22   H     H_    0.773721 0.825940 0.431746 0.274355
H23   H     H_    0.755221 0.913264 0.709298 0.176109
H24   H     H_    0.690442 0.763999 0.661363 0.246269
N3    N     N_3   0.424175 0.746572 0.909158 -0.455423
H25   H     H_    0.398231 0.803331 0.986514 0.168147
H26   H     H_    0.503015 0.793289 0.873235 0.181350
N4    N     N_3   0.581117 0.254180 0.089153 -0.447786
H27   H     H_    0.600582 0.196221 0.010250 0.163553
H28   H     H_    0.667093 0.267590 0.141959 0.193176
N5    N     N_3   0.145497 0.559480 0.730885 -0.470471
H29   H     H_    0.205496 0.479303 0.752913 0.177784
H30   H     H_    0.201258 0.643055 0.716034 0.210058
N6    N     N_3   0.850135 0.440598 0.273468 -0.474782
H31   H     H_    0.869821 0.509894 0.203168 0.176019
H32   H     H_    0.873500 0.346324 0.241340 0.176656
N7    N     N_3   0.877815 0.557206 0.729207 -0.493558
H33   H     H_    0.908758 0.488475 0.798898 0.187792
H34   H     H_    0.905142 0.651520 0.761303 0.198495
N8    N     N_3   0.123170 0.439850 0.273419 -0.496349
H35   H     H_    0.097248 0.344801 0.242460 0.185067
H36   H     H_    0.093924 0.507848 0.202472 0.171908

loop_
_geom_bond_atom_site_label_1
_geom_bond_atom_site_label_2
_ccdc_geom_bond_type
C15   C18   A    
C1    C21   A    
C8    C13   S    
N5    H29   S    
C27   H19   S    
C9    H3    S    
C26   H11   S    
C27   C28   S    
C7    C11   S    
O2    Zn2   S    
C22   N8    S    
C19   C21   A    
N6    H32   S    
C5    O8    A    
C25   H14   S    
C6    O7    A    
C20   N6    S    
C30   H21   S    
C3    O1    A    
C9    C13   S    
C28   H15   S    
C24   H7    S    
C16   C17   A    
C5    O5    A    
C2    C22   A    
N4    H27   S    
O4    Zn2   S    
C23   H9    S    
C10   H4    S    
C16   N1    A    
C24   H6    S    
C29   H24   S    
N5    H30   S    
C30   H20   S    
C11   N3    S    
C26   H12   S    
C7    C14   S    
C28   H16   S    
N3    H25   S    
C19   N5    S    
N6    H31   S    
C10   C14   S    
C16   C25   S    
C23   C24   S    
N7    H34   S    
C25   H13   S    
O5    Zn1   S    
C6    O6    A    
C29   C30   S    
N3    H26   S    
C30   H22   S    
C26   H10   S    
N2    Zn2   S    
C8    C12   S    
C21   N7    S    
C15   C23   S    
C5    C14   S    
C18   C29   S    
C24   H5    S    
C20   C22   A    
C29   H23   S    
N8    H36   S    
C17   C27   S    
C7    C9    S    
C12   N4    S    
C25   C26   S    
C1    C20   A    
O7    Zn1   S    
C2    C19   A    
O6    Zn2   S    
C17   N2    A    
C18   N1    A    
C12   C14   S    
C27   H18   S    
C23   H8    S    
C1    C4    S    
O8    Zn2   S    
C2    C3    S    
C6    C13   S    
C11   C13   S    
C15   N2    A    
N1    Zn1   S    
C7    H1    S    
C8    H2    S    
C3    O4    A    
C9    C12   S    
C4    O3    A    
C10   C11   S    
N7    H33   S    
O3    Zn1   S    
C8    C10   S    
N8    H35   S    
O1    Zn1   S    
N4    H28   S    
C4    O2    A    
C28   H17   S    
