data_mof_unit_13760.cif
_audit_creation_date              2012-12-10T17:57:26-0500
_audit_creation_method            fapswitch 2.2
_symmetry_space_group_name_H-M    P1
_symmetry_Int_Tables_number       1
_space_group_crystal_system       triclinic
_cell_length_a                    9.569715
_cell_length_b                    10.784971
_cell_length_c                    13.475838
_cell_angle_alpha                 90.917495
_cell_angle_beta                  73.095409
_cell_angle_gamma                 89.200007
_cell_volume                      1330.30915723

loop_
_atom_site_label
_atom_site_type_symbol
_atom_type_description
_atom_site_fract_x
_atom_site_fract_y
_atom_site_fract_z
_atom_type_partial_charge
C1    C     C_R   0.500361 0.737622 0.497128 0.837852
C2    C     C_R   0.430552 0.462967 0.981634 -0.017952
C3    C     C_R   0.478765 0.480966 0.872962 -0.118162
C4    C     C_R   0.539051 0.448651 0.033905 0.079751
C5    C     C_R   0.683518 0.412016 0.976811 0.066672
C6    C     C_R   0.721641 0.414096 0.868402 0.114109
C7    C     C_R   0.630139 0.481322 0.824804 0.183049
C8    C     C_R   0.512563 0.484171 0.137722 -0.119442
C9    C     C_R   0.756061 0.417149 0.134955 -0.185205
C10   C     C_R   0.376585 0.508493 0.817281 -0.174790
C11   C     C_R   0.584276 0.935025 0.548036 -0.170827
C12   C     C_R   0.421911 0.505534 0.700892 0.862188
C13   C     C_R   0.586436 0.063277 0.548462 -0.153851
C14   C     C_R   0.502806 0.128709 0.496815 -0.057418
C15   C     C_R   0.420414 0.066193 0.442183 -0.173754
C16   C     C_R   0.420484 0.937617 0.438965 0.187642
C17   C     C_R   0.500453 0.871632 0.494521 -0.063478
C18   C     C_R   0.908060 0.599669 0.536402 -0.017140
C19   C     C_R   0.053321 0.598490 0.540690 0.533450
C20   C     C_R   0.092942 0.402223 0.458245 -0.012018
C21   C     C_R   0.944020 0.401598 0.459475 0.010904
C22   C     C_R   0.500952 0.262415 0.499360 0.792146
C23   C     C_R   0.577617 0.493532 0.300586 0.800381
C24   C     C_R   0.788543 0.389368 0.029068 -0.108028
C25   C     C_R   0.619093 0.468309 0.188771 -0.075094
C26   C     C_R   0.229603 0.532514 0.875279 0.359887
C27   C     C_R   0.181571 0.505993 0.980344 -0.203596
C28   C     C_R   0.278292 0.464463 0.032561 0.337938
Cu1   Cu    Cu3+1 0.359340 0.499980 0.500000 1.063966
Cu2   Cu    Cu3+1 0.640660 0.500020 0.500000 0.988143
H1    H     H_    0.838406 0.400660 0.174167 0.193438
H2    H     H_    0.650531 0.111332 0.590856 0.169278
H3    H     H_    0.359077 0.117447 0.399695 0.164242
H4    H     H_    0.839275 0.680504 0.564206 0.170826
H5    H     H_    0.163188 0.323889 0.424182 0.161005
H6    H     H_    0.903455 0.322545 0.426745 0.152015
H7    H     H_    0.897795 0.356907 0.988019 0.181229
H8    H     H_    0.411544 0.531769 0.178206 0.208481
H9    H     H_    0.066715 0.516772 0.021960 0.194952
H10   H     H_    0.646866 0.885291 0.590528 0.176531
N1    N     N_R   0.147940 0.499970 0.499970 -0.202720
N2    N     N_R   0.852060 0.500060 0.499990 -0.198162
O1    O     O_R   0.381250 0.680340 0.500010 -0.509837
O2    O     O_R   0.618820 0.680370 0.500010 -0.602901
O3    O     O_R   0.323240 0.499950 0.650980 -0.499355
O4    O     O_R   0.560810 0.499980 0.650980 -0.576495
O5    O     O_R   0.381180 0.319630 0.499990 -0.588298
O6    O     O_R   0.618750 0.319660 0.499990 -0.594837
O7    O     O_R   0.439190 0.500020 0.349020 -0.570882
O8    O     O_R   0.676760 0.500050 0.349020 -0.573196
I1    I     I_    0.309669 0.853323 0.340106 -0.280220
Cl1   Cl    Cl    0.099808 0.726874 0.605226 -0.491109
I2    I     I_    0.920883 0.341070 0.767942 -0.270124
Cl2   Cl    Cl    0.101699 0.604307 0.823469 -0.492491
Cl3   Cl    Cl    0.199217 0.401992 0.156289 -0.663500
I3    I     I_    0.706330 0.663526 0.786973 -0.225189

loop_
_geom_bond_atom_site_label_1
_geom_bond_atom_site_label_2
_ccdc_geom_bond_type
C22   O6    A    
C9    C24   A    
C6    C7    A    
C24   H7    S    
C11   C13   A    
C13   H2    S    
C1    C17   S    
C16   I1    S    
C4    C8    A    
Cu2   O2    S    
C14   C22   S    
C11   H10   S    
C18   N2    A    
C22   O5    A    
Cu2   O8    S    
C9    C25   A    
C3    C10   A    
Cu1   O7    S    
C13   C14   A    
Cu1   O1    S    
C8    C25   A    
C18   H4    S    
C10   C26   A    
C26   C27   A    
Cu1   Cu2   S    
C5    C24   A    
C8    H8    S    
C7    I3    S    
Cu1   O5    S    
C2    C4    A    
C10   C12   S    
Cu2   O6    S    
C28   Cl3   S    
C1    O1    A    
C20   N1    A    
C3    C7    A    
C2    C3    A    
C23   C25   S    
C5    C6    A    
C23   O7    A    
C9    H1    S    
C6    I2    S    
C27   H9    S    
C15   C16   A    
C26   Cl2   S    
C4    C5    A    
C20   C21   A    
C12   O4    A    
C18   C19   A    
C19   N1    A    
C27   C28   A    
C21   H6    S    
C14   C15   A    
C16   C17   A    
C23   O8    A    
C2    C28   A    
C1    O2    A    
Cu1   N1    S    
C20   H5    S    
Cu2   N2    S    
C19   Cl1   S    
Cu2   O4    S    
C11   C17   A    
C21   N2    A    
Cu1   O3    S    
C12   O3    A    
C15   H3    S    
