data_mof_unit_62935.cif
_audit_creation_date              2012-12-11T14:22:44-0500
_audit_creation_method            fapswitch 2.2
_symmetry_space_group_name_H-M    P1
_symmetry_Int_Tables_number       1
_space_group_crystal_system       triclinic
_cell_length_a                    16.911703
_cell_length_b                    6.951266
_cell_length_c                    15.322071
_cell_angle_alpha                 90.000065
_cell_angle_beta                  93.611591
_cell_angle_gamma                 90.000225
_cell_volume                      1797.65090249

loop_
_atom_site_label
_atom_site_type_symbol
_atom_type_description
_atom_site_fract_x
_atom_site_fract_y
_atom_site_fract_z
_atom_type_partial_charge
O1    O     O_R   0.414560 0.494300 0.417030 -0.526887
O2    O     O_R   0.585440 0.994300 0.582970 -0.526897
O3    O     O_R   0.577160 0.822630 0.413790 -0.533731
O4    O     O_R   0.422840 0.322630 0.586210 -0.533728
C1    C     C_R   0.604257 0.655218 0.393286 0.741057
C2    C     C_R   0.395743 0.155218 0.606714 0.741073
O5    O     O_R   0.414660 0.823920 0.406630 -0.531525
O6    O     O_R   0.585340 0.323920 0.593370 -0.531527
O7    O     O_R   0.421790 0.995650 0.575760 -0.538544
O8    O     O_R   0.578210 0.495650 0.424240 -0.538543
C3    C     C_R   0.386403 0.655461 0.385393 0.746214
C4    C     C_R   0.613596 0.155462 0.614607 0.746223
O9    O     O_3   0.502530 0.661260 0.555500 -0.363274
O10   O     O_3   0.497470 0.161260 0.444500 -0.363265
V1    V     V_3+5 0.499530 0.935570 0.489700 1.549739
V2    V     V_3+5 0.500470 0.435570 0.510300 1.549743
C5    C     C_2   0.783112 0.270302 0.790035 -0.107846
C6    C     C_2   0.216870 0.770313 0.209984 -0.107844
C7    C     C_2   0.814070 0.109478 0.826618 -0.291762
C8    C     C_2   0.185929 0.609482 0.173384 -0.291752
H1    H     H_    0.810136 0.408422 0.806447 0.163768
H2    H     H_    0.189832 0.908435 0.193587 0.163774
H3    H     H_    0.783713 0.973256 0.815357 0.175632
H4    H     H_    0.216298 0.473264 0.184628 0.175639
C9    C     C_2   0.706428 0.271408 0.737116 0.136790
C10   C     C_2   0.293553 0.771442 0.262904 0.136807
C11   C     C_2   0.688102 0.145661 0.670665 -0.023243
C12   C     C_2   0.311897 0.645651 0.329334 -0.023240
C13   C     C_1   0.166419 0.119218 0.831326 -0.170939
C14   C     C_1   0.833581 0.619217 0.168674 -0.170938
C15   C     C_1   0.218903 0.127524 0.780062 0.030266
C16   C     C_1   0.781097 0.627524 0.219938 0.030267
C17   C     C_1   0.280858 0.137482 0.719898 0.034725
C18   C     C_1   0.719142 0.637482 0.280102 0.034725
C19   C     C_1   0.333353 0.145790 0.668650 -0.156706
C20   C     C_1   0.666647 0.645790 0.331350 -0.156707
O11   O     O_R   0.921850 0.770730 0.075840 -0.535750
O12   O     O_R   0.078150 0.270730 0.924160 -0.535750
O13   O     O_R   0.085350 0.439650 0.093390 -0.540103
O14   O     O_R   0.914650 0.939650 0.906610 -0.540106
C21   C     C_R   0.114218 0.607765 0.113413 0.756405
C22   C     C_R   0.885781 0.107765 0.886588 0.756410
O15   O     O_R   0.922860 0.441090 0.086230 -0.536646
O16   O     O_R   0.077140 0.941090 0.913770 -0.536645
O17   O     O_R   0.914540 0.269530 0.917020 -0.540870
O18   O     O_R   0.085460 0.769530 0.082980 -0.540871
C23   C     C_R   0.895955 0.609819 0.106700 0.727337
C24   C     C_R   0.104045 0.109819 0.893300 0.727343
O19   O     O_3   0.997510 0.602520 0.944550 -0.371270
O20   O     O_3   0.002490 0.102520 0.055450 -0.371271
V3    V     V_3+5 0.000460 0.328160 0.010290 1.467303
V4    V     V_3+5 0.999540 0.828160 0.989710 1.467299
I1    I     I_    0.627320 0.489459 0.775958 -0.374872
I2    I     I_    0.372625 0.989620 0.224097 -0.374840
I3    I     I_    0.771138 0.941192 0.626011 -0.385333
I4    I     I_    0.228888 0.441063 0.373957 -0.385315

loop_
_geom_bond_atom_site_label_1
_geom_bond_atom_site_label_2
_ccdc_geom_bond_type
O4    V2    S    
O13   V3    S    
C21   O18   A    
C15   C17   S    
O19   V3    S    
O16   C24   A    
C9    C11   D    
C11   I3    S    
C7    H3    S    
O1    C3    A    
C7    C22   S    
O6    C4    A    
O19   V4    S    
O2    C4    A    
O16   V4    S    
C2    O7    A    
O5    V1    S    
O20   V3    S    
C12   I4    S    
C5    C9    S    
C1    O8    A    
C13   C15   T    
O1    V2    S    
O8    V2    S    
O5    C3    A    
O2    V1    S    
O15   V3    S    
O15   C23   A    
C3    C12   S    
C10   I2    S    
O14   V4    S    
C10   C12   D    
C5    C7    D    
C9    I1    S    
C8    C21   S    
C18   C20   T    
O9    V1    S    
O7    V1    S    
O10   V2    S    
O11   C23   A    
O17   V3    S    
C13   C24   S    
C14   C16   T    
C1    C20   S    
O18   V4    S    
C14   C23   S    
O3    V1    S    
C2    C19   S    
O13   C21   A    
C6    C8    D    
O4    C2    A    
O6    V2    S    
O9    V2    S    
O20   V4    S    
O11   V4    S    
O10   V1    S    
O12   V3    S    
C4    C11   S    
C17   C19   T    
C6    H2    S    
O12   C24   A    
C5    H1    S    
C8    H4    S    
C16   C18   S    
O14   C22   A    
O3    C1    A    
C22   O17   A    
C6    C10   S    
