data_mof_unit_41105.cif
_audit_creation_date              2012-12-11T15:38:12-0500
_audit_creation_method            fapswitch 2.2
_symmetry_space_group_name_H-M    P1
_symmetry_Int_Tables_number       1
_space_group_crystal_system       triclinic
_cell_length_a                    20.515743
_cell_length_b                    7.37681
_cell_length_c                    18.828255
_cell_angle_alpha                 90.081812
_cell_angle_beta                  107.286944
_cell_angle_gamma                 89.90718
_cell_volume                      2720.76183274

loop_
_atom_site_label
_atom_site_type_symbol
_atom_type_description
_atom_site_fract_x
_atom_site_fract_y
_atom_site_fract_z
_atom_type_partial_charge
O1    O     O_R   0.422200 0.494350 0.423850 -0.531899
O2    O     O_R   0.577800 0.994350 0.576150 -0.530158
O3    O     O_R   0.555980 0.819730 0.435060 -0.518002
O4    O     O_R   0.444020 0.319730 0.564940 -0.519907
C1    C     C_R   0.574969 0.652814 0.420307 0.722542
C2    C     C_R   0.425042 0.153145 0.579702 0.721193
O5    O     O_R   0.421370 0.823790 0.415230 -0.529555
O6    O     O_R   0.578630 0.323790 0.584770 -0.528993
O7    O     O_R   0.442220 0.998380 0.556180 -0.543384
O8    O     O_R   0.557780 0.498380 0.443820 -0.547424
C3    C     C_R   0.396597 0.655482 0.394466 0.711619
C4    C     C_R   0.603409 0.155446 0.605528 0.716805
O9    O     O_3   0.507000 0.662200 0.546270 -0.377966
O10   O     O_3   0.493000 0.162200 0.453730 -0.381661
V1    V     V_3+5 0.498700 0.935390 0.491420 1.559532
V2    V     V_3+5 0.501300 0.435390 0.508580 1.554593
C5    C     C_1   0.666216 0.145480 0.667966 -0.110149
C6    C     C_1   0.333799 0.645565 0.332010 -0.112490
C7    C     C_1   0.718896 0.134540 0.719687 0.067450
C8    C     C_1   0.281127 0.634583 0.280280 0.067268
C9    C     C_1   0.781032 0.120622 0.780421 0.062236
C10   C     C_1   0.218995 0.620581 0.219543 0.059805
C11   C     C_1   0.833728 0.109677 0.832120 -0.122154
C12   C     C_1   0.166296 0.609591 0.167850 -0.132173
C13   C     C_3   0.272759 0.259320 0.822001 -0.456800
C14   C     C_3   0.726925 0.761363 0.178209 -0.463189
C15   C     C_3   0.229701 0.925287 0.793388 0.618700
C16   C     C_3   0.769908 0.426517 0.205358 0.635087
C17   C     C_3   0.280739 0.914034 0.743458 -0.524935
C18   C     C_3   0.718832 0.414125 0.255138 -0.544600
H1    H     H_    0.293194 0.261522 0.883186 0.265857
H2    H     H_    0.706777 0.765490 0.117020 0.252861
H3    H     H_    0.327475 0.840064 0.771773 0.295098
H4    H     H_    0.672282 0.339786 0.226700 0.284865
H5    H     H_    0.258040 0.829395 0.694926 0.286554
H6    H     H_    0.741668 0.328986 0.303378 0.290991
C19   C     C_1   0.381109 0.129133 0.626912 0.006199
C20   C     C_1   0.618793 0.627954 0.372958 -0.008955
C21   C     C_3   0.207338 0.129975 0.791818 -0.366542
C22   C     C_3   0.792313 0.631295 0.207831 -0.359137
C23   C     C_3   0.331259 0.224593 0.784594 0.653982
C24   C     C_3   0.668240 0.725403 0.215200 0.638113
C25   C     C_3   0.296983 0.104868 0.713282 -0.400631
C26   C     C_3   0.702523 0.604282 0.286078 -0.394100
C27   C     C_3   0.225383 0.186053 0.664093 0.747721
C28   C     C_3   0.774106 0.684661 0.335653 0.764950
C29   C     C_3   0.171983 0.185937 0.708679 1.025446
C30   C     C_3   0.827544 0.686067 0.291080 1.016698
C31   C     C_1   0.344091 0.104000 0.665973 0.259397
C32   C     C_1   0.655604 0.602720 0.333606 0.201682
C33   C     C_1   0.158995 0.144075 0.837532 0.314359
C34   C     C_1   0.840848 0.645947 0.162350 0.314005
C35   C     C_1   0.120208 0.127409 0.875107 0.006739
C36   C     C_1   0.879739 0.628734 0.124860 0.010909
H7    H     H_    0.255793 0.399945 0.808625 0.274457
H8    H     H_    0.743842 0.901564 0.192611 0.277668
O11   O     O_R   0.942270 0.764870 0.056240 -0.537092
O12   O     O_R   0.057730 0.264870 0.943760 -0.539141
O13   O     O_R   0.078640 0.431230 0.084780 -0.533176
O14   O     O_R   0.921360 0.931230 0.915220 -0.533121
C37   C     C_R   0.103443 0.599673 0.105466 0.696881
C38   C     C_R   0.896568 0.099711 0.894517 0.715005
O15   O     O_R   0.944030 0.435400 0.064960 -0.504227
O16   O     O_R   0.055970 0.935400 0.935040 -0.508263
O17   O     O_R   0.922190 0.260960 0.923840 -0.529113
O18   O     O_R   0.077810 0.760960 0.076160 -0.532966
C39   C     C_R   0.925163 0.606089 0.079167 0.699081
C40   C     C_R   0.074837 0.105752 0.920839 0.688399
O19   O     O_3   0.993030 0.592980 0.953770 -0.375198
O20   O     O_3   0.006970 0.092980 0.046230 -0.374038
V3    V     V_3+5 0.001290 0.319740 0.008580 1.589455
V4    V     V_3+5 0.998710 0.819740 0.991420 1.578007
S1    S     S_3+6 0.407788 0.117458 0.849770 0.174150
O21   O     O_2   0.398425 0.938348 0.882225 -0.219906
O22   O     O_2   0.461296 0.088777 0.810913 -0.295744
O23   O     O_3   0.439417 0.259789 0.921690 -0.393210
H9    H     H_    0.486490 0.216521 0.946106 0.422364
S2    S     S_3+6 0.591946 0.619503 0.149106 0.196325
O24   O     O_2   0.564654 0.745908 0.084490 -0.190660
O25   O     O_2   0.601096 0.439025 0.117162 -0.248938
O26   O     O_3   0.530296 0.590059 0.190330 -0.432157
H10   H     H_    0.541020 0.473096 0.217090 0.339241
S3    S     S_3+6 0.369974 0.438485 0.764157 0.125175
O27   O     O_2   0.390406 0.552850 0.832979 -0.210536
O28   O     O_2   0.434493 0.397453 0.744765 -0.312611
O29   O     O_3   0.322559 0.565565 0.694331 -0.454598
H11   H     H_    0.355367 0.632817 0.674847 0.361579
S4    S     S_3+6 0.629277 0.938497 0.236620 0.113005
O30   O     O_2   0.606774 0.052613 0.167910 -0.234844
O31   O     O_2   0.565905 0.895865 0.257884 -0.315244
O32   O     O_3   0.677481 0.066834 0.305488 -0.451267
H12   H     H_    0.645066 0.135603 0.325189 0.355537
S5    S     S_3+6 0.192462 0.086421 0.571366 0.157581
O33   O     O_2   0.231664 0.162512 0.522311 -0.286846
O34   O     O_2   0.198695 0.883705 0.570852 -0.304995
O35   O     O_3   0.110056 0.145930 0.533865 -0.398741
H13   H     H_    0.084075 0.030812 0.524978 0.407389
S6    S     S_3+6 0.807078 0.583154 0.427985 0.160504
O36   O     O_2   0.768495 0.660337 0.477592 -0.282509
O37   O     O_2   0.799887 0.380691 0.427855 -0.304510
O38   O     O_3   0.889791 0.639330 0.465392 -0.399534
H14   H     H_    0.915264 0.523238 0.473436 0.407192
S7    S     S_3+6 0.156295 0.769439 0.756012 0.166189
O39   O     O_2   0.166169 0.599646 0.801503 -0.256877
O40   O     O_2   0.090118 0.850158 0.760029 -0.297880
O41   O     O_3   0.146438 0.710870 0.667073 -0.390635
H15   H     H_    0.097223 0.683954 0.645362 0.433551
S8    S     S_3+6 0.843262 0.269775 0.242499 0.164420
O42   O     O_2   0.833033 0.099624 0.197019 -0.257662
O43   O     O_2   0.909384 0.349531 0.238169 -0.301896
O44   O     O_3   0.853483 0.212057 0.331544 -0.392141
H16   H     H_    0.902750 0.185305 0.353113 0.432834
S9    S     S_3+6 0.264337 0.848566 0.891301 0.129778
O45   O     O_2   0.306181 0.680256 0.895708 -0.237376
O46   O     O_2   0.305781 0.987998 0.943523 -0.286063
O47   O     O_3   0.199464 0.795544 0.925193 -0.492515
H17   H     H_    0.221301 0.741170 0.974653 0.361183
S10   S     S_3+6 0.735353 0.352327 0.106903 0.110081
O48   O     O_2   0.693234 0.492612 0.055768 -0.289402
O49   O     O_2   0.793546 0.307583 0.076553 -0.328286
O50   O     O_3   0.689178 0.162962 0.100349 -0.427454
H18   H     H_    0.679283 0.123318 0.047929 0.394474
F1    F     F_    0.143881 0.356038 0.706534 -0.548501
F2    F     F_    0.855211 0.856731 0.293678 -0.548685
F3    F     F_    0.117152 0.077437 0.674104 -0.604135
F4    F     F_    0.882619 0.577528 0.325104 -0.605651
F5    F     F_    0.233198 0.363512 0.647402 -0.547011
F6    F     F_    0.766031 0.861668 0.353128 -0.544604

loop_
_geom_bond_atom_site_label_1
_geom_bond_atom_site_label_2
_ccdc_geom_bond_type
C13   H1    S    
C21   C33   S    
C3    C6    S    
C14   H2    S    
S5    O33   D    
C15   C17   S    
S1    O22   D    
S1    O21   D    
S4    O31   D    
O44   H16   S    
O1    C3    A    
O2    C4    A    
C2    O7    A    
O26   H10   S    
O47   H17   S    
O5    C3    A    
C12   C37   S    
O16   C40   A    
C28   F6    S    
C7    C9    S    
C27   F5    S    
S2    O25   D    
O12   V3    S    
O41   H15   S    
O14   V4    S    
C23   S3    S    
C17   H3    S    
S8    O42   D    
O14   C38   A    
C35   C40   S    
S10   O48   D    
C37   O18   A    
C11   C38   S    
O18   V4    S    
C26   C28   S    
C4    C5    S    
O20   V3    S    
S9    O47   S    
O5    V1    S    
C28   S6    S    
C27   S5    S    
O6    V2    S    
C1    C20   S    
C17   C25   S    
C23   C25   S    
C18   C26   S    
C24   C26   S    
O11   C39   A    
C34   C36   T    
C29   F3    S    
C28   C30   S    
C27   C29   S    
O15   C39   A    
O13   C37   A    
C18   H4    S    
C15   C21   S    
O38   H14   S    
O23   H9    S    
O4    C2    A    
C13   C23   S    
O32   H12   S    
S2    O24   D    
C25   C31   S    
C36   C39   S    
O17   V3    S    
C30   F4    S    
C33   C35   T    
S10   O50   S    
O4    V2    S    
O19   V4    S    
C19   C31   T    
C29   F1    S    
S3    O27   D    
S4    O32   S    
O6    C4    A    
O35   H13   S    
C2    C19   S    
S7    O40   D    
O1    V2    S    
O2    V1    S    
C25   C27   S    
O50   H18   S    
C15   S9    S    
O12   C40   A    
S3    O28   D    
C8    C10   S    
C24   S2    S    
S5    O35   S    
S6    O37   D    
C9    C11   T    
S1    O23   S    
C10   C12   T    
C24   S4    S    
O3    V1    S    
C14   C24   S    
C21   C29   S    
S9    O45   D    
C26   C32   S    
C22   C30   S    
C38   O17   A    
O29   H11   S    
C13   H7    S    
O15   V3    S    
O3    C1    A    
C14   H8    S    
C30   F2    S    
C20   C32   T    
S6    O38   S    
C17   H5    S    
S8    O44   S    
C18   H6    S    
C16   C18   S    
O7    V1    S    
C1    O8    A    
C22   C34   S    
C13   C21   S    
S2    O26   S    
C14   C22   S    
C16   S8    S    
C15   S7    S    
C5    C7    T    
S8    O43   D    
S7    O41   S    
C6    C8    T    
O16   V4    S    
O11   V4    S    
S10   O49   D    
C23   S1    S    
S3    O29   S    
S4    O30   D    
S5    O34   D    
S6    O36   D    
O9    V2    S    
S7    O39   D    
C16   S10   S    
C16   C22   S    
O10   V1    S    
O8    V2    S    
O13   V3    S    
S9    O46   D    
