data_mof_unit_11251.cif
_audit_creation_date              2012-12-10T17:32:59-0500
_audit_creation_method            fapswitch 2.2
_symmetry_space_group_name_H-M    P1
_symmetry_Int_Tables_number       1
_space_group_crystal_system       triclinic
_cell_length_a                    30.272246
_cell_length_b                    30.117174
_cell_length_c                    23.453702
_cell_angle_alpha                 90.006504
_cell_angle_beta                  90.00362
_cell_angle_gamma                 88.329667
_cell_volume                      21373.9940691

loop_
_atom_site_label
_atom_site_type_symbol
_atom_type_description
_atom_site_fract_x
_atom_site_fract_y
_atom_site_fract_z
_atom_type_partial_charge
C1    C     C_R   0.586412 0.999335 0.500285 0.844288
C2    C     C_R   0.947617 0.725150 0.582486 -0.025269
C3    C     C_1   0.999996 0.500006 0.279701 0.042283
C4    C     C_1   0.999997 0.500008 0.220393 0.034119
C5    C     C_1   0.500004 0.999994 0.220296 0.031862
C6    C     C_1   0.000004 0.499991 0.779608 0.032225
C7    C     C_1   0.499996 0.000006 0.779702 0.042259
C8    C     C_R   0.841875 0.975768 0.458435 -0.095575
C9    C     C_R   0.014024 0.839974 0.451931 -0.063908
C10   C     C_R   0.158122 0.024240 0.458458 -0.095563
C11   C     C_R   0.985976 0.160020 0.451949 -0.063891
C12   C     C_R   0.159242 0.972655 0.539562 -0.087348
C13   C     C_R   0.277783 0.940472 0.570729 -0.028387
C14   C     C_R   0.966819 0.843123 0.537623 -0.094426
C15   C     C_R   0.840761 0.027351 0.539558 -0.087358
C16   C     C_R   0.033160 0.156887 0.537667 -0.094435
C17   C     C_R   0.341876 0.475755 0.958451 -0.095557
C18   C     C_R   0.514008 0.339972 0.951935 -0.063910
C19   C     C_R   0.658123 0.524247 0.958479 -0.095554
C20   C     C_R   0.485980 0.660020 0.951953 -0.063901
C21   C     C_R   0.659240 0.472645 0.039566 -0.087365
C22   C     C_R   0.466834 0.343121 0.037656 -0.094425
C23   C     C_R   0.340761 0.527354 0.039555 -0.087356
C24   C     C_R   0.052260 0.274869 0.582603 -0.025483
C25   C     C_R   0.533162 0.656884 0.037675 -0.094436
C26   C     C_R   0.864376 0.001031 0.499339 -0.167859
C27   C     C_R   0.994199 0.864241 0.497379 -0.189178
C28   C     C_R   0.135624 0.998974 0.499350 -0.167853
C29   C     C_R   0.005795 0.135760 0.497403 -0.189180
C30   C     C_R   0.364376 0.501028 0.999343 -0.167836
C31   C     C_R   0.494194 0.364241 0.997389 -0.189186
C32   C     C_R   0.635623 0.498970 0.999356 -0.167838
C33   C     C_R   0.505798 0.635759 0.997406 -0.189175
C34   C     C_R   0.794038 0.029638 0.537368 0.020290
C35   C     C_R   0.272641 0.065428 0.437195 -0.017559
C36   C     C_R   0.963402 0.796161 0.536283 0.020172
C37   C     C_R   0.205964 0.970368 0.537373 0.020296
C38   C     C_R   0.036558 0.203850 0.536346 0.020167
C39   C     C_R   0.203824 0.030402 0.465014 0.015125
C40   C     C_R   0.003822 0.794935 0.444411 0.020817
C41   C     C_R   0.796174 0.969607 0.464984 0.015126
C42   C     C_R   0.996182 0.205056 0.444434 0.020804
C43   C     C_R   0.294038 0.529643 0.037362 0.020281
C44   C     C_R   0.463439 0.296156 0.036340 0.020161
C45   C     C_R   0.705963 0.470356 0.037378 0.020282
C46   C     C_R   0.014020 0.724373 0.392796 -0.050704
C47   C     C_R   0.536566 0.703849 0.036355 0.020150
C48   C     C_R   0.703821 0.530412 0.965048 0.015130
C49   C     C_R   0.503804 0.294933 0.944423 0.020804
C50   C     C_R   0.296174 0.469596 0.965002 0.015128
C51   C     C_R   0.496186 0.705056 0.944439 0.020802
C52   C     C_R   0.772146 0.998358 0.502705 0.015132
C53   C     C_R   0.983953 0.772445 0.490321 0.010118
C54   C     C_R   0.227855 0.001649 0.502721 0.015126
C55   C     C_R   0.016029 0.227556 0.490364 0.010130
C56   C     C_R   0.272146 0.498357 0.002707 0.015125
C57   C     C_R   0.727354 0.934579 0.437159 -0.017577
C58   C     C_R   0.483963 0.272442 0.990355 0.010131
C59   C     C_R   0.727852 0.501646 0.002739 0.015118
C60   C     C_R   0.516038 0.727555 0.990368 0.010135
C61   C     C_R   0.768470 0.062978 0.566965 -0.086018
C62   C     C_R   0.940003 0.771513 0.578348 -0.087694
C63   C     C_R   0.231535 0.937025 0.566955 -0.086017
C64   C     C_R   0.059909 0.228512 0.578454 -0.087676
C65   C     C_R   0.226202 0.064708 0.435644 -0.076916
C66   C     C_R   0.015525 0.771065 0.393848 -0.072336
C67   C     C_R   0.773792 0.935305 0.435598 -0.076915
C68   C     C_R   0.986015 0.275605 0.392806 -0.050624
C69   C     C_R   0.984499 0.228915 0.393862 -0.072348
C70   C     C_R   0.268469 0.562988 0.066948 -0.085992
C71   C     C_R   0.440098 0.271500 0.078456 -0.087683
C72   C     C_R   0.731535 0.437005 0.066946 -0.085992
C73   C     C_R   0.559918 0.728512 0.078466 -0.087663
C74   C     C_R   0.726197 0.564733 0.935707 -0.076918
C75   C     C_R   0.515491 0.271062 0.893853 -0.072364
C76   C     C_R   0.273795 0.435285 0.935634 -0.076922
C77   C     C_R   0.484488 0.728918 0.893871 -0.072352
C78   C     C_R   0.864443 0.962519 0.404382 0.158052
C79   C     C_R   0.222222 0.559542 0.070718 -0.028421
C80   C     C_R   0.896052 0.927380 0.402686 -0.045262
C81   C     C_R   0.918036 0.916983 0.351909 -0.109341
C82   C     C_R   0.908748 0.941313 0.302439 -0.145083
C83   C     C_R   0.877378 0.976264 0.303727 -0.172137
C84   C     C_R   0.855318 0.986915 0.354499 -0.139335
C85   C     C_R   0.053936 0.857611 0.422922 0.116779
C86   C     C_R   0.095969 0.841346 0.439509 -0.204839
C87   C     C_R   0.133877 0.855957 0.412056 -0.158818
C88   C     C_R   0.130331 0.887387 0.368427 -0.124629
C89   C     C_R   0.088752 0.903390 0.351037 -0.121886
C90   C     C_R   0.447748 0.225143 0.082601 -0.025450
C91   C     C_R   0.050702 0.887999 0.377310 -0.041392
C92   C     C_R   0.135556 0.037489 0.404408 0.158041
C93   C     C_R   0.103945 0.072626 0.402719 -0.045259
C94   C     C_R   0.081957 0.083018 0.351944 -0.109348
C95   C     C_R   0.091241 0.058686 0.302469 -0.145105
C96   C     C_R   0.122613 0.023738 0.303750 -0.172138
C97   C     C_R   0.144678 0.013091 0.354520 -0.139344
C98   C     C_R   0.946062 0.142382 0.422932 0.116791
C99   C     C_R   0.904030 0.158646 0.439524 -0.204855
C100  C     C_R   0.866120 0.144031 0.412070 -0.158817
C101  C     C_R   0.777785 0.440442 0.070701 -0.028331
C102  C     C_R   0.869663 0.112599 0.368433 -0.124627
C103  C     C_R   0.911240 0.096598 0.351038 -0.121909
C104  C     C_R   0.949293 0.111991 0.377314 -0.041393
C105  C     C_R   0.134506 0.948063 0.583660 0.159410
C106  C     C_R   0.109173 0.911654 0.568122 -0.100356
C107  C     C_R   0.085491 0.888854 0.609309 -0.092907
C108  C     C_R   0.085977 0.902948 0.666091 -0.116470
C109  C     C_R   0.110573 0.939600 0.681760 -0.161432
C110  C     C_R   0.134987 0.962014 0.640753 -0.136368
C111  C     C_R   0.945210 0.870616 0.582843 0.160976
C112  C     C_R   0.999343 0.586376 0.500679 0.832247
C113  C     C_R   0.552294 0.774874 0.082590 -0.025430
C114  C     C_R   0.904683 0.892894 0.572076 -0.135000
C115  C     C_R   0.885169 0.920146 0.613782 -0.088215
C116  C     C_R   0.906453 0.926152 0.665996 -0.095596
C117  C     C_R   0.947107 0.904586 0.676741 -0.148475
C118  C     C_R   0.966395 0.876726 0.635445 -0.101287
C119  C     C_R   0.865500 0.051946 0.583661 0.159416
C120  C     C_R   0.890829 0.088355 0.568129 -0.100369
C121  C     C_R   0.914512 0.111160 0.609321 -0.092919
C122  C     C_R   0.914031 0.097071 0.666101 -0.116475
C123  C     C_R   0.889440 0.060417 0.681763 -0.161415
C124  C     C_R   0.772635 0.565452 0.937259 -0.017533
C125  C     C_R   0.865024 0.037998 0.640751 -0.136346
C126  C     C_R   0.054776 0.129398 0.582881 0.160993
C127  C     C_R   0.095310 0.107135 0.572112 -0.135106
C128  C     C_R   0.114832 0.079883 0.613808 -0.088289
C129  C     C_R   0.093549 0.073867 0.666016 -0.095542
C130  C     C_R   0.052890 0.095422 0.676765 -0.148429
C131  C     C_R   0.033593 0.123278 0.635476 -0.101227
C132  C     C_R   0.364441 0.462491 0.904404 0.158021
C133  C     C_R   0.396054 0.427355 0.902725 -0.045269
C134  C     C_R   0.418037 0.416946 0.851952 -0.109368
C135  C     C_R   0.513981 0.224370 0.892800 -0.050538
C136  C     C_R   0.408746 0.441260 0.802469 -0.145106
C137  C     C_R   0.377373 0.476208 0.803740 -0.172125
C138  C     C_R   0.355312 0.486872 0.854509 -0.139356
C139  C     C_R   0.553921 0.357603 0.922920 0.116797
C140  C     C_R   0.595954 0.341335 0.939507 -0.204836
C141  C     C_R   0.633863 0.355945 0.912055 -0.158850
C142  C     C_R   0.630319 0.387379 0.868430 -0.124611
C143  C     C_R   0.588741 0.403383 0.851039 -0.121892
C144  C     C_R   0.550689 0.387992 0.877309 -0.041408
C145  C     C_R   0.635563 0.537507 0.904428 0.158007
C146  C     C_R   0.227356 0.434569 0.937176 -0.017585
C147  C     C_R   0.603944 0.572637 0.902745 -0.045229
C148  C     C_R   0.581966 0.583041 0.851966 -0.109379
C149  C     C_R   0.591271 0.558729 0.802479 -0.145117
C150  C     C_R   0.622651 0.523788 0.803753 -0.172104
C151  C     C_R   0.644705 0.513129 0.854528 -0.139367
C152  C     C_R   0.446066 0.642383 0.922934 0.116794
C153  C     C_R   0.404034 0.658648 0.939523 -0.204852
C154  C     C_R   0.366124 0.644034 0.912067 -0.158831
C155  C     C_R   0.369667 0.612600 0.868433 -0.124624
C156  C     C_R   0.411244 0.596597 0.851041 -0.121891
C157  C     C_R   0.485988 0.775609 0.892821 -0.050493
C158  C     C_R   0.449297 0.611992 0.877316 -0.041372
C159  C     C_R   0.634503 0.448050 0.083659 0.159422
C160  C     C_R   0.609169 0.411644 0.068117 -0.100357
C161  C     C_R   0.585496 0.388835 0.109304 -0.092925
C162  C     C_R   0.585991 0.402918 0.166090 -0.116487
C163  C     C_R   0.610584 0.439571 0.181762 -0.161423
C164  C     C_R   0.634991 0.461993 0.140755 -0.136345
C165  C     C_R   0.445219 0.370619 0.082867 0.160992
C166  C     C_R   0.404679 0.392871 0.072097 -0.135203
C167  C     C_R   0.385160 0.420133 0.113789 -0.088312
C168  C     C_R   0.701406 0.024340 0.542422 0.063416
C169  C     C_R   0.406450 0.426173 0.165992 -0.095496
C170  C     C_R   0.447116 0.404631 0.176740 -0.148386
C171  C     C_R   0.466410 0.376763 0.135457 -0.101120
C172  C     C_R   0.365498 0.551951 0.083657 0.159413
C173  C     C_R   0.390827 0.588360 0.068125 -0.100371
C174  C     C_R   0.414502 0.611171 0.109318 -0.092947
C175  C     C_R   0.414016 0.597086 0.166101 -0.116509
C176  C     C_R   0.389428 0.560431 0.181762 -0.161426
C177  C     C_R   0.365018 0.538007 0.140748 -0.136336
C178  C     C_R   0.554779 0.629389 0.082883 0.160973
C179  C     C_R   0.974749 0.703341 0.541563 0.063253
C180  C     C_R   0.595319 0.607136 0.072113 -0.135273
C181  C     C_R   0.614838 0.579873 0.113799 -0.088325
C182  C     C_R   0.593547 0.573832 0.165996 -0.095450
C183  C     C_R   0.552881 0.595372 0.176744 -0.148319
C184  C     C_R   0.533587 0.623241 0.135467 -0.101047
C185  C     C_R   0.787433 0.106520 0.581995 0.144269
C186  C     C_R   0.794866 0.137507 0.538663 -0.150381
C187  C     C_R   0.811400 0.179128 0.551889 -0.152995
C188  C     C_R   0.820134 0.190233 0.608548 -0.106884
C189  C     C_R   0.812082 0.159840 0.652082 -0.119176
C190  C     C_R   0.298598 0.975660 0.542422 0.063427
C191  C     C_R   0.795623 0.118171 0.638971 -0.127423
C192  C     C_R   0.902681 0.791258 0.612012 0.148159
C193  C     C_R   0.861182 0.797686 0.586148 -0.152703
C194  C     C_R   0.825279 0.814605 0.617617 -0.141837
C195  C     C_R   0.830372 0.824464 0.675420 -0.103382
C196  C     C_R   0.871311 0.817183 0.701865 -0.123685
C197  C     C_R   0.907314 0.800424 0.670421 -0.136713
C198  C     C_R   0.212570 0.893481 0.581963 0.144243
C199  C     C_R   0.205137 0.862497 0.538614 -0.150363
C200  C     C_R   0.188605 0.820873 0.551818 -0.153004
C201  C     C_R   0.025180 0.296670 0.541620 0.063259
C202  C     C_R   0.179870 0.809762 0.608472 -0.106902
C203  C     C_R   0.187920 0.840152 0.652022 -0.119162
C204  C     C_R   0.204378 0.881825 0.638933 -0.127431
C205  C     C_R   0.097216 0.208789 0.612162 0.148185
C206  C     C_R   0.138730 0.202366 0.586343 -0.152704
C207  C     C_R   0.174621 0.185468 0.617853 -0.141815
C208  C     C_R   0.169500 0.175625 0.675652 -0.103386
C209  C     C_R   0.128545 0.182899 0.702052 -0.123696
C210  C     C_R   0.092553 0.199636 0.670567 -0.136633
C211  C     C_R   0.201811 0.103194 0.409457 0.141832
C212  C     C_R   0.296372 0.031173 0.465964 0.057541
C213  C     C_R   0.182686 0.136606 0.444064 -0.173818
C214  C     C_R   0.159479 0.172543 0.419224 -0.141469
C215  C     C_R   0.155756 0.175643 0.359976 -0.111412
C216  C     C_R   0.175217 0.142843 0.325303 -0.126951
C217  C     C_R   0.198095 0.106696 0.349858 -0.133463
C218  C     C_R   0.024136 0.794434 0.339310 0.135746
C219  C     C_R   0.066501 0.793199 0.314631 -0.100729
C220  C     C_R   0.073535 0.813630 0.262029 -0.133747
C221  C     C_R   0.038388 0.835103 0.233618 -0.123730
C222  C     C_R   0.996055 0.835769 0.257470 -0.164325
C223  C     C_R   0.413588 0.000665 0.500286 0.844263
C224  C     C_R   0.999397 0.701426 0.441812 0.051148
C225  C     C_R   0.988848 0.815190 0.309932 -0.200613
C226  C     C_R   0.798178 0.896826 0.409374 0.141849
C227  C     C_R   0.817316 0.863405 0.443949 -0.173797
C228  C     C_R   0.840514 0.827474 0.419071 -0.141463
C229  C     C_R   0.844215 0.824389 0.359818 -0.111409
C230  C     C_R   0.824742 0.857200 0.325177 -0.126921
C231  C     C_R   0.801873 0.893340 0.349770 -0.133465
C232  C     C_R   0.975888 0.205538 0.339321 0.135726
C233  C     C_R   0.933523 0.206770 0.314636 -0.100725
C234  C     C_R   0.926488 0.186333 0.262031 -0.133738
C235  C     C_R   0.703625 0.968829 0.465946 0.057521
C236  C     C_R   0.961635 0.164859 0.233621 -0.123745
C237  C     C_R   0.003970 0.164198 0.257478 -0.164319
C238  C     C_R   0.011176 0.184782 0.309944 -0.200624
C239  C     C_R   0.287436 0.606532 0.081973 0.144274
C240  C     C_R   0.294873 0.637513 0.038633 -0.150384
C241  C     C_R   0.311403 0.679138 0.051853 -0.152991
C242  C     C_R   0.320131 0.690252 0.108513 -0.106885
C243  C     C_R   0.312075 0.659865 0.152053 -0.119172
C244  C     C_R   0.295619 0.618191 0.138949 -0.127395
C245  C     C_R   0.402811 0.291230 0.112200 0.148179
C246  C     C_R   0.000625 0.298560 0.441832 0.051176
C247  C     C_R   0.361276 0.297641 0.086424 -0.152669
C248  C     C_R   0.325405 0.314543 0.117972 -0.141758
C249  C     C_R   0.330567 0.324400 0.175768 -0.103364
C250  C     C_R   0.371544 0.317135 0.202125 -0.123708
C251  C     C_R   0.407515 0.300394 0.170602 -0.136704
C252  C     C_R   0.712565 0.393468 0.081973 0.144270
C253  C     C_R   0.705110 0.362482 0.038636 -0.150359
C254  C     C_R   0.688575 0.320863 0.051860 -0.152972
C255  C     C_R   0.679863 0.309760 0.108522 -0.106862
C256  C     C_R   0.687938 0.340152 0.152059 -0.119191
C257  C     C_R   0.201405 0.524351 0.042408 0.063409
C258  C     C_R   0.704398 0.381820 0.138951 -0.127490
C259  C     C_R   0.597169 0.708776 0.112266 0.148212
C260  C     C_R   0.638724 0.702337 0.086556 -0.152625
C261  C     C_R   0.674561 0.685437 0.118168 -0.141692
C262  C     C_R   0.669345 0.675613 0.175958 -0.103336
C263  C     C_R   0.628350 0.682907 0.202248 -0.123763
C264  C     C_R   0.592413 0.699644 0.170663 -0.136838
C265  C     C_R   0.701805 0.603236 0.909560 0.141839
C266  C     C_R   0.682668 0.636618 0.944203 -0.173865
C267  C     C_R   0.659451 0.672565 0.919403 -0.141495
C268  C     C_R   0.474824 0.203337 0.041617 0.063261
C269  C     C_R   0.655732 0.675708 0.860157 -0.111387
C270  C     C_R   0.675207 0.642939 0.825448 -0.126991
C271  C     C_R   0.698094 0.606781 0.849964 -0.133483
C272  C     C_R   0.524101 0.294429 0.839313 0.135720
C273  C     C_R   0.566467 0.293191 0.814633 -0.100758
C274  C     C_R   0.573502 0.313618 0.762029 -0.133748
C275  C     C_R   0.538354 0.335089 0.733615 -0.123732
C276  C     C_R   0.496020 0.335756 0.757467 -0.164321
C277  C     C_R   0.488813 0.315181 0.809933 -0.200608
C278  C     C_R   0.298187 0.396782 0.909475 0.141845
C279  C     C_R   0.798597 0.475640 0.042415 0.063416
C280  C     C_R   0.317311 0.363392 0.944110 -0.173830
C281  C     C_R   0.340525 0.327443 0.919300 -0.141477
C282  C     C_R   0.344253 0.324307 0.860055 -0.111406
C283  C     C_R   0.324791 0.357085 0.825353 -0.126947
C284  C     C_R   0.301908 0.393246 0.849878 -0.133426
C285  C     C_R   0.475874 0.705543 0.839329 0.135677
C286  C     C_R   0.433507 0.706772 0.814649 -0.100782
C287  C     C_R   0.426471 0.686336 0.762043 -0.133761
C288  C     C_R   0.461618 0.664867 0.733628 -0.123752
C289  C     C_R   0.503954 0.664208 0.757480 -0.164325
C290  C     C_R   0.525206 0.796673 0.041615 0.063238
C291  C     C_R   0.511162 0.684791 0.809947 -0.200598
C292  C     C_R   0.695316 0.098079 0.593007 0.142881
C293  C     C_R   0.671726 0.125818 0.554861 -0.172452
C294  C     C_R   0.647654 0.162902 0.575024 -0.134017
C295  C     C_R   0.647177 0.172698 0.633265 -0.126536
C296  C     C_R   0.670506 0.145230 0.671477 -0.161164
C297  C     C_R   0.694240 0.107880 0.651572 -0.061987
C298  C     C_R   0.919424 0.698340 0.620788 0.132739
C299  C     C_R   0.886104 0.672545 0.597153 -0.174925
C300  C     C_R   0.859859 0.646682 0.632288 -0.129642
C301  C     C_R   0.796368 0.531182 0.965995 0.057588
C302  C     C_R   0.866658 0.646357 0.691205 -0.113965
C303  C     C_R   0.899637 0.672019 0.715117 -0.147200
C304  C     C_R   0.925969 0.697929 0.680111 -0.064979
C305  C     C_R   0.304696 0.901917 0.592975 0.142901
C306  C     C_R   0.328286 0.874182 0.554815 -0.172445
C307  C     C_R   0.352361 0.837094 0.574962 -0.133971
C308  C     C_R   0.352840 0.827289 0.633200 -0.126501
C309  C     C_R   0.329510 0.854752 0.671425 -0.161240
C310  C     C_R   0.305774 0.892106 0.651537 -0.061971
C311  C     C_R   0.080346 0.301689 0.621043 0.132682
C312  C     C_R   0.499368 0.201428 0.941825 0.051234
C313  C     C_R   0.113689 0.327534 0.597568 -0.174890
C314  C     C_R   0.139769 0.353477 0.632829 -0.129713
C315  C     C_R   0.132782 0.353831 0.691708 -0.114255
C316  C     C_R   0.099795 0.328100 0.715461 -0.147141
C317  C     C_R   0.073629 0.302109 0.680333 -0.065164
C318  C     C_R   0.295549 0.106787 0.420861 0.133860
C319  C     C_R   0.312535 0.133924 0.463871 -0.176854
C320  C     C_R   0.333283 0.173312 0.449816 -0.133779
C321  C     C_R   0.337142 0.185990 0.392778 -0.114529
C322  C     C_R   0.320471 0.159170 0.349712 -0.157742
C323  C     C_R   0.203626 0.468827 0.965947 0.057543
C324  C     C_R   0.299987 0.119587 0.363545 -0.068377
C325  C     C_R   0.032686 0.700217 0.342392 0.134432
C326  C     C_R   0.073303 0.676701 0.346855 -0.215005
C327  C     C_R   0.090216 0.652872 0.300173 -0.143679
C328  C     C_R   0.066993 0.652756 0.248665 -0.116227
C329  C     C_R   0.027059 0.676846 0.243522 -0.131357
C330  C     C_R   0.009900 0.700549 0.290134 -0.030761
C331  C     C_R   0.704452 0.893214 0.420822 0.133829
C332  C     C_R   0.687498 0.866066 0.463832 -0.176871
C333  C     C_R   0.666762 0.826670 0.449774 -0.133781
C334  C     C_R   0.000657 0.413625 0.500675 0.832229
C335  C     C_R   0.500619 0.798560 0.941838 0.051218
C336  C     C_R   0.662884 0.813993 0.392734 -0.114522
C337  C     C_R   0.679523 0.840822 0.349669 -0.157767
C338  C     C_R   0.699994 0.880415 0.363504 -0.068407
C339  C     C_R   0.967349 0.299754 0.342401 0.134402
C340  C     C_R   0.926729 0.323265 0.346863 -0.214946
C341  C     C_R   0.909807 0.347079 0.300179 -0.143683
C342  C     C_R   0.933028 0.347193 0.248673 -0.116261
C343  C     C_R   0.972967 0.323108 0.243529 -0.131404
C344  C     C_R   0.990132 0.299415 0.290140 -0.030785
C345  C     C_R   0.195310 0.598100 0.092964 0.142793
C346  C     C_R   0.725876 0.997046 0.503915 -0.019606
C347  C     C_R   0.171741 0.625846 0.054807 -0.172417
C348  C     C_R   0.147670 0.662938 0.074956 -0.133996
C349  C     C_R   0.147174 0.672735 0.133194 -0.126533
C350  C     C_R   0.170486 0.645263 0.171414 -0.161154
C351  C     C_R   0.194218 0.607905 0.151525 -0.062072
C352  C     C_R   0.419663 0.198327 0.121038 0.132673
C353  C     C_R   0.386321 0.172477 0.097556 -0.174913
C354  C     C_R   0.360242 0.146536 0.132811 -0.129693
C355  C     C_R   0.367229 0.146192 0.191694 -0.114243
C356  C     C_R   0.400213 0.171928 0.215455 -0.147140
C357  C     C_R   0.985761 0.725833 0.490922 -0.008700
C358  C     C_R   0.426380 0.197915 0.180332 -0.065107
C359  C     C_R   0.804700 0.401865 0.092873 0.142795
C360  C     C_R   0.828260 0.374159 0.054655 -0.172443
C361  C     C_R   0.852352 0.337060 0.074727 -0.133988
C362  C     C_R   0.852880 0.327215 0.132949 -0.126478
C363  C     C_R   0.829576 0.354645 0.171232 -0.161187
C364  C     C_R   0.805821 0.392011 0.151418 -0.062038
C365  C     C_R   0.580415 0.801698 0.120987 0.132602
C366  C     C_R   0.613765 0.827507 0.097460 -0.174911
C367  C     C_R   0.639887 0.853446 0.132676 -0.129676
C368  C     C_R   0.274124 0.002957 0.503927 -0.019620
C369  C     C_R   0.632935 0.853831 0.191565 -0.114219
C370  C     C_R   0.599939 0.828140 0.215371 -0.147174
C371  C     C_R   0.573731 0.802153 0.180287 -0.065073
C372  C     C_R   0.795541 0.606819 0.920979 0.133808
C373  C     C_R   0.812522 0.633921 0.964021 -0.176826
C374  C     C_R   0.833309 0.673293 0.950010 -0.133772
C375  C     C_R   0.837206 0.685990 0.892985 -0.114559
C376  C     C_R   0.820522 0.659212 0.849890 -0.157649
C377  C     C_R   0.800001 0.619646 0.863679 -0.068240
C378  C     C_R   0.532665 0.200203 0.842404 0.134362
C379  C     C_R   0.014221 0.274167 0.490962 -0.008626
C380  C     C_R   0.573278 0.176673 0.846907 -0.214922
C381  C     C_R   0.590217 0.152839 0.800234 -0.143597
C382  C     C_R   0.567020 0.152722 0.748699 -0.116270
C383  C     C_R   0.527088 0.176825 0.743514 -0.131460
C384  C     C_R   0.509906 0.200539 0.790114 -0.030785
C385  C     C_R   0.204448 0.393208 0.920832 0.133889
C386  C     C_R   0.187464 0.366073 0.963834 -0.176846
C387  C     C_R   0.166718 0.326683 0.949768 -0.133776
C388  C     C_R   0.162862 0.314000 0.892728 -0.114528
C389  C     C_R   0.179533 0.340817 0.849670 -0.157765
C390  C     C_R   0.225877 0.497049 0.003912 -0.019603
C391  C     C_R   0.200012 0.380404 0.863514 -0.068389
C392  C     C_R   0.467264 0.799768 0.842448 0.134330
C393  C     C_R   0.426659 0.823304 0.847007 -0.214904
C394  C     C_R   0.409695 0.847154 0.800369 -0.143690
C395  C     C_R   0.432857 0.847277 0.748811 -0.116322
C396  C     C_R   0.472774 0.823162 0.743566 -0.131446
C397  C     C_R   0.489984 0.799435 0.790133 -0.030807
C398  C     C_2   0.631435 0.027723 0.601654 0.399514
C399  C     C_2   0.995960 0.637409 0.603960 0.426306
C400  C     C_2   0.368575 0.972283 0.601655 0.399521
C401  C     C_R   0.485775 0.225831 0.990955 -0.008656
C402  C     C_2   0.003877 0.362618 0.603954 0.426507
C403  C     C_2   0.364700 0.036558 0.404812 0.393026
C404  C     C_2   0.991205 0.626636 0.392616 0.443534
C405  C     C_2   0.635285 0.963426 0.404807 0.392996
C406  C     C_2   0.008888 0.373324 0.392632 0.443638
C407  C     C_2   0.131435 0.527743 0.101640 0.399502
C408  C     C_2   0.496148 0.137406 0.103953 0.426496
C409  C     C_2   0.868573 0.472234 0.101641 0.399491
C410  C     C_2   0.503921 0.862621 0.103960 0.426422
C411  C     C_2   0.864688 0.536578 0.904830 0.393138
C412  C     C_R   0.774121 0.502953 0.003943 -0.019665
C413  C     C_2   0.491077 0.126661 0.892620 0.443690
C414  C     C_2   0.135288 0.463426 0.904804 0.393017
C415  C     C_2   0.508875 0.873321 0.892624 0.443675
C416  C     C_R   0.514232 0.774167 0.990963 -0.008675
C417  C     C_R   0.655736 0.017736 0.547657 -0.060831
C418  C     C_R   0.086412 0.499335 0.000281 0.844278
C419  C     C_R   0.988374 0.658483 0.547243 -0.072245
C420  C     C_R   0.344269 0.982265 0.547658 -0.060833
C421  C     C_R   0.011551 0.341531 0.547265 -0.072265
C422  C     C_R   0.342284 0.024811 0.459128 -0.053984
C423  C     C_R   0.997346 0.654608 0.444086 -0.073740
C424  C     C_R   0.657711 0.975185 0.459119 -0.053975
C425  C     C_R   0.002694 0.345376 0.444098 -0.073797
C426  C     C_R   0.155735 0.517748 0.047644 -0.060774
C427  C     C_R   0.488460 0.158479 0.047262 -0.072267
C428  C     C_R   0.844268 0.482241 0.047651 -0.060762
C429  C     C_R   0.499343 0.086375 0.000672 0.832218
C430  C     C_R   0.511576 0.841533 0.047265 -0.072203
C431  C     C_R   0.842279 0.524821 0.959148 -0.054031
C432  C     C_R   0.497294 0.154614 0.944090 -0.073850
C433  C     C_R   0.157712 0.475185 0.959116 -0.054015
C434  C     C_R   0.502690 0.845376 0.944098 -0.073854
C435  C     C_R   0.633960 0.997512 0.502255 -0.226125
C436  C     C_R   0.997027 0.634070 0.497622 -0.208552
C437  C     C_R   0.366040 0.002487 0.502258 -0.226168
C438  C     C_R   0.002970 0.365931 0.497627 -0.208534
C439  C     C_R   0.133960 0.497515 0.002248 -0.226135
C440  C     C_R   0.913587 0.500664 0.000290 0.844231
C441  C     C_R   0.497030 0.134069 0.997622 -0.208564
C442  C     C_R   0.866038 0.502483 0.002265 -0.226218
C443  C     C_R   0.502973 0.865931 0.997628 -0.208562
C444  C     C_R   0.999654 0.912596 0.499682 0.889142
C445  C     C_R   0.087199 0.999782 0.499828 0.892724
C446  C     C_R   0.000347 0.087404 0.499689 0.889156
C447  C     C_R   0.912801 0.000219 0.499825 0.892721
C448  C     C_R   0.499649 0.412596 0.999683 0.889146
C449  C     C_R   0.587199 0.499778 0.999829 0.892746
C450  C     C_R   0.500348 0.587404 0.999689 0.889164
C451  C     C_R   0.500657 0.913625 0.000675 0.832225
C452  C     C_R   0.412801 0.500219 0.999825 0.892737
C453  C     C_R   0.500000 0.000002 0.609297 0.883955
C454  C     C_R   0.000001 0.500000 0.609204 0.870097
C455  C     C_R   0.500000 0.999998 0.390705 0.891732
C456  C     C_R   0.999999 0.500000 0.390795 0.875265
C457  C     C_R   1.000000 0.500002 0.109297 0.883984
C458  C     C_R   0.500001 1.000000 0.109204 0.870117
C459  C     C_R   0.000001 0.499998 0.890705 0.891702
C460  C     C_R   0.499999 0.999999 0.890795 0.875167
C461  C     C_1   0.499998 0.000007 0.669542 -0.172550
C462  C     C_R   0.722224 0.059527 0.570742 -0.028411
C463  C     C_1   0.000004 0.499996 0.669446 -0.169548
C464  C     C_1   0.500002 0.999993 0.330460 -0.167813
C465  C     C_1   0.999997 0.500003 0.330549 -0.157180
C466  C     C_1   0.999998 0.500007 0.169542 -0.172547
C467  C     C_1   0.500003 0.999997 0.169446 -0.169566
C468  C     C_1   0.000003 0.499993 0.830460 -0.167815
C469  C     C_1   0.499997 0.000002 0.830550 -0.157260
C470  C     C_1   0.499997 0.000008 0.720393 0.034120
C471  C     C_1   0.000005 0.499993 0.720296 0.031883
C472  C     C_1   0.500003 0.999992 0.279608 0.032206
H1    H     H_    0.904007 0.908477 0.440611 0.097565
H2    H     H_    0.018831 0.899273 0.361374 0.132202
H3    H     H_    0.060910 0.204781 0.691383 0.109666
H4    H     H_    0.185496 0.134576 0.490025 0.122884
H5    H     H_    0.144173 0.198010 0.445648 0.127178
H6    H     H_    0.137650 0.203396 0.340952 0.125494
H7    H     H_    0.172131 0.145137 0.279424 0.124189
H8    H     H_    0.212203 0.080983 0.322582 0.124754
H9    H     H_    0.093930 0.776630 0.336299 0.129567
H10   H     H_    0.106244 0.812912 0.243377 0.123816
H11   H     H_    0.043907 0.851007 0.192968 0.119031
H12   H     H_    0.968768 0.851990 0.235162 0.126141
H13   H     H_    0.095992 0.091530 0.440647 0.097576
H14   H     H_    0.955759 0.814860 0.327431 0.129131
H15   H     H_    0.814522 0.865423 0.489913 0.122879
H16   H     H_    0.855832 0.801999 0.445468 0.127158
H17   H     H_    0.862313 0.796640 0.340766 0.125450
H18   H     H_    0.827811 0.854917 0.279294 0.124169
H19   H     H_    0.787754 0.919061 0.322517 0.124745
H20   H     H_    0.906093 0.223341 0.336303 0.129579
H21   H     H_    0.893779 0.187048 0.243374 0.123824
H22   H     H_    0.956117 0.148951 0.192968 0.119030
H23   H     H_    0.031257 0.147976 0.235170 0.126143
H24   H     H_    0.057745 0.109934 0.351127 0.118509
H25   H     H_    0.044266 0.185118 0.327445 0.129137
H26   H     H_    0.287488 0.629325 0.994805 0.121302
H27   H     H_    0.317291 0.702842 0.018226 0.123434
H28   H     H_    0.332995 0.722453 0.118693 0.129066
H29   H     H_    0.318766 0.668511 0.195934 0.123125
H30   H     H_    0.289844 0.594809 0.172987 0.114544
H31   H     H_    0.356709 0.289293 0.042092 0.115087
H32   H     H_    0.293579 0.319818 0.097658 0.127217
H33   H     H_    0.302788 0.337502 0.200170 0.124256
H34   H     H_    0.375497 0.324642 0.246926 0.119110
H35   H     H_    0.074107 0.066893 0.263194 0.117040
H36   H     H_    0.439175 0.295255 0.191386 0.109673
H37   H     H_    0.712486 0.370662 0.994808 0.121297
H38   H     H_    0.682672 0.297156 0.018235 0.123434
H39   H     H_    0.666995 0.277564 0.118706 0.129077
H40   H     H_    0.681260 0.331513 0.195942 0.123134
H41   H     H_    0.710189 0.405206 0.172986 0.114571
H42   H     H_    0.643331 0.710659 0.042228 0.115066
H43   H     H_    0.706402 0.680139 0.097907 0.127203
H44   H     H_    0.697099 0.662514 0.200409 0.124231
H45   H     H_    0.624356 0.675427 0.247047 0.119106
H46   H     H_    0.129742 0.004798 0.265462 0.126291
H47   H     H_    0.560738 0.704809 0.191395 0.109716
H48   H     H_    0.685477 0.634557 0.990162 0.122877
H49   H     H_    0.644132 0.698007 0.945854 0.127194
H50   H     H_    0.637619 0.703469 0.841163 0.125536
H51   H     H_    0.672125 0.645267 0.779571 0.124197
H52   H     H_    0.712210 0.581091 0.822660 0.124761
H53   H     H_    0.593896 0.276623 0.836303 0.129582
H54   H     H_    0.606210 0.312898 0.743376 0.123821
H55   H     H_    0.543873 0.350990 0.692963 0.119034
H56   H     H_    0.468733 0.351975 0.735157 0.126141
H57   H     H_    0.168716 0.985753 0.355124 0.126132
H58   H     H_    0.455724 0.314850 0.827429 0.129141
H59   H     H_    0.314497 0.365448 0.990070 0.122885
H60   H     H_    0.355833 0.301993 0.945745 0.127184
H61   H     H_    0.362364 0.296544 0.841055 0.125517
H62   H     H_    0.327881 0.354764 0.779476 0.124188
H63   H     H_    0.287803 0.418943 0.822580 0.124722
H64   H     H_    0.406078 0.723338 0.836320 0.129608
H65   H     H_    0.393761 0.687049 0.743390 0.123830
H66   H     H_    0.456098 0.648960 0.692974 0.119036
H67   H     H_    0.531241 0.647990 0.735169 0.126145
H68   H     H_    0.900709 0.182893 0.473486 0.137789
H69   H     H_    0.544253 0.685128 0.827445 0.129156
H70   H     H_    0.672294 0.118838 0.509559 0.134508
H71   H     H_    0.629565 0.184184 0.545458 0.129570
H72   H     H_    0.628653 0.201500 0.648820 0.130555
H73   H     H_    0.670121 0.152824 0.716560 0.126950
H74   H     H_    0.711654 0.086527 0.681705 0.135266
H75   H     H_    0.880601 0.672444 0.551520 0.138448
H76   H     H_    0.834323 0.626787 0.613815 0.133128
H77   H     H_    0.846469 0.626078 0.718258 0.133676
H78   H     H_    0.905011 0.671597 0.760743 0.134510
H79   H     H_    0.833991 0.157423 0.424181 0.127131
H80   H     H_    0.952005 0.716897 0.699044 0.139649
H81   H     H_    0.327715 0.881168 0.509515 0.134497
H82   H     H_    0.370449 0.815814 0.545385 0.129550
H83   H     H_    0.371367 0.798483 0.648742 0.130538
H84   H     H_    0.329896 0.847151 0.716505 0.126988
H85   H     H_    0.288360 0.913456 0.681682 0.135262
H86   H     H_    0.119323 0.327630 0.551963 0.138427
H87   H     H_    0.165314 0.373424 0.614480 0.133187
H88   H     H_    0.152827 0.374189 0.718856 0.133981
H89   H     H_    0.094279 0.328545 0.761053 0.134690
H90   H     H_    0.840234 0.101236 0.347438 0.121394
H91   H     H_    0.047570 0.283104 0.699137 0.139587
H92   H     H_    0.309422 0.124655 0.508284 0.133595
H93   H     H_    0.346212 0.194100 0.483172 0.128904
H94   H     H_    0.353074 0.216571 0.381940 0.122105
H95   H     H_    0.323425 0.169093 0.305604 0.127853
H96   H     H_    0.288108 0.098765 0.329603 0.143288
H97   H     H_    0.091420 0.676373 0.386673 0.135408
H98   H     H_    0.121191 0.634271 0.304047 0.136628
H99   H     H_    0.079851 0.633906 0.212756 0.150473
H100  H     H_    0.009195 0.676821 0.203559 0.130410
H101  H     H_    0.914062 0.072979 0.316361 0.122287
H102  H     H_    0.978555 0.718495 0.285940 0.132314
H103  H     H_    0.690629 0.875335 0.508246 0.133585
H104  H     H_    0.653858 0.805875 0.483130 0.128908
H105  H     H_    0.646962 0.783405 0.381894 0.122108
H106  H     H_    0.676556 0.830899 0.305560 0.127853
H107  H     H_    0.711850 0.901242 0.329564 0.143305
H108  H     H_    0.908614 0.323595 0.386682 0.135435
H109  H     H_    0.878824 0.365670 0.304049 0.136642
H110  H     H_    0.920166 0.366035 0.212765 0.150446
H111  H     H_    0.990829 0.323131 0.203565 0.130418
H112  H     H_    0.942245 0.890064 0.351086 0.118482
H113  H     H_    0.981162 0.100717 0.361377 0.132212
H114  H     H_    0.021480 0.281471 0.285944 0.132362
H115  H     H_    0.172327 0.618868 0.009507 0.134499
H116  H     H_    0.129599 0.684227 0.045382 0.129569
H117  H     H_    0.128652 0.701544 0.148739 0.130540
H118  H     H_    0.170097 0.652863 0.216492 0.126957
H119  H     H_    0.211620 0.586550 0.181667 0.135317
H120  H     H_    0.380687 0.172374 0.051947 0.138427
H121  H     H_    0.334699 0.126584 0.114456 0.133183
H122  H     H_    0.347184 0.125836 0.218838 0.133957
H123  H     H_    0.405728 0.171492 0.261050 0.134664
H124  H     H_    0.108184 0.900967 0.524210 0.121402
H125  H     H_    0.452439 0.216923 0.199143 0.139593
H126  H     H_    0.827654 0.381179 0.009366 0.134504
H127  H     H_    0.870417 0.315805 0.045104 0.129565
H128  H     H_    0.871422 0.298401 0.148433 0.130499
H129  H     H_    0.829996 0.347009 0.216298 0.126978
H130  H     H_    0.788431 0.413336 0.181608 0.135324
H131  H     H_    0.619375 0.827576 0.051846 0.138416
H132  H     H_    0.665439 0.873363 0.114286 0.133159
H133  H     H_    0.653015 0.874184 0.218679 0.133900
H134  H     H_    0.594448 0.828610 0.260970 0.134679
H135  H     H_    0.066859 0.860275 0.597036 0.117796
H136  H     H_    0.547666 0.783178 0.199134 0.139674
H137  H     H_    0.809385 0.624631 0.008423 0.133604
H138  H     H_    0.846244 0.694047 0.983390 0.128933
H139  H     H_    0.853177 0.716553 0.882178 0.122100
H140  H     H_    0.823496 0.669149 0.805793 0.127658
H141  H     H_    0.788119 0.598854 0.829715 0.143309
H142  H     H_    0.591375 0.176345 0.886749 0.135432
H143  H     H_    0.621195 0.134236 0.804134 0.136608
H144  H     H_    0.579894 0.133864 0.712798 0.150495
H145  H     H_    0.509245 0.176800 0.703527 0.130418
H146  H     H_    0.067479 0.885374 0.697992 0.110143
H147  H     H_    0.478563 0.218494 0.785886 0.132388
H148  H     H_    0.190576 0.375347 0.008249 0.133598
H149  H     H_    0.153790 0.305898 0.983118 0.128904
H150  H     H_    0.146933 0.283417 0.881881 0.122102
H151  H     H_    0.176583 0.330890 0.805561 0.127868
H152  H     H_    0.211890 0.401224 0.829578 0.143256
H153  H     H_    0.408593 0.823633 0.886869 0.135444
H154  H     H_    0.378728 0.865767 0.804315 0.136627
H155  H     H_    0.419966 0.866151 0.712940 0.150543
H156  H     H_    0.490588 0.823189 0.703560 0.130425
H157  H     H_    0.111050 0.950396 0.725758 0.119949
H158  H     H_    0.521320 0.781475 0.785860 0.132409
H159  H     H_    0.596968 0.038478 0.601204 0.082373
H160  H     H_    0.989660 0.602516 0.610581 0.055650
H161  H     H_    0.403048 0.961542 0.601206 0.082378
H162  H     H_    0.010230 0.397496 0.610611 0.055582
H163  H     H_    0.398216 0.048224 0.404613 0.089990
H164  H     H_    0.011573 0.596837 0.386153 0.053748
H165  H     H_    0.601780 0.951734 0.404619 0.090012
H166  H     H_    0.988557 0.403143 0.386154 0.053647
H167  H     H_    0.096973 0.538510 0.101191 0.082428
H168  H     H_    0.154524 0.989860 0.653444 0.111202
H169  H     H_    0.489811 0.102525 0.110610 0.055580
H170  H     H_    0.903040 0.461485 0.101187 0.082436
H171  H     H_    0.510271 0.897500 0.110611 0.055616
H172  H     H_    0.898211 0.548204 0.904619 0.090052
H173  H     H_    0.511376 0.096820 0.886148 0.053625
H174  H     H_    0.101776 0.451753 0.904612 0.089991
H175  H     H_    0.488562 0.903156 0.886169 0.053669
H176  H     H_    0.887837 0.888422 0.531994 0.099580
H177  H     H_    0.853542 0.936549 0.605530 0.120745
H178  H     H_    0.891360 0.947281 0.698292 0.107987
H179  H     H_    0.963478 0.909111 0.717258 0.111959
H180  H     H_    0.925877 0.933101 0.263162 0.117031
H181  H     H_    0.997439 0.859567 0.644553 0.103360
H182  H     H_    0.891815 0.099039 0.524220 0.121403
H183  H     H_    0.933139 0.139741 0.597054 0.117801
H184  H     H_    0.932528 0.114649 0.698006 0.110124
H185  H     H_    0.888967 0.049625 0.725759 0.119940
H186  H     H_    0.845489 0.010153 0.653437 0.111184
H187  H     H_    0.112153 0.111614 0.532034 0.099607
H188  H     H_    0.146462 0.063487 0.605553 0.120748
H189  H     H_    0.108649 0.052740 0.698305 0.107985
H190  H     H_    0.036521 0.090889 0.717277 0.111936
H191  H     H_    0.870247 0.995201 0.265442 0.126284
H192  H     H_    0.002546 0.140428 0.644588 0.103318
H193  H     H_    0.404012 0.408465 0.940659 0.097583
H194  H     H_    0.442249 0.390029 0.851143 0.118512
H195  H     H_    0.425876 0.433039 0.763196 0.117041
H196  H     H_    0.370240 0.495135 0.765447 0.126293
H197  H     H_    0.331272 0.514209 0.855105 0.126134
H198  H     H_    0.599276 0.317090 0.973463 0.137784
H199  H     H_    0.665990 0.342549 0.924160 0.127124
H200  H     H_    0.659747 0.398740 0.847440 0.121406
H201  H     H_    0.585918 0.427003 0.816370 0.122280
H202  H     H_    0.831280 0.014254 0.355108 0.126119
H203  H     H_    0.518819 0.399267 0.861373 0.132202
H204  H     H_    0.595975 0.591525 0.940682 0.097602
H205  H     H_    0.557747 0.609951 0.851156 0.118516
H206  H     H_    0.574145 0.566947 0.763201 0.117046
H207  H     H_    0.629795 0.504863 0.765456 0.126307
H208  H     H_    0.668749 0.485795 0.855126 0.126150
H209  H     H_    0.400713 0.682895 0.973485 0.137789
H210  H     H_    0.333996 0.657428 0.924173 0.127129
H211  H     H_    0.340238 0.601236 0.847437 0.121397
H212  H     H_    0.414066 0.572976 0.816365 0.122275
H213  H     H_    0.099293 0.817101 0.473466 0.137785
H214  H     H_    0.481167 0.600718 0.861378 0.132203
H215  H     H_    0.608174 0.400963 0.024203 0.121396
H216  H     H_    0.566867 0.360255 0.097029 0.117806
H217  H     H_    0.567501 0.385337 0.197992 0.110127
H218  H     H_    0.611068 0.450359 0.225763 0.119945
H219  H     H_    0.654529 0.489838 0.153448 0.111200
H220  H     H_    0.387831 0.388375 0.032023 0.099632
H221  H     H_    0.353525 0.436521 0.105534 0.120749
H222  H     H_    0.391352 0.447308 0.198277 0.107969
H223  H     H_    0.463491 0.409182 0.217249 0.111913
H224  H     H_    0.166005 0.842562 0.424161 0.127124
H225  H     H_    0.497462 0.359622 0.144569 0.103303
H226  H     H_    0.391815 0.599041 0.024214 0.121410
H227  H     H_    0.433127 0.639753 0.097052 0.117803
H228  H     H_    0.432507 0.614669 0.198007 0.110126
H229  H     H_    0.388951 0.549642 0.225760 0.119942
H230  H     H_    0.345484 0.510161 0.153434 0.111195
H231  H     H_    0.612167 0.611634 0.032043 0.099636
H232  H     H_    0.646472 0.563484 0.105543 0.120750
H233  H     H_    0.608644 0.552695 0.198277 0.107961
H234  H     H_    0.536505 0.590820 0.217247 0.111891
H235  H     H_    0.159759 0.898748 0.347434 0.121394
H236  H     H_    0.502534 0.640381 0.144578 0.103281
H237  H     H_    0.787477 0.129326 0.494835 0.121309
H238  H     H_    0.817286 0.202835 0.518267 0.123446
H239  H     H_    0.833002 0.222430 0.618734 0.129079
H240  H     H_    0.818780 0.168480 0.695962 0.123130
H241  H     H_    0.789855 0.094784 0.673004 0.114540
H242  H     H_    0.856670 0.789336 0.541809 0.115110
H243  H     H_    0.793481 0.819892 0.597237 0.127227
H244  H     H_    0.802567 0.837580 0.699761 0.124289
H245  H     H_    0.875210 0.824691 0.746673 0.119148
H246  H     H_    0.085928 0.927007 0.316365 0.122280
H247  H     H_    0.938945 0.795271 0.691273 0.109759
H248  H     H_    0.212530 0.870683 0.494792 0.121308
H249  H     H_    0.182721 0.797168 0.518184 0.123421
H250  H     H_    0.167003 0.777562 0.618640 0.129041
H251  H     H_    0.181222 0.831508 0.695898 0.123132
H252  H     H_    0.210146 0.905209 0.672979 0.114554
H253  H     H_    0.143263 0.210700 0.542006 0.115102
H254  H     H_    0.206431 0.180185 0.597507 0.127224
H255  H     H_    0.197296 0.162526 0.700025 0.124276
H256  H     H_    0.124624 0.175403 0.746856 0.119121
O1    O     O_R   0.566060 0.037360 0.500050 -0.624057
O2    O     O_R   0.462640 0.066060 0.000050 -0.611277
O3    O     O_R   0.933940 0.462640 0.000050 -0.624073
O4    O     O_R   0.537360 0.933940 0.000050 -0.611281
O5    O     O_R   0.933940 0.537360 0.999950 -0.627946
O6    O     O_R   0.537360 0.066060 0.999950 -0.619885
O7    O     O_R   0.066060 0.462640 0.999950 -0.627970
O8    O     O_R   0.462640 0.933940 0.999950 -0.619893
O9    O     O_R   0.499980 0.037350 0.582800 -0.619233
O10   O     O_R   0.962650 0.499980 0.582800 -0.613406
O11   O     O_R   0.500020 0.962650 0.582800 -0.619209
O12   O     O_R   0.962640 0.566060 0.500050 -0.611231
O13   O     O_R   0.037350 0.500020 0.582800 -0.613437
O14   O     O_R   0.500020 0.037350 0.417200 -0.616281
O15   O     O_R   0.037350 0.499980 0.417200 -0.610128
O16   O     O_R   0.499980 0.962650 0.417200 -0.616291
O17   O     O_R   0.962650 0.500020 0.417200 -0.610071
O18   O     O_R   0.999980 0.537350 0.082800 -0.619234
O19   O     O_R   0.462650 0.999980 0.082800 -0.613408
O20   O     O_R   0.000020 0.462650 0.082800 -0.619221
O21   O     O_R   0.537350 0.000020 0.082800 -0.613418
O22   O     O_R   0.000020 0.537350 0.917200 -0.616245
O23   O     O_R   0.433940 0.962640 0.500050 -0.624058
O24   O     O_R   0.537350 0.999980 0.917200 -0.610100
O25   O     O_R   0.999980 0.462650 0.917200 -0.616305
O26   O     O_R   0.462650 0.000020 0.917200 -0.610109
O27   O     O_R   0.999980 0.933940 0.546750 -0.603736
O28   O     O_R   0.066060 0.999980 0.546750 -0.602773
O29   O     O_R   0.000020 0.066060 0.546750 -0.603741
O30   O     O_R   0.933940 0.000020 0.546750 -0.602772
O31   O     O_R   0.000020 0.933940 0.453250 -0.638562
O32   O     O_R   0.933940 0.999980 0.453250 -0.614388
O33   O     O_R   0.999980 0.066060 0.453250 -0.638561
O34   O     O_R   0.037360 0.433940 0.500050 -0.611254
O35   O     O_R   0.066060 0.000020 0.453250 -0.614387
O36   O     O_R   0.499980 0.433940 0.046750 -0.603752
O37   O     O_R   0.566060 0.499980 0.046750 -0.602777
O38   O     O_R   0.500020 0.566060 0.046750 -0.603751
O39   O     O_R   0.433940 0.500020 0.046750 -0.602774
O40   O     O_R   0.500020 0.433940 0.953250 -0.638555
O41   O     O_R   0.433940 0.499980 0.953250 -0.614386
O42   O     O_R   0.499980 0.566060 0.953250 -0.638565
O43   O     O_R   0.566060 0.500020 0.953250 -0.614394
O44   O     O_2   0.649470 0.021743 0.647688 -0.581933
O45   O     O_R   0.433940 0.037360 0.499950 -0.627976
O46   O     O_2   0.011510 0.658594 0.643130 -0.580430
O47   O     O_2   0.350537 0.978250 0.647690 -0.581932
O48   O     O_2   0.988190 0.341465 0.643050 -0.580375
O49   O     O_2   0.346273 0.031151 0.359136 -0.587439
O50   O     O_2   0.961680 0.635655 0.358743 -0.570185
O51   O     O_2   0.653691 0.968851 0.359126 -0.587416
O52   O     O_2   0.038416 0.364261 0.358779 -0.570201
O53   O     O_2   0.149463 0.521755 0.147670 -0.581963
O54   O     O_2   0.511829 0.158573 0.143051 -0.580381
O55   O     O_2   0.850538 0.478189 0.147678 -0.581960
O56   O     O_R   0.037360 0.566060 0.499950 -0.619956
O57   O     O_2   0.488252 0.841467 0.143070 -0.580408
O58   O     O_2   0.846248 0.531219 0.859160 -0.587448
O59   O     O_2   0.461562 0.135751 0.858755 -0.570210
O60   O     O_2   0.153703 0.468830 0.859124 -0.587429
O61   O     O_2   0.538373 0.864234 0.858734 -0.570200
O62   O     O_R   0.566060 0.962640 0.499950 -0.627980
O63   O     O_R   0.962640 0.433940 0.499950 -0.619903
O64   O     O_R   0.066060 0.537360 0.000050 -0.624073
Zn1   Zn    Zn3+2 0.500000 0.049860 0.500000 0.951087
Zn2   Zn    Zn3+2 0.000000 0.000000 0.437580 0.947309
Zn3   Zn    Zn3+2 0.500000 0.500000 0.062420 0.996846
Zn4   Zn    Zn3+2 0.500000 0.500000 0.937580 0.947304
Zn5   Zn    Zn3+2 0.950140 0.500000 0.500000 0.972279
Zn6   Zn    Zn3+2 0.500000 0.950140 0.500000 0.951108
Zn7   Zn    Zn3+2 0.049860 0.500000 0.500000 0.972186
Zn8   Zn    Zn3+2 0.000000 0.549860 0.000000 0.951135
Zn9   Zn    Zn3+2 0.450140 0.000000 0.000000 0.972213
Zn10  Zn    Zn3+2 0.000000 0.450140 0.000000 0.951083
Zn11  Zn    Zn3+2 0.549860 0.000000 0.000000 0.972226
Zn12  Zn    Zn3+2 0.000000 0.000000 0.562420 0.996882

loop_
_geom_bond_atom_site_label_1
_geom_bond_atom_site_label_2
_ccdc_geom_bond_type
C172  C177  A    
C410  O57   D    
C322  C324  A    
C105  C110  A    
C179  C419  A    
C126  C127  A    
C214  H5    S    
C426  C439  A    
C8    C26   A    
C376  H140  S    
C453  C461  S    
O10   Zn5   S    
C222  H12   S    
C364  H130  S    
C445  O28   A    
O32   Zn2   S    
C337  C338  A    
C220  H10   S    
C41   C67   A    
C297  H74   S    
C248  C249  A    
O56   Zn7   S    
C282  C283  A    
C114  H176  S    
C11   C98   S    
C421  C438  A    
C94   H24   S    
C172  C173  A    
C57   C67   A    
C385  C386  A    
C306  H81   S    
C351  H119  S    
C181  H232  S    
C404  H164  S    
C406  C425  S    
C72   C101  A    
C405  O51   D    
C305  C310  A    
C215  H6    S    
C257  C426  A    
C261  H43   S    
C183  H234  S    
C46   C224  A    
C372  C373  A    
C201  C421  A    
C274  C275  A    
C196  H245  S    
C303  H78   S    
C182  C183  A    
C360  C361  A    
C36   C53   A    
C344  H114  S    
C316  H89   S    
O17   Zn5   S    
C38   C55   A    
C275  C276  A    
C32   C449  S    
C413  O59   D    
O41   Zn4   S    
C291  H69   S    
C186  H237  S    
C90   C352  S    
C326  C327  A    
C122  H184  S    
C268  C427  A    
C249  H33   S    
C57   C331  S    
C216  H7    S    
C76   C146  A    
C199  C200  A    
C374  H138  S    
C17   C30   A    
C21   C159  S    
O15   Zn7   S    
C292  C297  A    
C212  C368  A    
C234  C236  A    
C384  H147  S    
C288  H66   S    
C19   C32   A    
C228  C229  A    
C57   C235  A    
C244  H30   S    
C114  C115  A    
C38   C64   A    
C27   C444  S    
C229  H17   S    
C173  H226  S    
C79   C345  S    
C7    C470  S    
C202  C203  A    
C145  C147  A    
C252  C258  A    
C48   C74   A    
C329  H100  S    
C340  C341  A    
C271  H52   S    
C367  H132  S    
C69   C232  S    
C142  H200  S    
C161  H216  S    
O40   Zn4   S    
C206  C207  A    
C336  C337  A    
C67   C226  S    
C68   C246  A    
C314  C315  A    
C181  C182  A    
C460  C469  S    
C156  H212  S    
C34   C61   A    
C137  H196  S    
C316  C317  A    
O35   Zn2   S    
C215  C216  A    
C129  H189  S    
C229  C230  A    
C429  O2    A    
C50   C76   A    
C174  H227  S    
C175  C176  A    
C13   C63   A    
C375  C376  A    
C352  C353  A    
C458  O21   A    
C463  C471  T    
C306  C307  A    
C267  H49   S    
C335  C434  A    
C296  H73   S    
C328  H99   S    
C7    C469  T    
C391  H152  S    
C24   C311  S    
C238  H25   S    
C154  C155  A    
C20   C33   A    
O4    Zn11  S    
C296  C297  A    
C312  C432  A    
C208  H255  S    
C111  C118  A    
C198  C204  A    
C381  C382  A    
C13   C305  S    
C459  C468  S    
C298  C299  A    
C71   C245  S    
C383  C384  A    
C453  O11   A    
C457  C466  S    
O22   Zn8   S    
C444  O31   A    
C315  H88   S    
C393  C394  A    
C333  C336  A    
C411  C431  S    
O27   Zn12  S    
O24   Zn11  S    
C45   C59   A    
C146  C385  S    
C177  H230  S    
O62   Zn6   S    
C72   C252  S    
C443  C451  S    
C70   C79   A    
C235  C424  A    
C23   C43   A    
C34   C52   A    
C30   C452  S    
C319  H92   S    
C77   C285  S    
C196  C197  A    
C444  O27   A    
C293  H70   S    
C408  C427  S    
C62   C192  S    
C139  C140  A    
C73   C259  S    
O3    Zn10  S    
C295  H72   S    
C20   C51   A    
C64   C205  S    
C350  H118  S    
C99   H68   S    
C217  H8    S    
C156  C158  A    
C130  C131  A    
C16   C29   A    
C280  C281  A    
C365  C366  A    
C400  H161  S    
C167  H221  S    
C402  H162  S    
C194  H243  S    
C199  H248  S    
C75   C135  A    
C148  C149  A    
C42   C69   A    
C350  C351  A    
C5    C467  T    
C451  O4    A    
C394  C395  A    
C193  H242  S    
C327  H98   S    
C195  C196  A    
C155  H211  S    
C187  C188  A    
C88   C89   A    
C200  C202  A    
C321  C322  A    
C106  C107  A    
O39   Zn3   S    
C359  C360  A    
C388  H150  S    
C18   C31   A    
C309  H84   S    
C186  C187  A    
C363  H129  S    
O20   Zn10  S    
C446  O33   A    
C450  O38   A    
C18   C49   A    
C232  C233  A    
C380  C381  A    
C381  H143  S    
C290  C416  A    
C165  C171  A    
C455  O16   A    
C345  C351  A    
C349  C350  A    
C447  O32   A    
C352  C358  A    
C95   C96   A    
C356  H123  S    
C147  C148  A    
C118  H181  S    
C128  C129  A    
C240  H26   S    
C370  C371  A    
C313  C314  A    
C109  H157  S    
C167  C169  A    
C399  O46   D    
C398  O44   D    
C85   C86   A    
C108  C109  A    
C214  C215  A    
C259  C260  A    
O30   Zn12  S    
C249  C250  A    
C221  C222  A    
C407  C426  S    
C340  H108  S    
C308  H83   S    
C287  H65   S    
C414  C433  S    
C1    O1    A    
C353  H120  S    
C14   C36   A    
C253  C254  A    
C334  O34   A    
C354  H121  S    
O18   Zn8   S    
C39   C54   A    
C170  C171  A    
C429  O6    A    
C115  C116  A    
C406  O52   D    
C228  H16   S    
O8    Zn9   S    
C398  H159  S    
C93   H13   S    
C189  C191  A    
C374  C375  A    
C348  C349  A    
C162  H217  S    
C96   H46   S    
C124  C301  A    
C9    C85   S    
C60   C416  A    
C428  C442  A    
C388  C389  A    
C256  C258  A    
C107  C108  A    
C49   C75   A    
C359  C364  A    
C361  H127  S    
C317  H91   S    
C89   C91   A    
C233  C234  A    
C294  C295  A    
C106  H124  S    
O38   Zn3   S    
C91   H2    S    
C339  C344  A    
C464  C472  T    
C173  C174  A    
C237  C238  A    
C400  C420  S    
C253  H37   S    
C148  H205  S    
C1    C435  S    
C403  H163  S    
C131  H192  S    
C117  H179  S    
C422  C437  A    
C399  C419  S    
C220  C221  A    
C236  H22   S    
C92   C97   A    
C35   C318  S    
C21   C45   A    
O29   Zn12  S    
C24   C201  A    
C406  H166  S    
C372  C377  A    
C279  C428  A    
C102  C103  A    
C79   C257  A    
C218  C225  A    
C8    C41   A    
C323  C433  A    
O11   Zn6   S    
C335  C416  A    
C301  C412  A    
C29   C446  S    
C68   C69   A    
C195  H244  S    
O2    Zn9   S    
C222  C225  A    
C184  H236  S    
O6    Zn11  S    
C50   C56   A    
C13   C190  A    
C454  O10   A    
C201  C379  A    
C453  O9    A    
C35   C212  A    
C134  C136  A    
C293  C294  A    
C403  C422  S    
O1    Zn1   S    
C89   H246  S    
O34   Zn7   S    
C216  C217  A    
C356  C358  A    
C209  C210  A    
C168  C417  A    
C224  C357  A    
C264  H47   S    
C164  H219  S    
O45   Zn1   S    
C206  H253  S    
C455  O14   A    
C193  C194  A    
C107  H135  S    
C311  C313  A    
C108  H146  S    
C197  H247  S    
C6    C468  T    
C37   C54   A    
C3    C4    S    
C155  C156  A    
C84   H202  S    
C120  C121  A    
C284  H63   S    
C129  C130  A    
C219  C220  A    
C46   C325  S    
C15   C34   A    
C256  H40   S    
C250  H34   S    
C142  C143  A    
C380  H142  S    
C410  H171  S    
O19   Zn9   S    
O16   Zn6   S    
C328  C329  A    
C243  H29   S    
C355  H122  S    
C242  H28   S    
C322  H95   S    
C262  C263  A    
C320  C321  A    
C392  C397  A    
C110  H168  S    
C285  C291  A    
C200  H249  S    
C157  C335  A    
C318  C324  A    
C61   C462  A    
O25   Zn10  S    
C86   H213  S    
C423  C436  A    
C418  C439  S    
C101  C359  S    
C223  O23   A    
C117  C118  A    
C431  C442  A    
C176  H229  S    
C134  H194  S    
C71   C90   A    
C205  C210  A    
C100  H79   S    
C150  H207  S    
C240  C241  A    
C15   C119  S    
C454  C463  S    
C270  H51   S    
C169  H222  S    
C365  C371  A    
O37   Zn3   S    
C212  C422  A    
C152  C153  A    
O13   Zn7   S    
C226  C227  A    
C12   C37   A    
O7    Zn10  S    
C283  C284  A    
C150  C151  A    
C407  O53   D    
C51   C60   A    
C191  H241  S    
C326  H97   S    
C241  H27   S    
C330  H102  S    
C5    C472  S    
C2    C62   A    
C282  H61   S    
C257  C390  A    
C25   C33   A    
C234  H21   S    
C74   C124  A    
C87   C88   A    
C339  C340  A    
C382  C383  A    
C170  H223  S    
C124  C372  S    
C39   C65   A    
C121  H183  S    
C239  C240  A    
C223  O45   A    
C458  C467  S    
C343  C344  A    
C393  H153  S    
C277  H58   S    
C112  O56   A    
C398  C417  S    
C161  C162  A    
C338  H107  S    
C4    C466  T    
C263  C264  A    
C353  C354  A    
C213  C214  A    
C219  H9    S    
C411  H172  S    
C93   C94   A    
C12   C28   A    
C83   C84   A    
C133  H193  S    
O63   Zn5   S    
O43   Zn4   S    
C202  H250  S    
C33   C450  S    
C46   C66   A    
C281  H60   S    
C237  H23   S    
C12   C105  S    
C74   C265  S    
C168  C462  A    
C123  C125  A    
C35   C65   A    
C132  C138  A    
C243  C244  A    
C98   C99   A    
C371  H136  S    
C190  C368  A    
C11   C42   A    
C262  H44   S    
C329  C330  A    
C312  C401  A    
C366  C367  A    
C446  O29   A    
C37   C63   A    
C385  C391  A    
C68   C339  S    
O12   Zn5   S    
C141  H199  S    
C115  H177  S    
C44   C58   A    
C208  C209  A    
C396  H156  S    
C299  H75   S    
C130  H190  S    
C460  O26   A    
C363  C364  A    
C414  O60   D    
C459  O25   A    
C302  H77   S    
O9    Zn1   S    
C14   C27   A    
C417  C435  A    
C248  H32   S    
C25   C47   A    
C358  H125  S    
C225  H14   S    
C349  H117  S    
C194  C195  A    
C245  C251  A    
C26   C447  S    
C10   C92   S    
C315  C316  A    
C24   C64   A    
C415  O61   D    
C40   C66   A    
C269  C270  A    
C269  H50   S    
C17   C132  S    
C203  H251  S    
C405  C424  S    
C342  H110  S    
C310  H85   S    
C341  H109  S    
C449  O43   A    
C300  C302  A    
C230  H18   S    
C116  H178  S    
C452  O41   A    
C211  C217  A    
C152  C158  A    
O33   Zn2   S    
C410  C430  S    
C187  H238  S    
C360  H126  S    
C307  C308  A    
C209  H256  S    
C171  H225  S    
C120  H182  S    
C396  C397  A    
C47   C73   A    
C259  C264  A    
C109  C110  A    
C347  C348  A    
C332  H103  S    
C86   C87   A    
C260  C261  A    
O26   Zn9   S    
C188  H239  S    
C337  H106  S    
C205  C206  A    
C400  O47   D    
C97   H57   S    
C82   C83   A    
C9    C40   A    
C207  C208  A    
C10   C39   A    
C36   C62   A    
C268  C401  A    
C90   C268  A    
C331  C332  A    
C51   C77   A    
C96   C97   A    
C254  C255  A    
C290  C430  A    
C395  H155  S    
C382  H144  S    
C159  C160  A    
C394  H154  S    
C460  O24   A    
C218  C219  A    
C28   C445  S    
C113  C365  S    
C242  C243  A    
C454  O13   A    
C325  C330  A    
C367  C369  A    
C272  C277  A    
C292  C462  S    
C192  C197  A    
C399  H160  S    
C121  C122  A    
C135  C312  A    
C119  C125  A    
C73   C113  A    
C402  C421  S    
C461  C470  T    
C245  C247  A    
C451  O8    A    
C160  H215  S    
C166  H220  S    
C415  C434  S    
C378  C380  A    
C127  C128  A    
C87   H224  S    
C180  C181  A    
C9    C27   A    
C162  C163  A    
C137  C138  A    
C10   C28   A    
C136  H195  S    
C387  C388  A    
C459  O22   A    
C300  H76   S    
C458  O19   A    
C342  C343  A    
C101  C279  A    
C347  H115  S    
C149  H206  S    
C362  H128  S    
C392  C393  A    
C448  O40   A    
C180  H231  S    
C178  C180  A    
C395  C396  A    
C376  C377  A    
C105  C106  A    
C286  H64   S    
C456  C465  S    
C63   C198  S    
C246  C379  A    
C408  O54   D    
C252  C253  A    
C81   H112  S    
C386  C387  A    
C265  C271  A    
C375  H139  S    
C327  C328  A    
C66   C218  S    
C149  C150  A    
C192  C193  A    
C366  H131  S    
C267  C269  A    
C138  H197  S    
C185  C186  A    
C261  C262  A    
C411  O58   D    
C255  H39   S    
C311  C317  A    
C409  C428  S    
C92   C93   A    
C266  H48   S    
C111  C114  A    
C78   C80   A    
C207  H254  S    
C275  H55   S    
C94   C95   A    
C55   C379  A    
C405  H165  S    
C319  C320  A    
C21   C32   A    
C20   C152  S    
C258  H41   S    
C407  H167  S    
C305  C306  A    
C75   C272  S    
C103  C104  A    
C389  C391  A    
C404  C423  S    
C247  H31   S    
C270  C271  A    
C136  C137  A    
C373  C374  A    
C16   C126  S    
C31   C448  S    
C190  C420  A    
C127  H187  S    
C414  H174  S    
C280  H59   S    
C203  C204  A    
C289  H67   S    
C165  C166  A    
C112  O12   A    
C179  C357  A    
C235  C346  A    
C169  C170  A    
C163  C164  A    
C299  C300  A    
O64   Zn8   S    
C81   C82   A    
C85   C91   A    
C54   C368  A    
C432  C441  A    
C409  O55   D    
C309  C310  A    
C236  C237  A    
O14   Zn1   S    
C429  C441  S    
C19   C145  S    
C387  H149  S    
C103  H101  S    
C409  H170  S    
C386  H148  S    
C292  C293  A    
C341  C342  A    
C143  C144  A    
C6    C471  S    
O31   Zn2   S    
C147  H204  S    
C301  C431  A    
C286  C287  A    
C42   C55   A    
C185  C191  A    
C98   C104  A    
C383  H145  S    
C226  C231  A    
C241  C242  A    
C116  C117  A    
C154  H210  S    
C44   C71   A    
C415  H175  S    
C332  C333  A    
C227  C228  A    
C223  C437  S    
C239  C244  A    
C82   H180  S    
C420  C437  A    
C246  C425  A    
C168  C346  A    
C47   C60   A    
C174  C175  A    
C22   C165  S    
C158  H214  S    
C22   C44   A    
C23   C172  S    
C355  C356  A    
C132  C133  A    
C25   C178  S    
C295  C296  A    
C56   C390  A    
C59   C412  A    
C198  C199  A    
C333  H104  S    
C265  C266  A    
C221  H11   S    
C41   C52   A    
C314  H87   S    
C304  H80   S    
C2    C179  A    
C343  H111  S    
C445  O35   A    
C397  H158  S    
C175  H228  S    
C224  C423  A    
C254  H38   S    
C303  C304  A    
C278  C284  A    
C279  C412  A    
C45   C72   A    
C8    C78   S    
C336  H105  S    
C321  H94   S    
C88   H235  S    
C457  O18   A    
C440  O5    A    
C2    C298  S    
C320  H93   S    
O28   Zn12  S    
C294  H71   S    
C283  H62   S    
C83   H191  S    
C14   C111  S    
C425  C438  A    
C233  H20   S    
C151  H208  S    
C65   C211  S    
C22   C31   A    
C23   C30   A    
C123  H185  S    
C325  C326  A    
C251  H36   S    
C323  C390  A    
C418  O7    A    
C274  H54   S    
C273  H53   S    
O36   Zn3   S    
C447  O30   A    
C19   C48   A    
C128  H188  S    
C15   C26   A    
C231  H19   S    
C135  C378  S    
C16   C38   A    
C281  C282  A    
C433  C439  A    
C230  C231  A    
C49   C58   A    
C188  C189  A    
C334  C438  S    
C3    C465  T    
O5    Zn8   S    
C227  H15   S    
C183  C184  A    
C318  C319  A    
C430  C443  A    
C373  H137  S    
C139  C144  A    
C52   C346  A    
C99   C100  A    
C348  H116  S    
C140  H198  S    
C403  O49   D    
C104  H113  S    
C204  H252  S    
C163  H218  S    
C100  C102  A    
C273  C274  A    
C58   C401  A    
C48   C59   A    
C182  H233  S    
C298  C304  A    
C276  C277  A    
C119  C120  A    
C452  O39   A    
C145  C151  A    
C449  O37   A    
C434  C443  A    
O21   Zn11  S    
C176  C177  A    
C211  C213  A    
O23   Zn6   S    
C334  O63   A    
C354  C355  A    
C43   C70   A    
C144  H203  S    
C166  C167  A    
C61   C185  S    
C278  C280  A    
C113  C290  A    
C70   C239  S    
C272  C273  A    
C95   H35   S    
C255  C256  A    
C419  C436  A    
C157  C392  S    
C308  C309  A    
C189  H240  S    
C369  C370  A    
C232  C238  A    
C404  O50   D    
C450  O42   A    
C276  H56   S    
C302  C303  A    
C260  H42   S    
C389  H151  S    
C146  C323  A    
C159  C164  A    
C427  C441  A    
C440  O3    A    
C53   C357  A    
C80   C81   A    
C17   C50   A    
C285  C286  A    
C413  H173  S    
C247  C248  A    
C331  C338  A    
C402  O48   D    
C456  O15   A    
C424  C435  A    
C361  C362  A    
C76   C278  S    
C112  C436  S    
C288  C289  A    
C122  C123  A    
C1    O62   A    
C141  C142  A    
C370  H134  S    
C456  O17   A    
C369  H133  S    
C345  C347  A    
C133  C134  A    
C126  C131  A    
C140  C141  A    
C455  C464  S    
C289  C291  A    
C213  H4    S    
C440  C442  S    
C263  H45   S    
C378  C384  A    
C18   C139  S    
C102  H90   S    
C160  C161  A    
C250  C251  A    
C266  C267  A    
C413  C432  S    
C287  C288  A    
C78   C84   A    
C43   C56   A    
C377  H141  S    
C11   C29   A    
C40   C53   A    
C153  H209  S    
C80   H1    S    
C362  C363  A    
C125  H186  S    
C418  O64   A    
C324  H96   S    
C457  O20   A    
O42   Zn4   S    
C153  C154  A    
C448  O36   A    
C408  H169  S    
C143  H201  S    
C307  H82   S    
C178  C184  A    
C210  H3    S    
C313  H86   S    
C77   C157  A    
