data_mof_unit_11354.cif
_audit_creation_date              2012-12-10T20:35:55-0500
_audit_creation_method            fapswitch 2.2
_symmetry_space_group_name_H-M    P1
_symmetry_Int_Tables_number       1
_space_group_crystal_system       triclinic
_cell_length_a                    15.722965
_cell_length_b                    10.637823
_cell_length_c                    9.878837
_cell_angle_alpha                 89.590357
_cell_angle_beta                  88.712358
_cell_angle_gamma                 90.520249
_cell_volume                      1651.78566243

loop_
_atom_site_label
_atom_site_type_symbol
_atom_type_description
_atom_site_fract_x
_atom_site_fract_y
_atom_site_fract_z
_atom_type_partial_charge
C1    C     C_R   0.496358 0.259985 0.500591 0.878727
C2    C     C_R   0.480357 0.128663 0.503009 -0.102185
C3    C     C_R   0.458445 0.065490 0.384339 -0.224927
C4    C     C_R   0.338291 0.498501 0.501535 0.895738
C5    C     C_R   0.458409 0.935367 0.384106 -0.242505
C6    C     C_R   0.480891 0.871089 0.502191 -0.102157
C7    C     C_R   0.484556 0.935038 0.624545 0.142942
C8    C     C_3   0.548135 0.928206 0.734717 -0.495145
C9    C     C_3   0.547708 0.070714 0.735072 -0.479765
C10   C     C_R   0.461992 0.404043 0.073299 0.176412
C11   C     C_R   0.545910 0.587655 0.067658 0.212832
C12   C     C_3   0.946469 0.447105 0.643508 0.345697
C13   C     C_R   0.545503 0.586453 0.923927 -0.144789
C14   C     C_R   0.462093 0.404190 0.930987 0.198066
C15   C     C_3   0.370968 0.366056 0.927950 -0.505361
C16   C     C_R   0.496607 0.740024 0.499953 0.874005
C17   C     C_3   0.370482 0.366025 0.081812 -0.498556
C18   C     C_R   0.661652 0.500984 0.498507 0.905981
C19   C     C_3   0.045321 0.431315 0.639230 0.277122
C20   C     C_3   0.051671 0.414780 0.382926 -0.360951
C21   C     C_3   0.953163 0.409573 0.383643 0.012291
C22   C     C_1   0.750474 0.500678 0.495507 -0.226413
C23   C     C_3   0.917119 0.493364 0.501163 0.147766
C24   C     C_3   0.082406 0.491566 0.505669 0.095698
C25   C     C_3   0.836065 0.351937 0.775969 0.096675
C26   C     C_3   0.865435 0.342563 0.922455 -0.408775
C27   C     C_3   0.790913 0.357509 0.022697 -0.927736
C28   C     C_3   0.594983 0.691807 0.132766 -0.841286
C29   C     C_3   0.072923 0.256543 0.779040 0.168117
C30   C     C_3   0.165666 0.235410 0.814989 -0.384263
C31   C     C_3   0.172265 0.179464 0.957164 -0.976704
C32   C     C_3   0.920344 0.272516 0.386439 -0.830666
C33   C     C_3   0.145171 0.787506 0.411133 0.110581
C34   C     C_3   0.952864 0.628557 0.479148 -0.601336
C35   C     C_3   0.097304 0.910629 0.434798 -0.369474
C36   C     C_3   0.158677 0.018761 0.463177 -0.949701
C37   C     C_3   0.050691 0.629682 0.492954 0.302267
C38   C     C_1   0.825746 0.498544 0.496386 -0.039841
C39   C     C_1   0.174019 0.491331 0.506992 -0.015072
C40   C     C_1   0.249382 0.494044 0.505173 -0.214580
C41   C     C_R   0.484170 0.063075 0.624973 0.126272
H1    H     H_    0.073182 0.484702 0.725056 -0.007131
H2    H     H_    0.580106 0.657370 0.865419 0.151665
H3    H     H_    0.330304 0.440186 0.884010 0.217534
H4    H     H_    0.363019 0.270989 0.883874 0.201190
H5    H     H_    0.329303 0.439973 0.126720 0.225036
H6    H     H_    0.361412 0.270746 0.127034 0.192401
H7    H     H_    0.075411 0.459401 0.286858 0.181127
H8    H     H_    0.079328 0.318820 0.384747 0.205129
H9    H     H_    0.932064 0.450673 0.285966 0.157621
H10   H     H_    0.064854 0.679196 0.589537 0.043323
H11   H     H_    0.924113 0.694080 0.554434 0.153830
H12   H     H_    0.933480 0.523544 0.718189 -0.014105
H13   H     H_    0.788045 0.276769 0.758985 0.164907
H14   H     H_    0.803040 0.442810 0.759956 0.139342
H15   H     H_    0.895268 0.249608 0.939326 0.221915
H16   H     H_    0.913323 0.417403 0.941586 0.204067
H17   H     H_    0.760951 0.450863 0.009435 0.265446
H18   H     H_    0.814072 0.350181 0.127775 0.265634
H19   H     H_    0.742474 0.282564 0.007488 0.262452
H20   H     H_    0.634686 0.656195 0.214836 0.271396
H21   H     H_    0.639214 0.738945 0.058810 0.191396
H22   H     H_    0.550671 0.764674 0.169742 0.242537
H23   H     H_    0.935196 0.664103 0.377301 0.231968
H24   H     H_    0.038398 0.164972 0.784383 0.166739
H25   H     H_    0.042350 0.318403 0.856129 0.114728
H26   H     H_    0.195500 0.170402 0.740668 0.231648
H27   H     H_    0.200573 0.326591 0.809691 0.223956
H28   H     H_    0.147197 0.246403 0.033800 0.265703
H29   H     H_    0.239733 0.159716 0.979079 0.270068
H30   H     H_    0.135732 0.089720 0.965298 0.261595
H31   H     H_    0.940889 0.224836 0.291659 0.211528
H32   H     H_    0.946215 0.218875 0.472663 0.306432
H33   H     H_    0.849803 0.268737 0.392377 0.242951
H34   H     H_    0.447712 0.115477 0.290424 0.165259
H35   H     H_    0.190515 0.801368 0.324329 0.163022
H36   H     H_    0.184463 0.763075 0.499939 0.116858
H37   H     H_    0.060228 0.934015 0.343642 0.230580
H38   H     H_    0.052148 0.899610 0.522288 0.214104
H39   H     H_    0.196064 0.997706 0.554556 0.260531
H40   H     H_    0.122160 0.106055 0.481187 0.293358
H41   H     H_    0.202900 0.034586 0.375291 0.262542
H42   H     H_    0.446892 0.886541 0.290442 0.163388
H43   H     H_    0.520562 0.885830 0.829281 0.204568
H44   H     H_    0.609930 0.888196 0.700012 0.198164
H45   H     H_    0.519882 0.110588 0.829732 0.202054
H46   H     H_    0.609252 0.113745 0.700469 0.200285
N1    N     N_R   0.499430 0.499140 0.142800 -0.107665
N2    N     N_R   0.499430 0.499180 0.857150 -0.120872
O1    O     O_R   0.500010 0.316790 0.614690 -0.615332
O2    O     O_3   0.068282 0.302352 0.644423 -0.619406
O3    O     O_3   0.088170 0.689640 0.376528 -0.624908
O4    O     O_R   0.500000 0.316760 0.385350 -0.618829
O5    O     O_R   0.377150 0.500020 0.614720 -0.617897
O6    O     O_R   0.377140 0.499990 0.385380 -0.613176
O7    O     O_R   0.500000 0.683240 0.614650 -0.619457
O8    O     O_R   0.499990 0.683210 0.385310 -0.623503
O9    O     O_R   0.622860 0.500010 0.614620 -0.620472
O10   O     O_R   0.622850 0.499980 0.385280 -0.614900
O11   O     O_3   0.904983 0.332581 0.683308 -0.621325
Zn1   Zn    Zn3+2 0.500010 0.500020 0.653130 0.934482
Zn2   Zn    Zn3+2 0.499990 0.499980 0.346870 0.939516

loop_
_geom_bond_atom_site_label_1
_geom_bond_atom_site_label_2
_ccdc_geom_bond_type
C1    O1    A    
C34   C37   S    
C35   C36   S    
C29   O2    S    
C7    C8    S    
C32   H31   S    
C12   C23   S    
C10   N1    A    
C26   C27   S    
C29   C30   S    
O1    Zn1   S    
C15   H3    S    
C8    H44   S    
C27   H19   S    
C32   H33   S    
C30   C31   S    
C5    H42   S    
C16   O8    A    
C10   C17   S    
C22   C38   T    
C24   C39   S    
C1    C2    S    
C20   C24   S    
C25   O11   S    
C31   H29   S    
C4    C40   S    
O5    Zn1   S    
C36   H41   S    
C8    C9    S    
C3    H34   S    
C36   H40   S    
O8    Zn2   S    
O6    Zn2   S    
C13   N2    A    
C28   H20   S    
C31   H30   S    
C18   C22   S    
O7    Zn1   S    
C21   H9    S    
C21   C32   S    
C16   O7    A    
C17   H6    S    
C25   H13   S    
C10   C14   A    
C33   O3    S    
C39   C40   T    
C25   C26   S    
C14   N2    A    
C20   H8    S    
C9    H45   S    
C4    O6    A    
C33   H35   S    
C11   N1    A    
C23   C34   S    
C34   H23   S    
C24   C37   S    
C17   H5    S    
C20   H7    S    
C12   H12   S    
C4    O5    A    
C21   C23   S    
C36   H39   S    
C29   H24   S    
C18   O10   A    
C15   H4    S    
O9    Zn1   S    
C13   H2    S    
C15   C17   S    
C37   O3    S    
N2    Zn1   S    
C8    H43   S    
C9    C41   S    
C30   H26   S    
C3    C5    A    
C27   H17   S    
C26   H15   S    
O4    Zn2   S    
N1    Zn2   S    
C19   H1    S    
C6    C7    A    
C23   C38   S    
C18   O9    A    
C35   H37   S    
C34   H11   S    
C2    C3    A    
C27   H18   S    
C9    H46   S    
C11   C13   A    
C33   H36   S    
C5    C6    A    
C11   C28   S    
C37   H10   S    
C12   C19   S    
C35   H38   S    
C33   C35   S    
C25   H14   S    
C19   C24   S    
C7    C41   A    
C26   H16   S    
C12   O11   S    
C19   O2    S    
C6    C16   S    
C29   H25   S    
C28   H22   S    
C31   H28   S    
O10   Zn2   S    
C20   C21   S    
C1    O4    A    
C14   C15   S    
C2    C41   A    
C32   H32   S    
C30   H27   S    
C28   H21   S    
