data_mof_unit_55341.cif
_audit_creation_date              2012-12-11T16:05:11-0500
_audit_creation_method            fapswitch 2.2
_symmetry_space_group_name_H-M    P1
_symmetry_Int_Tables_number       1
_space_group_crystal_system       triclinic
_cell_length_a                    10.674876
_cell_length_b                    10.672631
_cell_length_c                    16.930455
_cell_angle_alpha                 98.612149
_cell_angle_beta                  98.556416
_cell_angle_gamma                 61.486285
_cell_volume                      1669.14682238

loop_
_atom_site_label
_atom_site_type_symbol
_atom_type_description
_atom_site_fract_x
_atom_site_fract_y
_atom_site_fract_z
_atom_type_partial_charge
C1    C     C_R   0.357239 0.769567 0.396761 0.600047
C2    C     C_3   0.404298 0.674656 0.247033 -0.178723
C3    C     C_3   0.354871 0.795910 0.315422 0.055658
C4    C     C_R   0.371434 0.347444 0.358571 0.605262
C5    C     C_3   0.428400 0.866585 0.283063 0.288555
C6    C     C_3   0.287621 0.956752 0.234805 -0.055773
C7    C     C_3   0.214569 0.882244 0.267077 -0.124803
C8    C     C_3   0.262038 0.762746 0.197681 -0.148865
C9    C     C_3   0.334621 0.836884 0.165606 0.002967
C10   C     C_3   0.459794 0.262325 0.775415 -0.116790
C11   C     C_3   0.396883 0.402835 0.735210 -0.118542
C12   C     C_3   0.773515 0.277702 0.249763 -0.168368
C13   C     C_3   0.336953 0.334296 0.663354 0.053422
C14   C     C_3   0.399894 0.194614 0.702950 -0.106083
C15   C     C_3   0.257505 0.253695 0.741016 -0.107957
C16   C     C_R   0.777382 0.376627 0.401959 0.578671
C17   C     C_3   0.194776 0.394361 0.700242 -0.115899
C18   C     C_3   0.254529 0.461795 0.773658 -0.123377
C19   C     C_3   0.318294 0.321474 0.812780 0.051838
C20   C     C_1   0.817271 0.341885 0.709597 -0.043598
C21   C     C_1   0.843955 0.314959 0.778091 -0.046967
C22   C     C_1   0.338125 0.812045 0.709730 -0.046341
C23   C     C_3   0.832533 0.341648 0.324092 0.067152
C24   C     C_1   0.313413 0.839280 0.778539 -0.044520
C25   C     C_R   0.958948 0.284295 0.102224 0.555652
C26   C     C_R   0.319453 0.299909 0.120024 0.533885
C27   C     C_R   0.297887 0.885033 0.086058 0.537277
C28   C     C_R   0.356570 0.771285 0.627195 0.549332
C29   C     C_R   0.885203 0.299379 0.860889 0.552366
C30   C     C_R   0.308236 0.294106 0.891903 0.543617
C31   C     C_R   0.280167 0.884732 0.859055 0.542616
C32   C     C_R   0.366902 0.345671 0.585160 0.574670
C33   C     C_R   0.773762 0.379716 0.629622 0.543735
C34   C     C_3   0.984987 0.246641 0.302714 0.359633
C35   C     C_1   0.345354 0.337494 0.274800 -0.016073
C36   C     C_1   0.333072 0.327490 0.203588 -0.044519
C37   C     C_3   0.928745 0.180359 0.227468 -0.125364
C38   C     C_3   0.973874 0.364444 0.255412 -0.106117
C39   C     C_3   0.818605 0.460595 0.276678 -0.148625
C40   C     C_3   0.760852 0.395821 0.201820 -0.139472
C41   C     C_3   0.915284 0.300214 0.181467 0.005410
C42   C     C_3   0.477292 0.748849 0.213177 -0.136067
Cr1   Cr    Cr6+3 0.608340 0.611040 0.520430 1.092736
Cr2   Cr    Cr6+3 0.287650 0.601120 0.489350 1.057401
Cr3   Cr    Cr6+3 0.604040 0.287870 0.490280 1.089566
Cr4   Cr    Cr6+3 0.054020 0.052700 0.970850 1.024145
Cr5   Cr    Cr6+3 0.059230 0.375120 0.993390 1.022200
Cr6   Cr    Cr6+3 0.374950 0.061200 0.992340 1.041209
F1    F     F_    0.096584 0.174855 0.358567 -0.635490
H1    H     H_    0.690575 0.242900 0.249364 0.144941
H2    H     H_    0.197043 0.570458 0.804732 0.133905
H3    H     H_    0.966646 0.069230 0.199610 0.125923
H4    H     H_    0.055581 0.400597 0.256089 0.123962
H5    H     H_    0.773591 0.575862 0.296876 0.192059
H6    H     H_    0.670662 0.452967 0.157237 0.135575
H7    H     H_    0.452098 0.558897 0.255032 0.110881
H8    H     H_    0.582782 0.700401 0.188610 0.130792
H9    H     H_    0.683336 0.002891 0.312799 0.361706
H10   H     H_    0.243895 0.072294 0.227589 0.144642
H11   H     H_    0.111534 0.929179 0.294268 0.171592
H12   H     H_    0.194399 0.718757 0.160833 0.144263
H13   H     H_    0.454707 0.464413 0.730754 0.111924
H14   H     H_    0.567951 0.210397 0.807824 0.132942
H15   H     H_    0.457468 0.085535 0.672325 0.144595
H16   H     H_    0.199686 0.192209 0.745667 0.117679
H17   H     H_    0.087137 0.446255 0.667306 0.141409
O1    O     O_R   0.751220 0.499230 0.435170 -0.490649
O2    O     O_R   0.412990 0.180750 0.091610 -0.485245
O3    O     O_R   0.366620 0.943130 0.065760 -0.491163
O4    O     O_R   0.477220 0.727600 0.436870 -0.453586
O5    O     O_R   0.160510 0.906330 0.879210 -0.510390
O6    O     O_R   0.930190 0.179050 0.889450 -0.491553
O7    O     O_R   0.909140 0.398170 0.896710 -0.502708
O8    O     O_R   0.186190 0.363460 0.918830 -0.501588
O9    O     O_R   0.401670 0.173200 0.913310 -0.514292
O10   O     O_R   0.356120 0.936130 0.900470 -0.495404
O11   O     O_3   0.162740 0.163010 0.985530 -0.283908
O12   O     O_R   0.297880 0.469080 0.560050 -0.500681
O13   O     O_R   0.258650 0.745120 0.411470 -0.519483
O14   O     O_R   0.297070 0.467240 0.395960 -0.513249
O15   O     O_R   0.488830 0.252610 0.387790 -0.434536
O16   O     O_R   0.724400 0.302390 0.420980 -0.514240
O17   O     O_R   0.752100 0.501210 0.612190 -0.509138
O18   O     O_R   0.478040 0.729440 0.600970 -0.494497
O19   O     O_R   0.259530 0.747110 0.588490 -0.501385
O20   O     O_2   0.458036 0.032983 0.410141 -0.222988
O21   O     O_2   0.670440 0.807377 0.379235 -0.317764
O22   O     O_3   0.591461 0.010011 0.285889 -0.532977
O23   O     O_R   0.489720 0.254590 0.564810 -0.487571
O24   O     O_R   0.725220 0.304230 0.585080 -0.495696
O25   O     O_3   0.500010 0.500010 0.500020 -0.300817
O26   O     O_R   0.171830 0.913880 0.057510 -0.529690
O27   O     O_R   0.940690 0.186050 0.054730 -0.495598
O28   O     O_R   0.920470 0.405720 0.075010 -0.507875
O29   O     O_R   0.196690 0.370460 0.084120 -0.524989
S1    S     S_3+6 0.540554 0.930006 0.343565 0.024181

loop_
_geom_bond_atom_site_label_1
_geom_bond_atom_site_label_2
_ccdc_geom_bond_type
C5    C42   S    
O22   S1    S    
C11   C18   S    
C25   O27   A    
C28   O18   A    
C34   C37   S    
Cr1   O17   S    
Cr6   O10   S    
C13   C32   S    
Cr3   O16   S    
Cr6   O3    S    
C11   H13   S    
C6    C9    S    
C7    C8    S    
C15   C19   S    
C38   H4    S    
C12   C23   S    
C9    C42   S    
C4    O14   A    
C3    C7    S    
C38   C39   S    
C30   O8    A    
C39   H5    S    
Cr4   O26   S    
C15   H16   S    
C18   C19   S    
C12   C37   S    
C4    O15   A    
C10   H14   S    
C8    C9    S    
Cr3   O23   S    
Cr4   O6    S    
C27   O3    A    
C8    H12   S    
C29   O6    A    
C40   H6    S    
C31   O5    A    
C4    C35   S    
C25   O28   A    
C22   C28   S    
C13   C14   S    
Cr1   O18   S    
Cr6   O9    S    
C42   H8    S    
C18   H2    S    
C2    C8    S    
Cr2   O14   S    
Cr5   O7    S    
C38   C41   S    
C10   C14   S    
C25   C41   S    
C39   C40   S    
C37   H3    S    
C21   C29   S    
Cr1   O25   S    
C1    C3    S    
C35   C36   T    
Cr6   O11   S    
C12   C40   S    
C32   O23   A    
C10   C19   S    
C23   C34   S    
C14   H15   S    
O21   S1    D    
C16   O16   A    
C17   C18   S    
C17   H17   S    
C27   O26   A    
C16   O1    A    
Cr6   O2    S    
Cr3   O24   S    
C33   O17   A    
Cr4   O5    S    
Cr2   O25   S    
O20   S1    D    
C20   C33   S    
C26   C36   S    
C40   C41   S    
Cr1   O4    S    
C1    O13   A    
C22   C24   T    
Cr5   O11   S    
Cr2   O19   S    
C7    H11   S    
C5    S1    S    
C9    C27   S    
C26   O29   A    
C15   C17   S    
C34   F1    S    
C34   C38   S    
C6    H10   S    
Cr2   O13   S    
Cr3   O15   S    
Cr5   O8    S    
C3    C5    S    
H9    O22   S    
Cr4   O11   S    
C12   H1    S    
C6    C7    S    
C16   C23   S    
C1    O4    A    
C13   C17   S    
C26   O2    A    
Cr2   O12   S    
C2    C3    S    
C24   C31   S    
C2    H7    S    
C33   O24   A    
C30   O9    A    
C11   C13   S    
C31   O10   A    
C5    C6    S    
Cr4   O27   S    
C2    C42   S    
C23   C39   S    
Cr5   O28   S    
C37   C41   S    
Cr3   O25   S    
C10   C11   S    
C32   O12   A    
C29   O7    A    
C20   C21   T    
Cr1   O1    S    
C28   O19   A    
Cr5   O29   S    
C14   C15   S    
C19   C30   S    
