data_mof_unit_54444.cif
_audit_creation_date              2012-12-10T21:07:02-0500
_audit_creation_method            fapswitch 2.2
_symmetry_space_group_name_H-M    P1
_symmetry_Int_Tables_number       1
_space_group_crystal_system       triclinic
_cell_length_a                    10.732918
_cell_length_b                    15.838182
_cell_length_c                    15.044082
_cell_angle_alpha                 90.317685
_cell_angle_beta                  90.535097
_cell_angle_gamma                 89.818185
_cell_volume                      2557.17883121

loop_
_atom_site_label
_atom_site_type_symbol
_atom_type_description
_atom_site_fract_x
_atom_site_fract_y
_atom_site_fract_z
_atom_type_partial_charge
C1    C     C_R   0.499997 0.338907 0.499742 0.908219
C2    C     C_R   0.493074 0.087139 0.495796 0.073703
C3    C     C_R   0.599116 0.957180 0.459316 0.228994
C4    C     C_R   0.394453 0.043261 0.534753 0.222529
C5    C     C_1   0.500058 0.824211 0.500423 -0.064573
C6    C     C_1   0.495416 0.175963 0.497571 -0.018607
C7    C     C_1   0.497776 0.250698 0.498923 -0.201409
C8    C     C_1   0.499904 0.749410 0.500823 -0.184800
C9    C     C_R   0.433916 0.436209 0.951620 0.352583
C10   C     C_R   0.571765 0.557228 0.048366 0.308478
C11   C     C_R   0.501300 0.498190 0.905059 -0.303299
C12   C     C_R   0.499851 0.661124 0.500264 0.912726
C13   C     C_R   0.501625 0.496973 0.095015 -0.297709
C14   C     C_R   0.568919 0.559238 0.954099 0.310835
C15   C     C_R   0.433747 0.435614 0.045911 0.351714
C16   C     C_R   0.259482 0.502224 0.499287 0.876167
C17   C     C_R   0.740542 0.498326 0.500604 0.883140
C18   C     C_1   0.500321 0.499586 0.807134 0.207667
C19   C     C_1   0.500080 0.498754 0.192878 0.175790
C20   C     C_R   0.236311 0.663737 0.256055 0.541140
C21   C     C_R   0.808977 0.298305 0.722661 0.564747
C22   C     C_R   0.180707 0.636829 0.334943 -0.230114
C23   C     C_R   0.872698 0.498594 0.501718 -0.091249
C24   C     C_R   0.861986 0.339783 0.650386 -0.285600
C25   C     C_R   0.117087 0.559475 0.338347 0.028299
C26   C     C_R   0.883552 0.427090 0.653325 0.024381
C27   C     C_R   0.107020 0.509112 0.260734 0.247630
C28   C     C_R   0.853636 0.473438 0.730608 0.298319
C29   C     C_R   0.158085 0.537948 0.181039 -0.256723
C30   C     C_R   0.802473 0.431540 0.803580 -0.264651
C31   C     C_R   0.221227 0.614658 0.178353 -0.288528
C32   C     C_R   0.781570 0.344626 0.800191 -0.296994
C33   C     C_R   0.931749 0.529892 0.426482 -0.218738
C34   C     C_R   0.127294 0.503675 0.497924 -0.111286
C35   C     C_R   0.068077 0.471892 0.572778 -0.244127
C36   C     C_3   0.430865 0.310793 0.876745 0.106569
C37   C     C_3   0.346926 0.248086 0.828338 -0.795426
C38   C     C_3   0.758502 0.590676 0.111209 0.139488
C39   C     C_3   0.824238 0.653700 0.172027 -0.833920
C40   C     C_3   0.417452 0.733381 0.222213 0.133359
C41   C     C_3   0.487884 0.815077 0.239257 -0.802654
C42   C     C_3   0.669968 0.189116 0.730564 0.075618
C43   C     C_3   0.653104 0.096509 0.706165 -0.793609
C44   C     C_3   0.119012 0.361215 0.296415 -0.729141
C45   C     C_R   0.940635 0.468408 0.575519 0.062678
C46   C     C_3   0.987510 0.587882 0.775271 -0.771926
C47   C     C_3   0.199534 0.117065 0.512967 -0.769744
C48   C     C_3   0.818877 0.923770 0.469653 -0.781972
C49   C     C_3   0.435339 0.312991 0.126203 0.110051
C50   C     C_3   0.364091 0.230083 0.124362 -0.816896
C51   C     C_3   0.565193 0.692375 0.899254 0.146114
C52   C     C_3   0.636500 0.755610 0.843720 -0.836535
C53   C     C_R   0.059468 0.531790 0.422841 0.051877
C54   C     C_R   0.399208 0.955513 0.536016 -0.282880
C55   C     C_R   0.593843 0.044877 0.457956 -0.269235
C56   C     C_R   0.500061 0.913107 0.498219 0.064578
H1    H     H_    0.257106 0.635769 0.115358 0.146517
H2    H     H_    0.668819 0.080216 0.428005 0.165454
H3    H     H_    0.475838 0.278011 0.933901 0.126803
H4    H     H_    0.504180 0.331122 0.829782 0.120680
H5    H     H_    0.303550 0.278395 0.769205 0.263018
H6    H     H_    0.402273 0.192660 0.806123 0.191189
H7    H     H_    0.272468 0.226153 0.873409 0.262111
H8    H     H_    0.810981 0.586005 0.047841 0.166436
H9    H     H_    0.759701 0.528074 0.144800 0.118502
H10   H     H_    0.774582 0.658537 0.236336 0.249435
H11   H     H_    0.921384 0.632690 0.184963 0.215492
H12   H     H_    0.745736 0.313475 0.858396 0.132577
H13   H     H_    0.826057 0.716834 0.140312 0.262257
H14   H     H_    0.416209 0.722109 0.149235 0.150006
H15   H     H_    0.469157 0.681306 0.255883 0.176642
H16   H     H_    0.488272 0.830148 0.311282 0.256752
H17   H     H_    0.585574 0.808311 0.216479 0.219353
H18   H     H_    0.442588 0.867739 0.202614 0.252839
H19   H     H_    0.606686 0.227269 0.687256 0.154923
H20   H     H_    0.642955 0.197293 0.801230 0.129176
H21   H     H_    0.708581 0.056291 0.752133 0.252434
H22   H     H_    0.553279 0.079039 0.711073 0.205453
H23   H     H_    0.188411 0.675840 0.394123 0.146847
H24   H     H_    0.684846 0.084950 0.637152 0.263989
H25   H     H_    0.001811 0.414590 0.202389 0.216175
H26   H     H_    0.064100 0.301932 0.294097 0.222776
H27   H     H_    0.146579 0.373311 0.366531 0.246505
H28   H     H_    0.204078 0.352782 0.255786 0.256094
H29   H     H_    0.796374 0.593979 0.760950 0.259862
H30   H     H_    0.996803 0.657544 0.771139 0.239749
H31   H     H_    0.067729 0.558611 0.740580 0.252424
H32   H     H_    0.989609 0.569330 0.846440 0.239751
H33   H     H_    0.254194 0.054913 0.627425 0.224049
H34   H     H_    0.886358 0.303772 0.591568 0.155628
H35   H     H_    0.153725 0.062905 0.478735 0.237439
H36   H     H_    0.241564 0.159190 0.462748 0.247635
H37   H     H_    0.127718 0.153667 0.549479 0.243128
H38   H     H_    0.687139 0.853539 0.400017 0.229309
H39   H     H_    0.894861 0.891409 0.433070 0.242636
H40   H     H_    0.810621 0.894727 0.536427 0.241685
H41   H     H_    0.844106 0.991417 0.477117 0.245759
H42   H     H_    0.456952 0.329092 0.196617 0.155290
H43   H     H_    0.524931 0.302696 0.090454 0.096962
H44   H     H_    0.341935 0.211761 0.054655 0.258490
H45   H     H_    0.149101 0.500621 0.120802 0.190626
H46   H     H_    0.421592 0.179578 0.155316 0.205742
H47   H     H_    0.275897 0.236526 0.161765 0.253219
H48   H     H_    0.545121 0.721898 0.964972 0.167324
H49   H     H_    0.475630 0.678231 0.864167 0.126591
H50   H     H_    0.655060 0.728620 0.776814 0.254298
H51   H     H_    0.580744 0.814340 0.835993 0.207177
H52   H     H_    0.726501 0.771286 0.876814 0.261065
H53   H     H_    0.780378 0.466310 0.863573 0.174707
H54   H     H_    0.878410 0.552741 0.369813 0.163871
H55   H     H_    0.121248 0.446878 0.628492 0.171871
H56   H     H_    0.324097 0.920367 0.566075 0.154716
N1    N     N_1   0.499960 0.500020 0.270550 -0.116588
N2    N     N_1   0.500040 0.499980 0.729450 -0.106212
N3    N     N_2   0.044282 0.430085 0.262071 -0.310727
N4    N     N_2   0.871309 0.562292 0.734048 -0.300861
N5    N     N_2   0.293143 0.086899 0.575024 -0.305126
N6    N     N_2   0.703006 0.914756 0.420659 -0.306506
O1    O     O_R   0.500000 0.378020 0.573650 -0.618124
O2    O     O_3   0.635698 0.619127 0.094968 -0.606974
O3    O     O_3   0.295115 0.741577 0.255406 -0.624021
O4    O     O_3   0.795993 0.211412 0.718570 -0.612321
O5    O     O_3   0.359820 0.377147 0.088483 -0.572569
O6    O     O_3   0.638319 0.618837 0.909809 -0.607211
O7    O     O_R   0.500000 0.621980 0.426350 -0.621930
O8    O     O_R   0.500060 0.378020 0.426320 -0.616044
O9    O     O_R   0.499940 0.621980 0.573680 -0.611327
O10   O     O_R   0.316730 0.500010 0.573660 -0.618682
O11   O     O_R   0.683270 0.499990 0.426340 -0.625157
O12   O     O_R   0.316790 0.500010 0.426330 -0.612516
O13   O     O_R   0.683210 0.499990 0.573670 -0.614705
O14   O     O_3   0.358285 0.380030 0.905702 -0.555342
Zn1   Zn    Zn3+2 0.499960 0.500000 0.598370 0.969040
Zn2   Zn    Zn3+2 0.500040 0.500000 0.401630 0.957417

loop_
_geom_bond_atom_site_label_1
_geom_bond_atom_site_label_2
_ccdc_geom_bond_type
O7    Zn2   S    
C11   C18   S    
C23   C45   A    
C48   H39   S    
C17   O13   A    
C47   H36   S    
C5    C56   S    
C36   H3    S    
C18   N2    T    
C37   H6    S    
C12   O9    A    
C2    C6    S    
C43   H22   S    
C40   O3    S    
C42   H19   S    
C17   C23   S    
C40   H14   S    
C36   C37   S    
C40   H15   S    
C25   C53   S    
C22   H23   S    
C44   H26   S    
C2    C55   A    
C36   O14   S    
C38   C39   S    
C11   C14   A    
C27   C29   A    
C19   N1    T    
C49   O5    S    
C34   C35   A    
C1    O1    A    
C21   O4    S    
C28   N4    S    
C26   C45   S    
C16   C34   S    
C41   H18   S    
C3    C55   A    
C52   H51   S    
C23   C33   A    
C22   C25   A    
C16   O12   A    
C38   H8    S    
C51   H49   S    
C32   H12   S    
C38   O2    S    
C44   H27   S    
C49   H42   S    
C52   H50   S    
C50   H47   S    
C51   O6    S    
O12   Zn2   S    
C47   H35   S    
C26   C28   A    
C37   H7    S    
C46   H32   S    
C33   C53   A    
C21   C32   A    
C54   C56   A    
C14   O6    S    
C13   C19   S    
C30   H53   S    
C17   O11   A    
C51   C52   S    
C1    O8    A    
C44   N3    S    
C10   C14   A    
C48   N6    S    
C12   O7    A    
O13   Zn1   S    
C51   H48   S    
C2    C4    A    
C48   H41   S    
C3    N6    S    
C49   H43   S    
C9    C11   A    
C3    C56   A    
C38   H9    S    
C8    C12   S    
H25   N3    S    
C39   H13   S    
C29   H45   S    
O1    Zn1   S    
C16   O10   A    
O8    Zn2   S    
C20   O3    S    
C15   O5    S    
C41   H16   S    
C40   C41   S    
C20   C22   A    
C50   H46   S    
N1    Zn2   S    
C13   C15   A    
C39   H10   S    
C4    N5    S    
C21   C24   A    
C43   H21   S    
C42   C43   S    
C35   C45   A    
C35   H55   S    
C42   O4    S    
C46   H31   S    
C9    O14   S    
C48   H40   S    
C4    C54   A    
C1    C7    S    
C39   H11   S    
H29   N4    S    
O9    Zn1   S    
H33   N5    S    
C44   H28   S    
C10   C13   A    
C24   H34   S    
C5    C8    T    
C37   H5    S    
C6    C7    T    
C25   C27   A    
C42   H20   S    
C46   N4    S    
C31   H1    S    
C28   C30   A    
C43   H24   S    
C29   C31   A    
O10   Zn1   S    
C30   C32   A    
H38   N6    S    
C24   C26   A    
N2    Zn1   S    
C9    C15   A    
C50   H44   S    
C47   H37   S    
C10   O2    S    
C41   H17   S    
O11   Zn2   S    
C47   N5    S    
C52   H52   S    
C34   C53   A    
C49   C50   S    
C55   H2    S    
C36   H4    S    
C54   H56   S    
C33   H54   S    
C46   H30   S    
C20   C31   A    
C27   N3    S    
