data_mof_unit_47575.cif
_audit_creation_date              2012-10-26T19:41:50-0400
_audit_creation_method            fapswitch 2.2
_symmetry_space_group_name_H-M    P1
_symmetry_Int_Tables_number       1
_space_group_crystal_system       triclinic
_cell_length_a                    10.630707
_cell_length_b                    10.784927
_cell_length_c                    9.655775
_cell_angle_alpha                 90.777538
_cell_angle_beta                  89.106369
_cell_angle_gamma                 93.811169
_cell_volume                      1104.37839883

loop_
_atom_site_label
_atom_site_type_symbol
_atom_type_description
_atom_site_fract_x
_atom_site_fract_y
_atom_site_fract_z
_atom_type_partial_charge
C1    C     C_R   0.498411 0.262971 0.498884 0.569416
C2    C     C_R   0.381727 0.063317 0.557224 -0.085823
C3    C     C_R   0.487260 0.128693 0.495965 0.046264
C4    C     C_R   0.259899 0.499645 0.501037 0.609628
C5    C     C_R   0.581824 0.066152 0.428380 0.250081
C6    C     C_R   0.579687 0.937935 0.436192 -0.105349
C7    C     C_R   0.481728 0.870375 0.505306 -0.013642
C8    C     C_R   0.695129 0.644426 0.140112 0.441298
C9    C     C_R   0.800094 0.692135 0.067404 0.364411
C10   C     C_R   0.799565 0.691971 0.926421 -0.135449
C11   C     C_R   0.693685 0.645816 0.857023 0.325157
C12   C     C_3   0.963748 0.483850 0.368912 0.255592
C13   C     C_R   0.594292 0.571246 0.924484 0.024761
C14   C     C_R   0.594739 0.570715 0.074221 0.021309
C15   C     C_R   0.412350 0.432063 0.074179 0.014093
C16   C     C_R   0.489542 0.736298 0.501632 0.642932
C17   C     C_R   0.412634 0.431467 0.926930 0.445497
C18   C     C_R   0.740150 0.498081 0.498940 0.655452
C19   C     C_3   0.038564 0.513348 0.633177 -0.156055
C20   C     C_3   0.951244 0.404495 0.577319 0.318329
C21   C     C_3   0.876963 0.497107 0.496999 -0.024645
C22   C     C_3   0.962777 0.607062 0.552721 -0.132633
C23   C     C_3   0.036597 0.390697 0.449159 0.198469
C24   C     C_3   0.049363 0.592829 0.424269 0.384489
C25   C     C_3   0.288347 0.734926 0.814098 -0.063060
C26   C     C_3   0.016266 0.468492 0.136972 -0.067011
C27   C     C_3   0.990547 0.192388 0.364904 -0.052907
C28   C     C_3   0.667698 0.114836 0.217408 -0.095818
C29   C     C_3   0.123396 0.499611 0.503344 -0.014502
C30   C     C_R   0.276393 0.126992 0.602947 -0.121402
C31   C     C_R   0.169916 0.063146 0.657195 -0.077952
C32   C     C_R   0.168094 0.935789 0.674058 0.407098
C33   C     C_R   0.274130 0.870047 0.637919 0.316226
C34   C     C_R   0.379549 0.931965 0.567904 -0.036128
Cu1   Cu    Cu3+1 0.499990 0.499990 0.640660 1.137190
Cu2   Cu    Cu3+1 0.500010 0.500010 0.359340 1.080267
F1    F     F_    0.896848 0.309179 0.657031 -0.619146
F2    F     F_    0.062786 0.875445 0.727778 -0.641526
F3    F     F_    0.692902 0.689039 0.269601 -0.584903
F4    F     F_    0.896276 0.754862 0.134860 -0.552219
F5    F     F_    0.689223 0.693722 0.730422 -0.610902
F6    F     F_    0.322582 0.360229 0.859711 -0.643672
F7    F     F_    0.104064 0.690878 0.348872 -0.572902
H1    H     H_    0.656960 0.890993 0.389484 0.208200
H2    H     H_    0.212487 0.776454 0.876078 0.171041
H3    H     H_    0.083417 0.396962 0.159653 0.146074
H4    H     H_    0.066621 0.561888 0.131441 0.207043
H5    H     H_    0.976987 0.446636 0.033029 0.144168
H6    H     H_    0.927081 0.227819 0.286591 0.169350
H7    H     H_    0.936370 0.161272 0.458837 0.218296
H8    H     H_    0.032911 0.109718 0.319059 0.170178
H9    H     H_    0.571330 0.133418 0.182563 0.135134
H10   H     H_    0.691379 0.019755 0.184940 0.149208
H11   H     H_    0.734614 0.181970 0.163715 0.158995
H12   H     H_    0.340244 0.376007 0.129268 0.141789
H13   H     H_    0.875825 0.742126 0.870854 0.222945
H14   H     H_    0.071634 0.524936 0.741353 0.170904
H15   H     H_    0.929005 0.695726 0.593669 0.235197
H16   H     H_    0.272991 0.226373 0.592127 0.195009
H17   H     H_    0.088555 0.113090 0.687313 0.203476
H18   H     H_    0.382180 0.776981 0.845694 0.121024
H19   H     H_    0.283877 0.635246 0.840469 0.156002
N1    N     N_R   0.501210 0.501210 0.147910 -0.276008
N2    N     N_R   0.501250 0.501290 0.852040 -0.227340
O1    O     O_R   0.499990 0.319640 0.618810 -0.472238
O2    O     O_3   0.915767 0.467467 0.233948 -0.546218
O3    O     O_3   0.088307 0.281503 0.398330 -0.605917
O4    O     O_3   0.680760 0.132069 0.361827 -0.569933
O5    O     O_R   0.500000 0.319660 0.381240 -0.511883
O6    O     O_R   0.316850 0.499960 0.618770 -0.464097
O7    O     O_R   0.316860 0.499980 0.381190 -0.506981
O8    O     O_R   0.500000 0.680340 0.618760 -0.411655
O9    O     O_R   0.500010 0.680360 0.381190 -0.443932
O10   O     O_R   0.683140 0.500020 0.618810 -0.433632
O11   O     O_R   0.683150 0.500040 0.381230 -0.410992
O12   O     O_3   0.271514 0.745722 0.669734 -0.543515

loop_
_geom_bond_atom_site_label_1
_geom_bond_atom_site_label_2
_ccdc_geom_bond_type
Cu1   O10   S    
C18   O11   A    
C18   C21   S    
C11   C13   A    
C19   C20   S    
C16   O8    A    
C4    O6    A    
C19   H14   S    
C12   C23   S    
C23   C29   S    
C28   O4    S    
C17   N2    A    
C30   C31   A    
Cu1   O1    S    
C23   O3    S    
C17   F6    S    
C24   C29   S    
Cu1   Cu2   S    
Cu1   O6    S    
C8    C9    A    
C1    O1    A    
Cu1   N2    S    
C8    F3    S    
C32   F2    S    
Cu2   N1    S    
C10   H13   S    
C9    C10   A    
C4    C29   S    
Cu2   O7    S    
C26   H5    S    
C2    C34   A    
C18   O10   A    
C6    H1    S    
C13   C14   A    
C5    O4    S    
C27   H8    S    
C16   O9    A    
C26   O2    S    
C19   C22   S    
C10   C11   A    
C28   H11   S    
C12   O2    S    
C12   C21   S    
C9    F4    S    
C1    O5    A    
C1    C3    S    
C15   H12   S    
C31   H17   S    
Cu2   O11   S    
C33   O12   S    
C31   C32   A    
C20   C23   S    
C30   H16   S    
C33   C34   A    
C25   H18   S    
C26   H4    S    
C7    C16   S    
Cu1   O8    S    
C7    C34   A    
C22   C24   S    
C19   C29   S    
C25   H2    S    
Cu2   O5    S    
C15   C17   A    
C8    C14   A    
C3    C5    A    
C22   H15   S    
C28   H10   S    
C27   H7    S    
C6    C7    A    
C12   C24   S    
C2    C30   A    
C25   O12   S    
C32   C33   A    
C2    C3    A    
C20   F1    S    
C28   H9    S    
C5    C6    A    
C13   N2    A    
C14   N1    A    
C11   F5    S    
C25   H19   S    
C27   O3    S    
Cu2   O9    S    
C26   H3    S    
C20   C21   S    
C24   F7    S    
C15   N1    A    
C21   C22   S    
C4    O7    A    
C27   H6    S    
