data_mof_unit_21401.cif
_audit_creation_date              2012-10-26T18:28:19-0400
_audit_creation_method            fapswitch 2.2
_symmetry_space_group_name_H-M    P1
_symmetry_Int_Tables_number       1
_space_group_crystal_system       triclinic
_cell_length_a                    27.768429
_cell_length_b                    11.043058
_cell_length_c                    9.864886
_cell_angle_alpha                 111.716815
_cell_angle_beta                  98.768875
_cell_angle_gamma                 90.282003
_cell_volume                      2771.29273789

loop_
_atom_site_label
_atom_site_type_symbol
_atom_type_description
_atom_site_fract_x
_atom_site_fract_y
_atom_site_fract_z
_atom_type_partial_charge
C1    C     C_R   0.496495 0.253848 0.440184 0.562021
C2    C     C_R   0.865321 0.447203 0.347278 0.016996
C3    C     C_R   0.354531 0.504837 0.504244 -0.017890
C4    C     C_R   0.645179 0.487079 0.494569 -0.020834
C5    C     C_R   0.967936 0.430391 0.373620 0.016982
C6    C     C_R   0.030518 0.624686 0.606327 0.018244
C7    C     C_R   0.979003 0.625406 0.602478 0.017059
C8    C     C_R   0.019026 0.416990 0.392871 0.016548
C9    C     C_R   0.947889 0.529380 0.484005 0.033674
C10   C     C_R   0.050436 0.517163 0.505215 0.033586
C11   C     C_R   0.936360 0.348921 0.245532 -0.137919
C12   C     C_R   0.503487 0.746150 0.559806 0.563625
C13   C     C_R   0.062734 0.728681 0.707528 -0.135476
C14   C     C_R   0.885937 0.357226 0.230690 -0.005390
C15   C     C_R   0.113187 0.725444 0.715337 -0.009759
C16   C     C_R   0.407516 0.502181 0.501205 0.556988
C17   C     C_R   0.592416 0.496935 0.498466 0.557173
C18   C     C_R   0.039330 0.303158 0.306984 -0.155792
C19   C     C_R   0.957634 0.717980 0.714745 -0.153564
C20   C     C_2   0.494594 0.114008 0.406397 -0.102673
C21   C     C_2   0.505322 0.885987 0.593558 -0.104445
C22   C     C_2   0.500679 0.069675 0.516216 -0.139450
C23   C     C_R   0.101957 0.510385 0.514899 -0.049128
C24   C     C_2   0.499012 0.930297 0.483723 -0.134103
C25   C     C_2   0.505131 0.505205 0.079727 0.058608
C26   C     C_2   0.495443 0.492742 0.919510 0.050135
C27   C     C_R   0.172507 0.401614 0.419686 0.460045
C28   C     C_R   0.824221 0.626223 0.571207 0.479469
C29   C     C_R   0.184559 0.608025 0.620970 0.442395
C30   C     C_R   0.814500 0.456379 0.341837 0.405350
C31   C     C_R   0.272115 0.550476 0.418358 -0.001777
C32   C     C_R   0.713800 0.388096 0.376211 0.006486
C33   C     C_R   0.322353 0.550934 0.411225 -0.050450
C34   C     C_R   0.896417 0.532865 0.474660 -0.052085
C35   C     C_R   0.662959 0.395196 0.373239 -0.059742
C36   C     C_R   0.336083 0.460661 0.603639 -0.173851
C37   C     C_R   0.678341 0.557114 0.622529 -0.174745
C38   C     C_R   0.286195 0.458480 0.610787 0.049379
C39   C     C_R   0.728615 0.549418 0.623939 0.035868
C40   C     C_R   0.253952 0.503859 0.517166 0.224219
C41   C     C_R   0.746390 0.487267 0.488248 0.187410
C42   C     C_2   0.556960 0.657329 0.952426 0.382003
C43   C     C_2   0.441486 0.346819 0.048401 0.378298
C44   C     C_2   0.269717 0.407128 0.716923 0.302368
C45   C     C_R   0.121652 0.398638 0.418981 0.044355
C46   C     C_2   0.759817 0.585830 0.770917 0.337073
C47   C     C_2   0.105582 0.159009 0.241921 0.307786
C48   C     C_2   0.890264 0.812866 0.843701 0.304897
C49   C     C_1   0.629589 0.301094 0.251598 0.236646
C50   C     C_1   0.340635 0.603019 0.312269 0.236284
C51   C     C_1   0.731480 0.264567 0.289306 0.281259
C52   C     C_1   0.238628 0.598456 0.324822 0.255096
C53   C     C_1   0.856705 0.265209 0.097622 0.285275
C54   C     C_1   0.142184 0.838864 0.823616 0.285033
C55   C     C_R   0.875749 0.627536 0.587681 0.046901
C56   C     C_R   0.089562 0.290587 0.322553 0.014464
C57   C     C_R   0.907134 0.719063 0.710599 0.018927
C58   C     C_R   0.133653 0.615754 0.619302 0.020506
Cu1   Cu    Cu3+1 0.508480 0.521810 0.644910 0.981081
Cu2   Cu    Cu3+1 0.491520 0.478190 0.355090 1.008037
H1    H     H_    0.360836 0.425186 0.674724 0.122295
H2    H     H_    0.979745 0.786247 0.813413 0.095688
H3    H     H_    0.492568 0.863475 0.368540 0.188154
H4    H     H_    0.506988 0.136487 0.631403 0.184288
H5    H     H_    0.590349 0.667734 0.912213 0.120527
H6    H     H_    0.407435 0.342641 0.088051 0.129614
H7    H     H_    0.296552 0.378690 0.789959 0.106212
H8    H     H_    0.748323 0.657229 0.868074 0.135057
H9    H     H_    0.087018 0.101364 0.130905 0.090033
H10   H     H_    0.908075 0.910455 0.897768 0.089642
H11   H     H_    0.664972 0.612915 0.723863 0.119098
H12   H     H_    0.511807 0.953044 0.708554 0.142574
H13   H     H_    0.488253 0.046972 0.291394 0.144292
H14   H     H_    0.466055 0.425653 0.844111 0.171885
H15   H     H_    0.535224 0.570144 0.154241 0.176946
H16   H     H_    0.950417 0.280041 0.152530 0.109727
H17   H     H_    0.049463 0.817230 0.779283 0.106404
H18   H     H_    0.016230 0.217975 0.233776 0.095589
N1    N     N_R   0.202377 0.503414 0.521221 -0.377545
N2    N     N_1   0.165125 0.929876 0.910475 -0.182103
N3    N     N_R   0.796033 0.519498 0.469278 -0.378782
N4    N     N_2   0.478780 0.445430 0.137360 -0.261698
N5    N     N_2   0.521220 0.554570 0.862640 -0.267976
N6    N     N_1   0.602979 0.226055 0.154615 -0.241977
N7    N     N_1   0.355187 0.644590 0.233290 -0.262566
N8    N     N_1   0.745405 0.165636 0.220340 -0.218794
N9    N     N_1   0.211850 0.636696 0.250198 -0.218844
N10   N     N_1   0.833477 0.191346 0.991069 -0.198609
O1    O     O_R   0.504520 0.332330 0.577400 -0.507766
O2    O     O_2   0.802573 0.733779 0.646622 -0.440222
O3    O     O_2   0.784851 0.415771 0.209761 -0.458750
O4    O     O_2   0.216363 0.704323 0.719356 -0.449093
O5    O     O_2   0.548890 0.740950 0.067355 -0.536789
O6    O     O_2   0.448735 0.259879 0.934784 -0.540403
O7    O     O_2   0.226616 0.394682 0.724323 -0.444897
O8    O     O_2   0.797247 0.531276 0.786179 -0.441096
O9    O     O_2   0.136905 0.109968 0.302383 -0.405066
O10   O     O_2   0.859208 0.779686 0.900568 -0.414277
O11   O     O_R   0.495480 0.667670 0.422600 -0.501112
O12   O     O_R   0.490210 0.295500 0.332650 -0.479606
O13   O     O_R   0.509790 0.704500 0.667350 -0.486450
O14   O     O_R   0.437420 0.518430 0.622370 -0.503340
O15   O     O_R   0.562580 0.481570 0.377630 -0.495298
O16   O     O_R   0.423110 0.481600 0.377610 -0.511542
O17   O     O_R   0.576890 0.518400 0.622390 -0.522111
O18   O     O_2   0.192203 0.306924 0.316381 -0.420792

loop_
_geom_bond_atom_site_label_1
_geom_bond_atom_site_label_2
_ccdc_geom_bond_type
C23   C58   A    
C26   N5    D    
C23   C45   A    
C42   O5    D    
C31   C52   S    
Cu2   O11   S    
C48   C57   S    
C39   C41   A    
C19   C57   A    
C5    C9    A    
Cu1   O17   S    
C49   N6    T    
Cu1   N5    S    
C5    C11   A    
C27   N1    A    
C11   H16   S    
C11   C14   A    
C3    C33   A    
C19   H2    S    
C43   O6    D    
C31   C40   A    
C51   N8    T    
Cu1   O1    S    
C47   H9    S    
C12   O11   A    
C50   N7    T    
Cu2   N4    S    
C16   O16   A    
C45   C56   A    
C35   C49   S    
C42   H5    S    
C32   C41   A    
C31   C33   A    
Cu2   O15   S    
C18   C56   A    
C2    C34   A    
C4    C35   A    
Cu1   Cu2   S    
C1    O12   A    
C28   C55   A    
C38   C44   S    
C54   N2    T    
C13   H17   S    
C21   H12   S    
Cu1   O13   S    
C32   C35   A    
C27   O18   S    
C33   C50   S    
C12   C21   S    
C8    C18   A    
C25   H15   S    
C15   C54   S    
C32   C51   S    
C46   H8    S    
C17   O17   A    
C29   N1    A    
C18   H18   S    
C41   N3    S    
C40   N1    S    
C55   C57   A    
C4    C37   A    
C39   C46   S    
C4    C17   S    
C16   O14   A    
C20   C22   D    
C24   H3    S    
C7    C19   A    
C13   C15   A    
C25   N4    D    
C15   C58   A    
C22   C24   S    
C36   H1    S    
C7    C9    A    
C1    C20   S    
C1    O1    A    
C28   N3    A    
Cu1   O14   S    
C52   N9    T    
C42   N5    S    
C48   H10   S    
C30   O3    S    
Cu2   O12   S    
C6    C10   A    
C5    C8    A    
C6    C7    A    
C10   C23   A    
C48   O10   D    
C47   O9    D    
C2    C30   A    
C30   N3    A    
C37   H11   S    
C25   C26   S    
C12   O13   A    
C37   C39   A    
C44   O7    D    
C6    C13   A    
C38   C40   A    
C27   C45   A    
C9    C34   A    
C3    C36   A    
C43   H6    S    
C36   C38   A    
C26   H14   S    
C20   H13   S    
C53   N10   T    
C17   O15   A    
C2    C14   A    
C22   H4    S    
C34   C55   A    
C14   C53   S    
C46   O8    D    
C29   C58   A    
C8    C10   A    
C21   C24   D    
C43   N4    S    
C44   H7    S    
C28   O2    S    
Cu2   O16   S    
C29   O4    S    
C3    C16   S    
C47   C56   S    
