data_mof_unit_51949.cif
_audit_creation_date              2012-12-11T15:12:24-0500
_audit_creation_method            fapswitch 2.2
_symmetry_space_group_name_H-M    P1
_symmetry_Int_Tables_number       1
_space_group_crystal_system       triclinic
_cell_length_a                    31.161969
_cell_length_b                    22.567306
_cell_length_c                    18.01777
_cell_angle_alpha                 89.547709
_cell_angle_beta                  123.201521
_cell_angle_gamma                 90.119674
_cell_volume                      10601.9603029

loop_
_atom_site_label
_atom_site_type_symbol
_atom_type_description
_atom_site_fract_x
_atom_site_fract_y
_atom_site_fract_z
_atom_type_partial_charge
C1    C     C_R   0.535754 0.605367 0.715426 0.774062
C2    C     C_R   0.464247 0.394630 0.284578 0.774029
C3    C     C_R   0.464861 0.606553 0.285977 0.770262
C4    C     C_R   0.535141 0.393450 0.714028 0.770235
C5    C     C_R   0.035750 0.105374 0.715412 0.774037
C6    C     C_R   0.964247 0.894631 0.284577 0.774059
C7    C     C_R   0.964860 0.106552 0.285976 0.770235
C8    C     C_R   0.035140 0.893448 0.714025 0.770268
C9    C     C_R   0.744453 0.332124 0.479318 -0.217937
C10   C     C_R   0.255754 0.667928 0.521207 -0.217630
C11   C     C_R   0.239273 0.325763 0.448973 -0.251189
C12   C     C_R   0.760728 0.674252 0.551064 -0.251219
C13   C     C_R   0.244242 0.832068 0.478783 -0.217622
C14   C     C_R   0.755523 0.167863 0.520628 -0.217936
C15   C     C_R   0.739268 0.825763 0.448952 -0.251216
C16   C     C_R   0.260729 0.174231 0.551024 -0.251187
C17   C     C_R   0.735419 0.273869 0.498819 -0.051937
C18   C     C_R   0.264551 0.726119 0.501112 -0.051955
C19   C     C_R   0.264020 0.275446 0.504522 -0.046965
C20   C     C_R   0.735981 0.724558 0.495486 -0.046971
C21   C     C_R   0.235446 0.773877 0.498881 -0.051951
C22   C     C_R   0.764555 0.226119 0.501121 -0.051939
C23   C     C_R   0.764015 0.775458 0.504531 -0.046971
C24   C     C_R   0.235982 0.224549 0.495474 -0.046967
C25   C     C_R   0.697187 0.263217 0.515982 0.096990
C26   C     C_R   0.302516 0.736699 0.483282 0.096792
C27   C     C_R   0.316942 0.275749 0.568840 0.087858
C28   C     C_R   0.683063 0.724240 0.431145 0.087846
C29   C     C_R   0.197482 0.763298 0.516715 0.096781
C30   C     C_R   0.802787 0.236772 0.483956 0.096978
C31   C     C_R   0.816933 0.775776 0.568873 0.087843
C32   C     C_R   0.183060 0.224246 0.431156 0.087856
C33   C     C_R   0.783060 0.341256 0.462384 0.875605
C34   C     C_R   0.217416 0.658872 0.538811 0.875556
C35   C     C_R   0.186094 0.324153 0.385331 0.884611
C36   C     C_R   0.813904 0.675877 0.614731 0.884701
C37   C     C_R   0.282580 0.841125 0.461176 0.875554
C38   C     C_R   0.716908 0.158731 0.537543 0.875614
C39   C     C_R   0.686092 0.824140 0.385288 0.884706
C40   C     C_R   0.313908 0.175841 0.614664 0.884615
C41   C     C_R   0.311380 0.793595 0.463565 -0.373729
C42   C     C_R   0.688080 0.206254 0.535084 -0.373767
C43   C     C_R   0.658455 0.773549 0.376589 -0.369379
C44   C     C_R   0.341549 0.226429 0.623369 -0.369329
C45   C     C_R   0.811888 0.293734 0.464836 -0.373750
C46   C     C_R   0.188618 0.706402 0.536429 -0.373726
C47   C     C_R   0.158453 0.273565 0.376627 -0.369327
C48   C     C_R   0.841541 0.726468 0.623432 -0.369377
C49   C     C_R   0.398766 0.684578 0.190581 0.090637
C50   C     C_R   0.601236 0.315426 0.809428 0.090662
C51   C     C_R   0.602214 0.682185 0.811388 0.086072
C52   C     C_R   0.397785 0.317814 0.188612 0.086075
C53   C     C_R   0.898767 0.184578 0.190581 0.090658
C54   C     C_R   0.101234 0.815424 0.809423 0.090637
C55   C     C_R   0.102208 0.182200 0.811361 0.086079
C56   C     C_R   0.897788 0.817810 0.188621 0.086075
C57   C     C_R   0.396116 0.787656 0.152925 -0.024237
C58   C     C_R   0.603887 0.212347 0.847074 -0.024271
C59   C     C_R   0.602828 0.784057 0.850581 -0.026147
C60   C     C_R   0.397167 0.215942 0.149417 -0.026117
C61   C     C_R   0.896116 0.287659 0.152937 -0.024271
C62   C     C_R   0.103885 0.712347 0.847081 -0.024237
C63   C     C_R   0.102824 0.284076 0.850541 -0.026121
C64   C     C_R   0.897174 0.715937 0.149434 -0.026148
C65   C     C_R   0.422765 0.739726 0.208740 -0.234297
C66   C     C_R   0.577238 0.260278 0.791262 -0.234294
C67   C     C_R   0.576950 0.736474 0.794681 -0.221934
C68   C     C_R   0.423046 0.263524 0.205319 -0.221942
C69   C     C_R   0.922764 0.239727 0.208748 -0.234297
C70   C     C_R   0.077237 0.760276 0.791265 -0.234296
C71   C     C_R   0.076945 0.236490 0.794647 -0.221950
C72   C     C_R   0.923052 0.763522 0.205330 -0.221939
C73   C     C_R   0.349929 0.676695 0.115010 0.613491
C74   C     C_R   0.650072 0.323309 0.885004 0.613447
C75   C     C_R   0.651690 0.674675 0.885802 0.609299
C76   C     C_R   0.348310 0.325327 0.114195 0.609297
C77   C     C_R   0.849930 0.176696 0.115006 0.613457
C78   C     C_R   0.150072 0.823308 0.884995 0.613489
C79   C     C_R   0.151684 0.174693 0.885774 0.609309
C80   C     C_R   0.848311 0.825317 0.114210 0.609302
C81   C     C_R   0.318618 0.726922 0.074655 -0.151076
C82   C     C_R   0.681384 0.273083 0.925355 -0.151067
C83   C     C_R   0.681868 0.725371 0.926223 -0.148157
C84   C     C_R   0.318129 0.274632 0.073770 -0.148155
C85   C     C_R   0.818619 0.226924 0.074656 -0.151067
C86   C     C_R   0.181383 0.773081 0.925351 -0.151075
C87   C     C_R   0.181863 0.225390 0.926188 -0.148153
C88   C     C_R   0.818133 0.774620 0.073794 -0.148157
C89   C     C_R   0.644530 0.578318 0.567945 0.809932
C90   C     C_R   0.355470 0.421681 0.432058 0.809972
C91   C     C_R   0.355125 0.576836 0.430013 0.821793
C92   C     C_R   0.644869 0.423132 0.569966 0.821946
C93   C     C_R   0.144530 0.078316 0.567941 0.810007
C94   C     C_R   0.855469 0.921684 0.432056 0.809962
C95   C     C_R   0.855129 0.076864 0.430032 0.821982
C96   C     C_R   0.144875 0.923162 0.569986 0.821788
C97   C     C_R   0.343576 0.782012 0.087049 -0.215201
C98   C     C_R   0.656427 0.217991 0.912953 -0.215191
C99   C     C_R   0.655674 0.779317 0.915212 -0.216824
C100  C     C_R   0.344322 0.220685 0.084782 -0.216833
C101  C     C_R   0.843577 0.282015 0.087058 -0.215193
C102  C     C_R   0.156425 0.717991 0.912958 -0.215205
C103  C     C_R   0.155669 0.279337 0.915172 -0.216829
C104  C     C_R   0.844328 0.720675 0.084806 -0.216825
C105  C     C_R   0.264116 0.724678 0.025173 -0.278007
C106  C     C_R   0.735886 0.275328 0.974840 -0.278026
C107  C     C_R   0.736400 0.724718 0.974682 -0.279445
C108  C     C_R   0.263598 0.275289 0.025305 -0.279431
C109  C     C_R   0.764118 0.224678 0.025172 -0.278029
C110  C     C_R   0.235885 0.775326 0.974834 -0.278002
C111  C     C_R   0.236395 0.224735 0.974649 -0.279441
C112  C     C_R   0.763602 0.775272 0.025337 -0.279448
C113  C     C_R   0.763242 0.324932 0.972119 0.659932
C114  C     C_R   0.236760 0.675078 0.027903 0.659943
C115  C     C_R   0.235288 0.323092 0.029335 0.659608
C116  C     C_R   0.764710 0.676917 0.970647 0.659600
C117  C     C_R   0.263242 0.824926 0.972104 0.659939
C118  C     C_R   0.736761 0.175075 0.027893 0.659935
C119  C     C_R   0.735292 0.823073 0.029373 0.659606
C120  C     C_R   0.264703 0.176933 0.970615 0.659617
C121  C     C_R   0.815842 0.329798 0.032324 0.674266
C122  C     C_R   0.184160 0.670211 0.967700 0.674319
C123  C     C_R   0.182495 0.326847 0.970157 0.677062
C124  C     C_R   0.817503 0.673164 0.029821 0.677043
C125  C     C_R   0.315841 0.829792 0.032307 0.674318
C126  C     C_R   0.684162 0.170209 0.967689 0.674260
C127  C     C_R   0.682499 0.826826 0.970199 0.677036
C128  C     C_R   0.317496 0.173177 0.029792 0.677056
C129  C     C_R   0.594946 0.575935 0.422221 0.523249
C130  C     C_R   0.405056 0.424066 0.577782 0.523203
C131  C     C_R   0.404232 0.577956 0.575636 0.515107
C132  C     C_R   0.595756 0.422055 0.424342 0.515151
C133  C     C_R   0.094944 0.075932 0.422218 0.523206
C134  C     C_R   0.905055 0.924068 0.577780 0.523230
C135  C     C_R   0.904242 0.077944 0.575656 0.515098
C136  C     C_R   0.095767 0.922042 0.424363 0.515104
C137  C     C_R   0.393532 0.606862 0.287089 0.529398
C138  C     C_R   0.606472 0.393143 0.712921 0.529368
C139  C     C_R   0.606926 0.605873 0.713911 0.534505
C140  C     C_R   0.393073 0.394127 0.286088 0.534499
C141  C     C_R   0.893530 0.106859 0.287084 0.529371
C142  C     C_R   0.106469 0.893139 0.712914 0.529395
C143  C     C_R   0.106923 0.105880 0.713897 0.534524
C144  C     C_R   0.893075 0.894124 0.286094 0.534513
C145  C     C_R   0.581059 0.635178 0.746106 -0.370964
C146  C     C_R   0.418940 0.364821 0.253895 -0.370957
C147  C     C_R   0.419820 0.636934 0.255841 -0.368748
C148  C     C_R   0.580184 0.363072 0.744170 -0.368725
C149  C     C_R   0.081054 0.135188 0.746086 -0.370974
C150  C     C_R   0.918942 0.864819 0.253900 -0.370966
C151  C     C_R   0.919819 0.136932 0.255837 -0.368728
C152  C     C_R   0.080181 0.863068 0.744162 -0.368748
C153  C     C_R   0.643510 0.589187 0.491530 -0.447194
C154  C     C_R   0.356493 0.410813 0.508476 -0.447172
C155  C     C_R   0.355205 0.588472 0.504269 -0.453397
C156  C     C_R   0.644778 0.411519 0.495687 -0.453275
C157  C     C_R   0.143508 0.089183 0.491524 -0.447189
C158  C     C_R   0.856490 0.910818 0.508472 -0.447180
C159  C     C_R   0.855220 0.088476 0.504310 -0.453239
C160  C     C_R   0.144794 0.911524 0.495730 -0.453399
C161  C     C_R   0.668357 0.309810 0.514001 -0.151602
C162  C     C_R   0.331343 0.690107 0.485258 -0.150959
C163  C     C_R   0.345387 0.324178 0.574729 -0.191662
C164  C     C_R   0.654621 0.675808 0.425258 -0.191664
C165  C     C_R   0.168657 0.809890 0.514745 -0.150938
C166  C     C_R   0.831628 0.190183 0.485959 -0.151529
C167  C     C_R   0.845376 0.824205 0.574756 -0.191665
C168  C     C_R   0.154614 0.175817 0.425269 -0.191659
C169  C     C_R   0.677082 0.366946 0.495524 -0.026761
C170  C     C_R   0.322859 0.633032 0.504339 -0.026464
C171  C     C_R   0.322168 0.372207 0.516432 -0.091986
C172  C     C_R   0.677839 0.627791 0.483580 -0.092066
C173  C     C_R   0.177139 0.866965 0.495659 -0.026460
C174  C     C_R   0.822913 0.133048 0.504466 -0.026820
C175  C     C_R   0.822160 0.872220 0.516428 -0.092079
C176  C     C_R   0.177833 0.127789 0.483568 -0.091981
C177  C     C_R   0.714650 0.379401 0.477252 0.586065
C178  C     C_R   0.285517 0.620640 0.523174 0.585331
C179  C     C_R   0.268606 0.375489 0.457074 0.638731
C180  C     C_R   0.731400 0.624524 0.542967 0.638693
C181  C     C_R   0.214479 0.879356 0.476814 0.585295
C182  C     C_R   0.785338 0.120590 0.522725 0.586054
C183  C     C_R   0.768598 0.875489 0.457045 0.638695
C184  C     C_R   0.231396 0.124507 0.542925 0.638735
H1    H     H_    0.538605 0.254347 0.733975 0.168350
H2    H     H_    0.461399 0.745657 0.266024 0.168368
H3    H     H_    0.462152 0.257975 0.261518 0.172130
H4    H     H_    0.537843 0.742020 0.738485 0.172148
H5    H     H_    0.038602 0.754345 0.733981 0.168370
H6    H     H_    0.961398 0.245657 0.266035 0.168352
H7    H     H_    0.962160 0.757977 0.261524 0.172150
H8    H     H_    0.037838 0.242035 0.738451 0.172133
H9    H     H_    0.415527 0.829778 0.165047 0.201906
H10   H     H_    0.584477 0.170223 0.834945 0.201892
H11   H     H_    0.582446 0.825367 0.839569 0.201944
H12   H     H_    0.417548 0.174630 0.160429 0.201956
H13   H     H_    0.915527 0.329782 0.165067 0.201892
H14   H     H_    0.084474 0.670224 0.834959 0.201907
H15   H     H_    0.082442 0.325387 0.839525 0.201954
H16   H     H_    0.917557 0.674627 0.160447 0.201944
H17   H     H_    0.638617 0.301845 0.526971 0.121052
H18   H     H_    0.360906 0.698032 0.471846 0.120970
H19   H     H_    0.386743 0.322099 0.620285 0.183842
H20   H     H_    0.613266 0.677879 0.379682 0.183875
H21   H     H_    0.139096 0.801965 0.528164 0.120966
H22   H     H_    0.861367 0.198149 0.472985 0.121033
H23   H     H_    0.886731 0.822134 0.620332 0.183886
H24   H     H_    0.113259 0.177897 0.379713 0.183847
H25   H     H_    0.340753 0.801328 0.449849 0.177085
H26   H     H_    0.658496 0.198462 0.548268 0.177116
H27   H     H_    0.617489 0.773149 0.327465 0.191123
H28   H     H_    0.382518 0.226818 0.672475 0.191103
H29   H     H_    0.841469 0.301526 0.451641 0.177112
H30   H     H_    0.159245 0.698669 0.550146 0.177084
H31   H     H_    0.117484 0.273176 0.327520 0.191104
H32   H     H_    0.882506 0.726869 0.672557 0.191125
N1    N     N_R   0.532970 0.559900 0.665210 -0.156989
N2    N     N_R   0.467030 0.440100 0.334790 -0.156980
N3    N     N_R   0.467030 0.559900 0.334790 -0.155205
N4    N     N_R   0.532970 0.440100 0.665210 -0.155210
N5    N     N_R   0.032970 0.059900 0.665210 -0.156975
N6    N     N_R   0.967030 0.940100 0.334790 -0.156987
N7    N     N_R   0.967030 0.059900 0.334790 -0.155207
N8    N     N_R   0.032970 0.940100 0.665210 -0.155205
N9    N     N_R   0.597900 0.559930 0.545530 -0.179301
N10   N     N_R   0.402100 0.440070 0.454470 -0.179318
N11   N     N_R   0.402100 0.559930 0.454470 -0.186256
N12   N     N_R   0.597900 0.440070 0.545530 -0.186262
N13   N     N_R   0.097900 0.059930 0.545530 -0.179319
N14   N     N_R   0.902100 0.940070 0.454470 -0.179307
N15   N     N_R   0.902100 0.059930 0.454470 -0.186275
N16   N     N_R   0.097900 0.940070 0.545530 -0.186256
N17   N     N_R   0.567170 0.559950 0.454460 -0.152534
N18   N     N_R   0.432830 0.440050 0.545540 -0.152549
N19   N     N_R   0.432830 0.559950 0.545540 -0.150905
N20   N     N_R   0.567170 0.440050 0.454460 -0.150957
N21   N     N_R   0.067170 0.059950 0.454460 -0.152550
N22   N     N_R   0.932830 0.940050 0.545540 -0.152534
N23   N     N_R   0.932830 0.059950 0.545540 -0.150949
N24   N     N_R   0.067170 0.940050 0.454460 -0.150904
N25   N     N_R   0.421470 0.559970 0.334770 -0.124369
N26   N     N_R   0.578530 0.440030 0.665230 -0.124383
N27   N     N_R   0.578530 0.559970 0.665230 -0.125963
N28   N     N_R   0.421470 0.440030 0.334770 -0.125961
N29   N     N_R   0.921470 0.059970 0.334770 -0.124381
N30   N     N_R   0.078530 0.940030 0.665230 -0.124371
N31   N     N_R   0.078530 0.059970 0.665230 -0.125955
N32   N     N_R   0.921470 0.940030 0.334770 -0.125963
Ni1   Ni    Ni4+2 0.483030 0.500000 0.604430 0.290388
Ni2   Ni    Ni4+2 0.516970 0.500000 0.395570 0.290365
Ni3   Ni    Ni4+2 0.983030 0.000000 0.604430 0.290362
Ni4   Ni    Ni4+2 0.016970 0.000000 0.395570 0.290386
Ni5   Ni    Ni4+2 0.587400 0.500000 0.604430 0.333230
Ni6   Ni    Ni4+2 0.412600 0.500000 0.395570 0.333240
Ni7   Ni    Ni4+2 0.087400 0.000000 0.604430 0.333240
Ni8   Ni    Ni4+2 0.912600 0.000000 0.395570 0.333231
F1    F     F_    0.503549 0.615500 0.742078 -0.621436
F2    F     F_    0.496457 0.384489 0.257939 -0.621468
F3    F     F_    0.497906 0.617966 0.261292 -0.635336
F4    F     F_    0.502094 0.382036 0.738711 -0.635343
F5    F     F_    0.003540 0.115519 0.742050 -0.621472
F6    F     F_    0.996451 0.884497 0.257925 -0.621440
F7    F     F_    0.997908 0.117967 0.261295 -0.635348
F8    F     F_    0.002094 0.882035 0.738709 -0.635338
O1    O     O_3   0.664569 0.379872 0.918469 -0.640421
H33   H     H_    0.691074 0.376520 0.982864 0.336021
O2    O     O_3   0.335430 0.620131 0.081550 -0.640381
H34   H     H_    0.308924 0.623481 0.017155 0.336070
O3    O     O_3   0.332197 0.382103 0.081431 -0.638015
H35   H     H_    0.305372 0.379359 0.017196 0.336094
O4    O     O_3   0.667807 0.617899 0.918567 -0.638039
H36   H     H_    0.694633 0.620645 0.982800 0.336069
O5    O     O_3   0.164571 0.879872 0.918454 -0.640384
H37   H     H_    0.191077 0.876522 0.982849 0.336071
O6    O     O_3   0.835433 0.120134 0.081539 -0.640428
H38   H     H_    0.808928 0.123487 0.017144 0.336016
O7    O     O_3   0.832192 0.882092 0.081442 -0.638045
H39   H     H_    0.805365 0.879345 0.017209 0.336063
O8    O     O_3   0.167802 0.117918 0.918546 -0.638024
H40   H     H_    0.194629 0.120667 0.982778 0.336088
F9    F     F_    0.740341 0.367976 0.909212 -0.568894
F10   F     F_    0.259661 0.632037 0.090817 -0.568892
F11   F     F_    0.257487 0.365329 0.092585 -0.568308
F12   F     F_    0.742511 0.634680 0.907399 -0.568305
F13   F     F_    0.240340 0.867967 0.909190 -0.568896
F14   F     F_    0.759662 0.132030 0.090801 -0.568892
F15   F     F_    0.757491 0.865309 0.092623 -0.568303
F16   F     F_    0.242504 0.134697 0.907365 -0.568302
F17   F     F_    0.688014 0.569446 0.648839 -0.547040
F18   F     F_    0.311984 0.430552 0.351167 -0.547007
F19   F     F_    0.311982 0.564879 0.350152 -0.547824
F20   F     F_    0.688022 0.435071 0.649821 -0.547848
F21   F     F_    0.188017 0.069443 0.648832 -0.546996
F22   F     F_    0.811985 0.930556 0.351162 -0.547025
F23   F     F_    0.811978 0.064924 0.350177 -0.547828
F24   F     F_    0.188017 0.935118 0.649847 -0.547827
O9    O     O_3   0.581323 0.562029 0.337712 -0.608836
H41   H     H_    0.611472 0.568516 0.333712 0.338844
O10   O     O_3   0.418679 0.437976 0.662290 -0.608774
H42   H     H_    0.388532 0.431480 0.666295 0.338936
O11   O     O_3   0.417629 0.568279 0.661240 -0.600900
H43   H     H_    0.388313 0.580187 0.665081 0.335128
O12   O     O_3   0.582359 0.431766 0.338745 -0.600912
H44   H     H_    0.611690 0.419911 0.334913 0.334871
O13   O     O_3   0.081321 0.062021 0.337709 -0.608775
H45   H     H_    0.111468 0.068514 0.333705 0.338938
O14   O     O_3   0.918679 0.937976 0.662290 -0.608849
H46   H     H_    0.888529 0.931496 0.666289 0.338832
O15   O     O_3   0.917640 0.068237 0.661255 -0.600928
H47   H     H_    0.888311 0.080101 0.665088 0.334817
O16   O     O_3   0.082370 0.931719 0.338759 -0.600903
H48   H     H_    0.111685 0.919807 0.334917 0.335129
O17   O     O_3   0.346423 0.620879 0.271439 -0.602888
H49   H     H_    0.338213 0.662208 0.249088 0.326298
O18   O     O_3   0.653584 0.379132 0.728582 -0.602788
H50   H     H_    0.661799 0.337806 0.750944 0.326355
O19   O     O_3   0.654054 0.619695 0.729575 -0.589588
H51   H     H_    0.662205 0.660923 0.751332 0.330508
O20   O     O_3   0.345943 0.380308 0.270419 -0.589586
H52   H     H_    0.337789 0.339081 0.248657 0.330509
O21   O     O_3   0.846418 0.120872 0.271425 -0.602801
H53   H     H_    0.838207 0.162199 0.249071 0.326348
O22   O     O_3   0.153578 0.879123 0.728565 -0.602884
H54   H     H_    0.161790 0.837795 0.750920 0.326301
O23   O     O_3   0.154047 0.119707 0.729551 -0.589619
H55   H     H_    0.162194 0.160938 0.751297 0.330498
O24   O     O_3   0.845949 0.880300 0.270435 -0.589597
H56   H     H_    0.837801 0.839070 0.248686 0.330504
O25   O     O_3   0.723087 0.436080 0.457837 -0.658462
H57   H     H_    0.698182 0.464325 0.455549 0.313967
O26   O     O_3   0.277259 0.564013 0.543043 -0.658635
H58   H     H_    0.301949 0.535696 0.544748 0.314134
O27   O     O_3   0.244654 0.425418 0.405769 -0.578953
H59   H     H_    0.268293 0.459571 0.431244 0.352309
O28   O     O_3   0.755356 0.574607 0.594303 -0.578703
H60   H     H_    0.731722 0.540448 0.568843 0.352533
O29   O     O_3   0.222733 0.935983 0.456935 -0.658615
H61   H     H_    0.198041 0.964299 0.455233 0.314122
O30   O     O_3   0.776898 0.063910 0.542141 -0.658354
H62   H     H_    0.801866 0.035683 0.544571 0.313875
O31   O     O_3   0.744645 0.925404 0.405707 -0.578676
H63   H     H_    0.768279 0.959562 0.431174 0.352573
O32   O     O_3   0.255347 0.074578 0.594231 -0.578952
H64   H     H_    0.231707 0.040425 0.568757 0.352311
F25   F     F_    0.793385 0.395753 0.443486 -0.613976
F26   F     F_    0.207335 0.604442 0.558326 -0.614105
F27   F     F_    0.160473 0.370799 0.330557 -0.586845
F28   F     F_    0.839525 0.629244 0.669533 -0.586730
F29   F     F_    0.292658 0.895554 0.441656 -0.614101
F30   F     F_    0.706583 0.104233 0.556440 -0.613965
F31   F     F_    0.660470 0.870774 0.330489 -0.586723
F32   F     F_    0.339529 0.129195 0.669438 -0.586845
F33   F     F_    0.839945 0.380576 0.034308 -0.591714
F34   F     F_    0.160056 0.619436 0.965724 -0.591697
F35   F     F_    0.157348 0.376169 0.969494 -0.589467
F36   F     F_    0.842651 0.623844 0.030480 -0.589473
F37   F     F_    0.339945 0.880568 0.034283 -0.591702
F38   F     F_    0.660058 0.119430 0.965705 -0.591715
F39   F     F_    0.657351 0.876146 0.969541 -0.589473
F40   F     F_    0.342643 0.123855 0.030452 -0.589464

loop_
_geom_bond_atom_site_label_1
_geom_bond_atom_site_label_2
_ccdc_geom_bond_type
C105  C110  A    
C18   C21   A    
C33   C45   A    
C107  C112  A    
C30   C45   A    
C92   C156  A    
C103  C123  A    
C79   C87   A    
O29   H61   S    
C37   F29   S    
C61   C69   A    
O11   H43   S    
C39   F31   S    
C133  N21   A    
C170  C178  A    
C86   C110  A    
C137  O17   S    
N30   Ni7   S    
C51   C145  S    
O4    H36   S    
C4    C148  A    
C5    C149  A    
C62   C70   A    
C164  H20   S    
N8    Ni3   S    
C126  F38   S    
C114  F10   S    
C68   H3    S    
C56   C72   A    
C45   H29   S    
C168  H24   S    
C71   H8    S    
C8    F8    S    
C43   H27   S    
C72   H7    S    
C137  N25   A    
C127  F39   S    
C53   C69   A    
C4    F4    S    
N28   Ni6   S    
C5    F5    S    
C134  N22   A    
C38   F30   S    
C73   C81   A    
C14   C182  A    
N17   Ni2   S    
C166  C174  A    
C115  C123  A    
O22   H54   S    
C84   C100  A    
C61   H13   S    
C54   C152  S    
N5    N31   A    
C59   H11   S    
O27   H59   S    
C21   C29   A    
N3    N25   A    
C140  N28   A    
C23   C31   A    
C24   C32   A    
C14   C38   A    
C180  O28   S    
C7    N7    A    
O12   H44   S    
C54   C70   A    
C163  H19   S    
C76   O3    S    
C12   C20   A    
C120  C128  A    
C13   C21   A    
C96   C160  A    
N15   Ni8   S    
C132  N20   A    
C15   C39   A    
C144  O24   S    
C16   C40   A    
C87   C103  A    
C63   C71   A    
C31   C48   A    
C64   H16   S    
C80   O7    S    
C91   F19   S    
C32   C47   A    
C49   C73   A    
C11   C179  A    
N2    Ni2   S    
N13   N21   A    
N10   N18   A    
C9    C177  A    
C175  C183  A    
C176  C184  A    
C52   C146  S    
C90   N10   A    
N20   Ni2   S    
C60   C100  A    
C16   C184  A    
C130  O10   S    
C85   C109  A    
N27   Ni5   S    
C108  C111  A    
C17   C25   A    
C11   C35   A    
N9    N17   A    
C80   C88   A    
C10   C18   A    
C3    F3    S    
C129  O9    S    
C177  O25   S    
C135  O15   S    
O28   H60   S    
C143  C149  A    
N9    Ni5   S    
O21   H53   S    
C129  N17   A    
C2    N2    A    
C168  C176  A    
C165  H21   S    
C55   C71   A    
C139  O19   S    
N6    Ni4   S    
N7    Ni4   S    
C34   F26   S    
C3    C147  A    
C160  C173  S    
C77   O6    S    
C1    C145  A    
C58   C98   A    
C174  C182  A    
C96   F24   S    
C128  F40   S    
C142  N30   A    
C162  H18   S    
C95   C159  A    
C108  C115  A    
C8    C152  A    
C40   F32   S    
C50   C74   A    
C29   C165  A    
C144  C150  A    
C27   C163  A    
C27   C44   A    
C25   C161  A    
N3    Ni2   S    
C141  N29   A    
C7    F7    S    
C34   C46   A    
N2    N28   A    
C139  N27   A    
C161  C169  A    
C77   C85   A    
O7    H39   S    
C171  C179  A    
N16   Ni7   S    
N1    Ni1   S    
C169  C177  A    
C88   C104  A    
C55   C149  S    
C81   C105  A    
C106  C113  A    
C122  F34   S    
C181  O29   S    
C115  F11   S    
C15   C183  A    
C35   F27   S    
C61   C101  A    
C142  O22   S    
C20   C23   A    
C57   C65   A    
C92   F20   S    
C93   F21   S    
C6    F6    S    
C51   C67   A    
C60   C68   A    
C3    N3    A    
C12   C180  A    
C13   C181  A    
C164  C172  A    
C56   C150  S    
C86   C102  A    
C94   N14   A    
C119  F15   S    
C89   F17   S    
C64   C104  A    
C65   H2    S    
C22   C30   A    
C134  C158  A    
C100  C128  A    
C131  O11   S    
C52   C76   A    
C8    N8    A    
C69   H6    S    
C183  O31   S    
O2    H34   S    
N8    N30   A    
C56   C80   A    
C14   C22   A    
C135  N23   A    
C129  C153  A    
C32   C168  A    
C153  C172  S    
C132  C156  A    
C154  C171  S    
C36   C48   A    
C133  C157  A    
C82   C106  A    
C37   C41   A    
C107  C116  A    
C123  F35   S    
C157  C176  S    
N12   Ni5   S    
C136  C160  A    
C158  C175  S    
C40   C44   A    
C113  C121  A    
C53   C151  S    
N26   Ni5   S    
C141  O21   S    
C6    N6    A    
C35   C47   A    
N4    Ni1   S    
C117  F13   S    
C62   C102  A    
C106  C109  A    
C119  C127  A    
C82   C98   A    
O6    H38   S    
C18   C26   A    
O16   H48   S    
C76   C84   A    
C138  O18   S    
C62   H14   S    
C60   H12   S    
N7    N29   A    
C11   C19   A    
C167  C175  A    
C95   N15   A    
N14   Ni8   S    
C74   O1    S    
C87   C111  A    
C50   C148  S    
C110  C117  A    
C120  F16   S    
O9    H41   S    
C142  C152  A    
N13   Ni7   S    
N6    N32   A    
C4    N4    A    
C159  C174  S    
C47   H31   S    
C109  C118  A    
O8    H40   S    
N21   Ni4   S    
C90   C154  A    
C163  C171  A    
C42   H26   S    
C172  C180  A    
C173  C181  A    
O18   H50   S    
C94   C158  A    
C83   C99   A    
O3    H35   S    
C9    C33   A    
C74   C82   A    
N18   Ni1   S    
N11   Ni6   S    
C1    F1    S    
O14   H46   S    
C135  C159  A    
C97   C125  A    
C140  C146  A    
C99   C127  A    
O15   H47   S    
N4    N26   A    
C58   H10   S    
C101  C121  A    
C95   F23   S    
C53   C77   A    
O26   H58   S    
C55   C79   A    
O30   H62   S    
C162  C170  A    
C7    C151  A    
C136  O16   S    
C63   C103  A    
N24   Ni4   S    
C116  F12   S    
C67   H4    S    
C140  O20   S    
C116  C124  A    
C91   N11   A    
C137  C147  A    
C89   N9    A    
C130  N18   A    
C25   C42   A    
C112  C119  A    
C179  O27   S    
C20   C28   A    
C28   C43   A    
C17   C22   A    
C29   C46   A    
C131  N19   A    
C94   F22   S    
C131  C155  A    
C19   C24   A    
O24   H56   S    
C155  C170  S    
C75   C83   A    
O17   H49   S    
C75   O4    S    
C90   F18   S    
C84   C108  A    
C26   C162  A    
O23   H55   S    
C118  F14   S    
O20   H52   S    
C88   C112  A    
C98   C126  A    
C92   N12   A    
C79   O8    S    
O13   H45   S    
C66   H1    S    
C81   C97   A    
C1    N1    A    
C166  H22   S    
C102  C122  A    
C130  C154  A    
C70   H5    S    
C113  F9    S    
C54   C78   A    
N31   Ni7   S    
C5    N5    A    
O32   H64   S    
C48   H32   S    
C33   F25   S    
N22   Ni3   S    
C59   C99   A    
O25   H57   S    
O10   H42   S    
C178  O26   S    
C49   C65   A    
C161  H17   S    
C51   C75   A    
C38   C42   A    
C124  F36   S    
C165  C173  A    
C156  C169  S    
C49   C147  S    
N15   N23   A    
C73   O2    S    
C58   C66   A    
N5    Ni3   S    
C83   C107  A    
C46   H30   S    
C12   C36   A    
C19   C27   A    
O1    H33   S    
C13   C37   A    
C138  N26   A    
C59   C67   A    
C78   C86   A    
C15   C23   A    
C57   C97   A    
C16   C24   A    
C125  F37   S    
N29   Ni8   S    
N23   Ni3   S    
C10   C178  A    
C105  C114  A    
C96   N16   A    
C121  F33   S    
C30   C166  A    
C138  C148  A    
C39   C43   A    
C132  O12   S    
C57   H9    S    
C111  C120  A    
C44   H28   S    
C167  H23   S    
N1    N27   A    
C91   C155  A    
C134  O14   S    
C89   C153  A    
O5    H37   S    
C10   C34   A    
C6    C150  A    
C93   C157  A    
C50   C66   A    
C133  O13   S    
C9    C17   A    
C182  O30   S    
C2    F2    S    
C28   C164  A    
C144  N32   A    
C143  O23   S    
N14   N22   A    
N19   Ni1   S    
C143  N31   A    
C85   C101  A    
C141  C151  A    
C93   N13   A    
C139  C145  A    
C184  O32   S    
C31   C167  A    
C52   C68   A    
N32   Ni8   S    
C2    C146  A    
N11   N19   A    
C36   F28   S    
C136  N24   A    
C41   H25   S    
C117  C125  A    
C63   H15   S    
C64   C72   A    
O19   H51   S    
N12   N20   A    
C114  C122  A    
N10   Ni6   S    
N16   N24   A    
O31   H63   S    
N25   Ni6   S    
C118  C126  A    
C78   O5    S    
C104  C124  A    
C26   C41   A    
