data_mof_unit_53333.cif
_audit_creation_date              2012-12-11T17:37:52-0500
_audit_creation_method            fapswitch 2.2
_symmetry_space_group_name_H-M    P1
_symmetry_Int_Tables_number       1
_space_group_crystal_system       triclinic
_cell_length_a                    12.981832
_cell_length_b                    13.040674
_cell_length_c                    15.307388
_cell_angle_alpha                 116.171875
_cell_angle_beta                  64.346821
_cell_angle_gamma                 96.66412
_cell_volume                      2087.48226973

loop_
_atom_site_label
_atom_site_type_symbol
_atom_type_description
_atom_site_fract_x
_atom_site_fract_y
_atom_site_fract_z
_atom_type_partial_charge
C1    C     C_R   0.020432 0.834176 0.032686 -0.124264
C2    C     C_R   0.704585 0.439335 0.306360 0.056009
C3    C     C_R   0.638013 0.560009 0.020377 0.146466
C4    C     C_R   0.986683 0.824787 0.322009 0.061274
C5    C     C_R   0.324047 0.575400 0.007525 -0.137738
C6    C     C_R   0.901128 0.203924 0.792221 -0.003576
C7    C     C_R   0.216404 0.447754 0.685575 -0.109624
C8    C     C_R   0.092351 0.251223 0.051093 -0.275459
C9    C     C_R   0.994108 0.166808 0.954753 0.719125
C10   C     C_R   0.319424 0.538524 0.780592 -0.160129
C11   C     C_R   0.245880 0.476797 0.104533 -0.166950
C12   C     C_R   0.701479 0.407009 0.209212 -0.159540
C13   C     C_R   0.983897 0.303740 0.698249 -0.162911
C14   C     C_R   0.338970 0.535319 0.070505 0.167926
C15   C     C_R   0.922899 0.211919 0.699558 -0.014116
C16   C     C_R   0.324676 0.473431 0.678814 0.054283
C17   C     C_R   0.076165 0.144398 0.981429 -0.060535
C18   C     C_R   0.299179 0.740783 0.345753 -0.104062
C19   C     C_R   0.189305 0.791639 0.385899 -0.115066
C20   C     C_R   0.175655 0.896529 0.385329 0.131983
C21   C     C_R   0.273249 0.948164 0.341469 -0.177265
C22   C     C_R   0.382982 0.896271 0.300167 -0.107129
C23   C     C_R   0.739321 0.577674 0.947205 -0.156098
C24   C     C_R   0.395883 0.793630 0.303900 -0.071585
C25   C     C_R   0.041525 0.058933 0.538072 -0.213470
C26   C     C_R   0.932310 0.117123 0.603295 0.075047
C27   C     C_R   0.838561 0.080594 0.577914 0.021976
C28   C     C_R   0.858676 0.981501 0.483349 -0.242428
C29   C     C_R   0.968731 0.923324 0.418714 0.057537
C30   C     C_R   0.060929 0.960805 0.445671 -0.001998
C31   C     C_R   0.624509 0.082958 0.673496 -0.163097
C32   C     C_R   0.514809 0.141626 0.739287 -0.108510
C33   C     C_R   0.500864 0.260844 0.779634 -0.085039
C34   C     C_R   0.960698 0.717767 0.315710 -0.146116
C35   C     C_R   0.596554 0.321595 0.753934 -0.120156
C36   C     C_R   0.706236 0.263254 0.687894 -0.120345
C37   C     C_R   0.721714 0.143256 0.647526 0.121131
C38   C     C_R   0.919396 0.269684 0.367614 -0.104920
C39   C     C_R   0.813443 0.295909 0.375170 -0.139375
C40   C     C_R   0.738118 0.388140 0.466766 0.123992
C41   C     C_R   0.770527 0.453798 0.550871 -0.173660
C42   C     C_R   0.876706 0.427765 0.542806 -0.142195
C43   C     C_R   0.950721 0.335219 0.451578 -0.101764
C44   C     C_R   0.527616 0.426363 0.567309 -0.243221
C45   C     C_R   0.662403 0.481546 0.047451 -0.112421
C46   C     C_R   0.421113 0.460772 0.582249 0.065962
C47   C     C_R   0.408426 0.486426 0.506996 0.014807
C48   C     C_R   0.503371 0.467866 0.413076 -0.243537
C49   C     C_R   0.610726 0.434620 0.397695 0.068651
C50   C     C_R   0.624996 0.415921 0.475975 0.017455
C51   C     C_R   0.251751 0.492542 0.454247 -0.201291
C52   C     C_R   0.151573 0.545428 0.473233 -0.144375
C53   C     C_R   0.100237 0.648263 0.565093 -0.103039
C54   C     C_R   0.150020 0.699495 0.637275 -0.096861
C55   C     C_R   0.250853 0.647588 0.618076 -0.132153
C56   C     C_R   0.049175 0.818042 0.220242 -0.121084
C57   C     C_R   0.301610 0.542557 0.527220 0.127604
C58   C     C_2   0.434670 0.553190 0.097012 -0.189385
C59   C     C_2   0.525107 0.598823 0.046683 -0.218200
C60   C     C_2   0.883650 0.963656 0.034468 -0.127307
C61   C     C_2   0.870817 0.054179 0.126165 -0.215800
C62   C     C_R   0.800056 0.496556 0.306520 -0.120991
C63   C     C_R   0.924339 0.748867 0.932660 -0.145491
C64   C     C_R   0.944846 0.854356 0.998402 0.123916
H1    H     H_    0.060748 0.898335 0.078142 0.089054
H2    H     H_    0.846591 0.145711 0.820735 0.153721
H3    H     H_    0.190977 0.401797 0.620718 0.104884
H4    H     H_    0.150324 0.267049 0.088350 0.144876
H5    H     H_    0.388355 0.577162 0.802179 0.097490
H6    H     H_    0.224724 0.447085 0.165554 0.091617
H7    H     H_    0.009420 0.337486 0.639493 0.103384
H8    H     H_    0.480873 0.754709 0.273915 0.114801
H9    H     H_    0.309546 0.661048 0.348096 0.119966
H10   H     H_    0.115093 0.751855 0.421339 0.104667
H11   H     H_    0.643657 0.351253 0.179928 0.099693
H12   H     H_    0.264167 0.029972 0.341958 0.109539
H13   H     H_    0.457977 0.936821 0.267323 0.113083
H14   H     H_    0.111295 0.088351 0.561870 0.146936
H15   H     H_    0.789750 0.950205 0.458963 0.136017
H16   H     H_    0.633631 0.990696 0.643951 0.111766
H17   H     H_    0.440559 0.094606 0.759266 0.114807
H18   H     H_    0.415957 0.306101 0.830656 0.120728
H19   H     H_    0.585754 0.413934 0.784907 0.106633
H20   H     H_    0.778809 0.311876 0.668024 0.122920
H21   H     H_    0.032504 0.314533 0.445788 0.103091
H22   H     H_    0.746566 0.624298 0.902050 0.088196
H23   H     H_    0.977430 0.198670 0.296793 0.100676
H24   H     H_    0.789391 0.244749 0.310275 0.125275
H25   H     H_    0.713941 0.525601 0.622312 0.106618
H26   H     H_    0.901149 0.478737 0.607745 0.114356
H27   H     H_    0.534640 0.409019 0.627729 0.136861
H28   H     H_    0.494917 0.489671 0.355571 0.127958
H29   H     H_    0.290029 0.412353 0.383176 0.110555
H30   H     H_    0.113860 0.506837 0.416556 0.119332
H31   H     H_    0.022324 0.688653 0.579909 0.107216
H32   H     H_    0.110628 0.779595 0.708014 0.135100
H33   H     H_    0.921338 0.692737 0.380756 0.096681
H34   H     H_    0.288950 0.688722 0.674304 0.112652
H35   H     H_    0.437692 0.509974 0.142281 0.114615
H36   H     H_    0.520695 0.646534 0.005568 0.125323
H37   H     H_    0.839191 0.968127 0.990228 0.179419
H38   H     H_    0.908602 0.052581 0.176374 0.133285
H39   H     H_    0.604977 0.442709 0.097462 0.086003
H40   H     H_    0.093496 0.885093 0.199699 0.088904
H41   H     H_    0.832295 0.525992 0.367065 0.104317
H42   H     H_    0.878595 0.734746 0.884688 0.093788
H43   H     H_    0.370323 0.637381 0.979747 0.086342
N1    N     N_R   0.037320 0.720000 0.995830 -0.044192
N2    N     N_R   0.946240 0.290870 0.848020 -0.049897
N3    N     N_R   0.146160 0.501170 0.788610 -0.041726
N4    N     N_R   0.025750 0.332680 0.063570 -0.067017
N5    N     N_R   0.962680 0.280000 0.004170 -0.109774
N6    N     N_R   0.209230 0.553860 0.848010 -0.040028
N7    N     N_R   0.175100 0.482030 0.063570 -0.036732
N8    N     N_R   0.996810 0.351820 0.788610 -0.044223
N9    N     N_R   0.790770 0.446140 0.151990 -0.041855
N10   N     N_R   0.824900 0.517970 0.936430 -0.040575
N11   N     N_R   0.003190 0.648180 0.211390 -0.036035
N12   N     N_R   0.774330 0.457010 0.995830 -0.048726
N13   N     N_R   0.053760 0.709130 0.151980 -0.037919
N14   N     N_R   0.853840 0.498830 0.211390 -0.038476
N15   N     N_R   0.974250 0.667320 0.936430 -0.039245
N16   N     N_R   0.225670 0.542990 0.004170 -0.044818
Ni1   Ni    Ni4+2 0.130310 0.630310 0.000000 0.208072
Ni2   Ni    Ni4+2 0.869690 0.369690 0.000000 0.224866
Ni3   Ni    Ni4+2 0.985660 0.509480 0.863750 0.207889
Ni4   Ni    Ni4+2 0.014340 0.490520 0.136250 0.206536
F1    F     F_    0.952880 0.086116 0.888278 -0.760136

loop_
_geom_bond_atom_site_label_1
_geom_bond_atom_site_label_2
_ccdc_geom_bond_type
C34   N11   A    
C41   H25   S    
C53   H31   S    
C41   C42   A    
C3    C23   A    
N4    N5    A    
C2    C12   A    
C11   H6    S    
N16   Ni1   S    
C62   H41   S    
C20   C30   S    
C53   C54   A    
C32   H17   S    
C21   H12   S    
C28   C29   A    
C26   C27   A    
N8    Ni3   S    
C18   C24   A    
C36   C37   A    
C36   H20   S    
N14   Ni4   S    
N10   N12   A    
C38   C39   A    
C11   C14   A    
C44   C50   A    
C34   H33   S    
C31   C32   A    
C18   C19   A    
C28   H15   S    
C11   N7    A    
C45   H39   S    
C6    C15   A    
C54   C55   A    
C35   C36   A    
C23   H22   S    
C1    H1    S    
C52   H30   S    
C51   C57   A    
N10   Ni3   S    
C54   H32   S    
C4    C29   S    
C45   N12   A    
C9    N5    A    
C21   C22   A    
C4    C56   A    
C59   H36   S    
C56   N13   A    
C39   H24   S    
N1    Ni1   S    
C44   C46   A    
C14   C58   S    
C4    C34   A    
C9    F1    S    
N9    N14   A    
C51   C52   A    
C43   H21   S    
C31   H16   S    
C56   H40   S    
C8    N4    A    
C16   C46   S    
C39   C40   A    
C35   H19   S    
C15   C26   S    
C13   H7    S    
C58   C59   D    
C25   H14   S    
C3    C45   A    
C31   C37   A    
C60   C61   D    
C42   H26   S    
N15   Ni3   S    
C29   C30   A    
C2    C49   S    
C47   C57   S    
C47   C48   A    
C5    C14   A    
C63   H42   S    
C10   N6    A    
N3    N6    A    
N5    Ni2   S    
C13   N8    A    
C44   H27   S    
C51   H29   S    
N7    N16   A    
N12   Ni2   S    
N2    Ni2   S    
C40   C41   A    
N3    Ni3   S    
C8    H4    S    
C18   H9    S    
N9    Ni2   S    
C13   C15   A    
N4    Ni4   S    
C6    N2    A    
C22   C24   A    
C42   C43   A    
C60   H37   S    
C1    C64   A    
C63   N15   A    
C52   C53   A    
C24   H8    S    
C5    H43   S    
C9    C17   A    
C25   C30   A    
C46   C47   A    
C48   C49   A    
C19   H10   S    
C7    C16   A    
C58   H35   S    
C22   H13   S    
N1    N15   A    
C23   N10   A    
C5    N16   A    
C8    C17   A    
C7    N3    A    
C38   H23   S    
C60   C64   S    
C32   C33   A    
C19   C20   A    
C55   C57   A    
C61   H38   S    
C25   C26   A    
C38   C43   A    
C10   C16   A    
N7    Ni4   S    
N6    Ni1   S    
C27   C37   S    
C40   C50   S    
C55   H34   S    
C33   C35   A    
C33   H18   S    
N11   N13   A    
C48   H28   S    
N2    N8    A    
C1    N1    A    
C7    H3    S    
C63   C64   A    
C10   H5    S    
N13   Ni1   S    
C6    H2    S    
C20   C21   A    
C49   C50   A    
N11   Ni4   S    
C12   H11   S    
C27   C28   A    
C62   N14   A    
C2    C62   A    
C12   N9    A    
C3    C59   S    
