data_mof_unit_45926.cif
_audit_creation_date              2012-12-11T14:01:39-0500
_audit_creation_method            fapswitch 2.2
_symmetry_space_group_name_H-M    P1
_symmetry_Int_Tables_number       1
_space_group_crystal_system       triclinic
_cell_length_a                    18.943299
_cell_length_b                    10.938736
_cell_length_c                    18.697721
_cell_angle_alpha                 90.327522
_cell_angle_beta                  90.6724
_cell_angle_gamma                 89.689707
_cell_volume                      3874.07669832

loop_
_atom_site_label
_atom_site_type_symbol
_atom_type_description
_atom_site_fract_x
_atom_site_fract_y
_atom_site_fract_z
_atom_type_partial_charge
C1    C     C_R   0.293361 0.991014 0.859349 0.585162
C2    C     C_R   0.999625 0.667657 0.964609 -0.080228
C3    C     C_R   0.462512 0.155958 0.041404 -0.132085
C4    C     C_R   0.479177 0.166364 0.969450 -0.104013
C5    C     C_2   0.241921 0.556360 0.911069 -0.125642
C6    C     C_2   0.760465 0.556784 0.088893 -0.130517
C7    C     C_2   0.741586 0.056144 0.910934 -0.131022
C8    C     C_2   0.256449 0.073113 0.082299 -0.115570
C9    C     C_2   0.227844 0.533210 0.065263 -0.113173
C10   C     C_2   0.771728 0.532802 0.934870 -0.125327
C11   C     C_2   0.727764 0.032819 0.065199 -0.116572
C12   C     C_R   0.710903 0.001162 0.138325 0.566600
C13   C     C_2   0.288225 0.997508 0.936911 -0.137166
C14   C     C_2   0.269535 0.460876 0.025660 -0.163024
C15   C     C_2   0.735079 0.454839 0.975422 -0.162739
C16   C     C_2   0.768403 0.959184 0.025259 -0.161983
C17   C     C_2   0.232235 0.955454 0.972979 -0.171744
C18   C     C_2   0.288973 0.494418 0.952368 0.027955
C19   C     C_2   0.717001 0.483593 0.050375 0.017667
C20   C     C_2   0.788093 0.992447 0.951943 0.023351
C21   C     C_2   0.221729 0.979290 0.050661 0.018601
C22   C     C_2   0.452253 0.830020 0.565141 -0.099531
C23   C     C_R   0.789061 0.501648 0.861496 0.570299
C24   C     C_2   0.481780 0.837499 0.412039 -0.103057
C25   C     C_2   0.952257 0.330019 0.565142 -0.099389
C26   C     C_2   0.981784 0.337498 0.412042 -0.103689
C27   C     C_2   0.458529 0.737583 0.445579 -0.148359
C28   C     C_2   0.436263 0.738654 0.520142 -0.166977
C29   C     C_2   0.958536 0.237580 0.445582 -0.148924
C30   C     C_2   0.936268 0.238653 0.520143 -0.166877
C31   C     C_2   0.269114 0.659219 0.563550 -0.107020
C32   C     C_2   0.746407 0.611741 0.430507 -0.091704
C33   C     C_2   0.769114 0.159212 0.563555 -0.106965
C34   C     C_R   0.210967 0.501336 0.138326 0.572111
C35   C     C_2   0.246414 0.111718 0.430498 -0.091920
C36   C     C_2   0.259700 0.614720 0.410872 -0.105202
C37   C     C_2   0.742346 0.604405 0.585912 -0.101433
C38   C     C_2   0.759693 0.114700 0.410884 -0.107149
C39   C     C_2   0.242350 0.104390 0.585905 -0.101260
C40   C     C_R   0.473302 0.823171 0.852011 0.545210
C41   C     C_R   0.529522 0.821389 0.145849 0.526018
C42   C     C_R   0.973597 0.322692 0.851797 0.545711
C43   C     C_R   0.029359 0.321780 0.145830 0.528824
C44   C     C_2   0.223513 0.703613 0.443890 -0.146426
C45   C     C_R   0.469716 0.043493 0.075455 -0.092038
C46   C     C_2   0.781575 0.682907 0.550014 -0.158493
C47   C     C_2   0.723503 0.203587 0.443903 -0.146723
C48   C     C_2   0.281581 0.182886 0.550006 -0.158245
C49   C     C_2   0.239206 0.738509 0.517934 -0.163961
C50   C     C_2   0.770181 0.701172 0.474279 -0.149659
C51   C     C_2   0.739203 0.238498 0.517941 -0.164149
C52   C     C_2   0.270185 0.201150 0.474272 -0.149729
C53   C     C_R   0.260047 0.631827 0.849577 0.562468
C54   C     C_R   0.740621 0.630817 0.150997 0.549094
C55   C     C_R   0.759987 0.131687 0.849516 0.559210
C56   C     C_R   0.498115 0.063057 0.930134 -0.084876
C57   C     C_R   0.240245 0.132389 0.150183 0.567522
C58   C     C_R   0.270633 0.048428 0.649695 0.552468
C59   C     C_R   0.729455 0.049950 0.350080 0.565533
C60   C     C_R   0.770631 0.548434 0.649698 0.551134
C61   C     C_R   0.229460 0.549967 0.350069 0.567813
C62   C     C_R   0.436491 0.819603 0.640251 0.547908
C63   C     C_R   0.526900 0.824489 0.350174 0.555623
C64   C     C_R   0.936492 0.319603 0.640251 0.547022
C65   C     C_R   0.026903 0.324489 0.350176 0.557469
C66   C     C_R   0.274869 0.690200 0.638305 0.545087
C67   C     C_R   0.981823 0.551737 0.072216 -0.098690
C68   C     C_R   0.738884 0.641261 0.355853 0.555884
C69   C     C_R   0.774869 0.190200 0.638306 0.544185
C70   C     C_R   0.238888 0.141244 0.355846 0.561092
C71   C     C_R   0.507789 0.826699 0.071005 0.002695
C72   C     C_R   0.507303 0.836437 0.922025 -0.011254
C73   C     C_R   0.006943 0.328359 0.071018 0.000072
C74   C     C_R   0.007839 0.333525 0.921821 -0.008973
C75   C     C_R   0.492252 0.938876 0.037094 0.017027
C76   C     C_R   0.499791 0.946415 0.962235 0.009146
C77   C     C_R   0.997906 0.441769 0.035535 0.015588
C78   C     C_R   0.010796 0.559701 0.926551 -0.089934
C79   C     C_R   0.005847 0.445189 0.960538 0.012063
C80   C     C_R   0.524578 0.727936 0.956578 -0.128618
C81   C     C_R   0.523814 0.722614 0.029701 -0.114577
C82   C     C_R   0.019319 0.224014 0.957818 -0.132111
C83   C     C_R   0.017062 0.220872 0.030887 -0.120032
C84   C     C_2   0.361988 0.464395 0.930686 0.601286
C85   C     C_2   0.651862 0.428389 0.079077 0.592137
C86   C     C_2   0.860643 0.959481 0.929984 0.602254
C87   C     C_2   0.169928 0.903158 0.089367 0.591796
C88   C     C_R   0.982697 0.663563 0.036753 -0.089856
Cr1   Cr    Cr6+3 0.230530 0.836340 0.748870 1.021166
Cr2   Cr    Cr6+3 0.614360 0.677860 0.250770 1.069404
Cr3   Cr    Cr6+3 0.885640 0.177860 0.749230 1.066804
Cr4   Cr    Cr6+3 0.114360 0.177860 0.250770 1.051751
Cr5   Cr    Cr6+3 0.769470 0.836340 0.251130 1.024725
Cr6   Cr    Cr6+3 0.730530 0.336340 0.748870 1.030272
Cr7   Cr    Cr6+3 0.269470 0.336340 0.251130 1.028909
Cr8   Cr    Cr6+3 0.387420 0.989430 0.750820 1.028186
Cr9   Cr    Cr6+3 0.612580 0.989430 0.249180 1.042462
Cr10  Cr    Cr6+3 0.887420 0.489430 0.750820 1.032161
Cr11  Cr    Cr6+3 0.112580 0.489430 0.249180 1.019929
Cr12  Cr    Cr6+3 0.385640 0.677860 0.749230 1.068326
H1    H     H_    0.534010 0.644233 0.926833 0.164514
H2    H     H_    0.787123 0.788662 0.453319 0.154488
H3    H     H_    0.718575 0.325300 0.537348 0.132050
H4    H     H_    0.287123 0.288644 0.453314 0.154431
H5    H     H_    0.309409 0.580654 0.432562 0.091104
H6    H     H_    0.693982 0.567372 0.562865 0.107032
H7    H     H_    0.809407 0.080644 0.432569 0.091125
H8    H     H_    0.193988 0.067355 0.562858 0.106690
H9    H     H_    0.287938 0.569771 0.546822 0.103236
H10   H     H_    0.728987 0.523552 0.449681 0.085328
H11   H     H_    0.787936 0.069761 0.546829 0.103363
H12   H     H_    0.537782 0.635850 0.053739 0.192624
H13   H     H_    0.228997 0.023525 0.449671 0.084918
H14   H     H_    0.456358 0.038804 0.131457 0.136956
H15   H     H_    0.512507 0.075910 0.874902 0.145193
H16   H     H_    0.967438 0.552310 0.128004 0.132362
H17   H     H_    0.024852 0.566763 0.870817 0.138103
H18   H     H_    0.971468 0.747366 0.065623 0.161187
H19   H     H_    0.003345 0.754303 0.937555 0.141760
H20   H     H_    0.445307 0.235583 0.071244 0.137499
H21   H     H_    0.476614 0.254167 0.943502 0.160313
H22   H     H_    0.293889 0.380036 0.049142 0.154976
H23   H     H_    0.024930 0.138170 0.929217 0.156613
H24   H     H_    0.715368 0.370131 0.952156 0.168556
H25   H     H_    0.791766 0.877277 0.048499 0.158491
H26   H     H_    0.190844 0.906966 0.944031 0.182870
H27   H     H_    0.205067 0.616755 0.043626 0.141986
H28   H     H_    0.790392 0.619777 0.955806 0.117455
H29   H     H_    0.705899 0.117292 0.043825 0.126123
H30   H     H_    0.333566 0.036729 0.963998 0.117666
H31   H     H_    0.187673 0.565470 0.928775 0.094756
H32   H     H_    0.812520 0.576855 0.068289 0.092510
H33   H     H_    0.687496 0.066618 0.928899 0.094783
H34   H     H_    0.025829 0.132786 0.055785 0.182778
H35   H     H_    0.295273 0.124316 0.053226 0.086086
H36   H     H_    0.462949 0.647937 0.420654 0.155246
H37   H     H_    0.413052 0.655395 0.540416 0.134741
H38   H     H_    0.962957 0.147934 0.420658 0.154159
H39   H     H_    0.913054 0.155396 0.540417 0.134608
H40   H     H_    0.473991 0.928751 0.433532 0.103433
H41   H     H_    0.477270 0.913352 0.547644 0.116114
H42   H     H_    0.973994 0.428750 0.433535 0.102847
H43   H     H_    0.977277 0.413349 0.547645 0.115962
H44   H     H_    0.465203 0.464022 0.958096 0.332822
H45   H     H_    0.176514 0.743331 0.419359 0.155755
H46   H     H_    0.553447 0.368044 0.058503 0.336539
H47   H     H_    0.963539 0.950222 0.958335 0.322110
H48   H     H_    0.140317 0.827402 0.182422 0.342143
H49   H     H_    0.827623 0.725980 0.574263 0.160926
H50   H     H_    0.676496 0.243291 0.419380 0.158550
H51   H     H_    0.327629 0.225960 0.574254 0.161216
H52   H     H_    0.218577 0.825309 0.537344 0.131990
O1    O     O_R   0.215090 0.709860 0.828130 -0.528570
O2    O     O_R   0.543740 0.718170 0.330000 -0.509412
O3    O     O_R   0.956260 0.218170 0.670000 -0.501095
O4    O     O_R   0.043740 0.218170 0.330000 -0.511154
O5    O     O_R   0.320940 0.626760 0.674370 -0.504908
O6    O     O_R   0.679060 0.626760 0.325630 -0.484097
O7    O     O_R   0.820940 0.126760 0.674370 -0.505226
O8    O     O_R   0.179060 0.126760 0.325630 -0.484606
O9    O     O_3   0.334530 0.834540 0.749640 -0.323600
O10   O     O_3   0.665470 0.834540 0.250360 -0.275653
O11   O     O_3   0.834530 0.334540 0.749640 -0.317357
O12   O     O_R   0.784910 0.709860 0.171870 -0.536595
O13   O     O_3   0.165470 0.334540 0.250360 -0.272424
O14   O     O_R   0.236990 0.958390 0.823710 -0.492938
O15   O     O_R   0.763010 0.958390 0.176290 -0.483823
O16   O     O_R   0.736990 0.458390 0.823710 -0.482729
O17   O     O_R   0.263010 0.458390 0.176290 -0.482586
O18   O     O_R   0.332380 0.074750 0.830850 -0.481444
O19   O     O_R   0.667620 0.074750 0.169150 -0.478202
O20   O     O_R   0.832380 0.574750 0.830850 -0.481596
O21   O     O_R   0.167620 0.574750 0.169150 -0.496672
O22   O     O_R   0.445800 0.917770 0.825070 -0.526980
O23   O     O_R   0.715090 0.209860 0.828130 -0.525039
O24   O     O_R   0.554200 0.917770 0.174930 -0.522884
O25   O     O_R   0.945800 0.417770 0.825070 -0.517676
O26   O     O_R   0.054200 0.417770 0.174930 -0.523458
O27   O     O_R   0.456410 0.716580 0.829970 -0.491169
O28   O     O_R   0.543590 0.716580 0.170030 -0.508959
O29   O     O_R   0.956410 0.216580 0.829970 -0.495784
O30   O     O_R   0.043590 0.216580 0.170030 -0.513173
O31   O     O_R   0.321080 0.625290 0.822650 -0.443207
O32   O     O_R   0.678920 0.625290 0.177350 -0.453673
O33   O     O_R   0.821080 0.125290 0.822650 -0.442866
O34   O     O_R   0.284910 0.209860 0.171870 -0.538441
O35   O     O_R   0.178920 0.125290 0.177350 -0.455999
O36   O     O_R   0.214930 0.711450 0.668160 -0.488903
O37   O     O_R   0.785070 0.711450 0.331840 -0.517879
O38   O     O_R   0.714930 0.211450 0.668160 -0.488321
O39   O     O_R   0.285070 0.211450 0.331840 -0.515502
O40   O     O_R   0.236850 0.959870 0.675420 -0.517951
O41   O     O_R   0.763150 0.959870 0.324580 -0.503412
O42   O     O_R   0.736850 0.459870 0.675420 -0.518019
O43   O     O_R   0.263150 0.459870 0.324580 -0.501290
O44   O     O_R   0.332230 0.076350 0.670880 -0.508563
O45   O     O_R   0.445660 0.919250 0.676780 -0.493466
O46   O     O_R   0.667770 0.076350 0.329120 -0.499782
O47   O     O_R   0.832230 0.576350 0.670880 -0.508639
O48   O     O_R   0.167770 0.576350 0.329120 -0.507018
O49   O     O_2   0.373400 0.418344 0.872171 -0.498550
O50   O     O_R   0.417522 0.484447 0.979104 -0.715030
O51   O     O_2   0.648947 0.397985 0.141815 -0.488707
O52   O     O_R   0.594954 0.405023 0.032882 -0.735551
O53   O     O_2   0.871608 0.916556 0.870586 -0.497344
O54   O     O_R   0.916125 0.972457 0.979302 -0.714531
O55   O     O_2   0.120573 0.856499 0.056720 -0.563021
O56   O     O_R   0.554340 0.919250 0.323220 -0.498104
O57   O     O_R   0.179053 0.880404 0.162431 -0.669608
O58   O     O_R   0.945660 0.419250 0.676780 -0.494394
O59   O     O_R   0.054340 0.419250 0.323220 -0.497871
O60   O     O_R   0.456260 0.718170 0.670000 -0.500210

loop_
_geom_bond_atom_site_label_1
_geom_bond_atom_site_label_2
_ccdc_geom_bond_type
C44   C49   S    
C43   C73   S    
C31   C66   S    
C71   C75   A    
C21   C87   S    
C43   O26   A    
C53   O1    A    
C74   C79   A    
C14   H22   S    
C66   O36   A    
C22   H41   S    
C14   C18   S    
C41   O28   A    
C67   C77   A    
C24   C27   D    
C7    C55   S    
C9    C14   D    
C64   O58   A    
C86   O54   S    
C12   O15   A    
Cr10  O11   S    
Cr4   O35   S    
C60   O42   A    
Cr11  O59   S    
C32   C68   S    
C24   H40   S    
Cr7   O39   S    
C15   C19   S    
C6    C19   D    
Cr10  O58   S    
C64   O3    A    
C67   C88   A    
C9    H27   S    
C32   H10   S    
Cr10  O47   S    
Cr2   O10   S    
C56   C76   A    
C27   H36   S    
C68   O37   A    
C5    C53   S    
C31   C49   D    
C7    H33   S    
C65   O4    A    
C10   C15   D    
C53   O31   A    
C68   O6    A    
C17   H26   S    
C59   O46   A    
C51   H3    S    
C11   H29   S    
C1    O18   A    
Cr8   O9    S    
C61   O48   A    
Cr8   O44   S    
C38   H7    S    
Cr12  O31   S    
C73   C77   A    
C83   H34   S    
H46   O52   S    
C35   H13   S    
C60   O47   A    
C45   H14   S    
C56   H15   S    
C23   O20   A    
C35   C70   S    
C20   C86   S    
Cr11  O48   S    
C18   C84   S    
C13   H30   S    
C47   H50   S    
C2    C88   A    
Cr12  O9    S    
C33   H11   S    
Cr2   O2    S    
C16   H25   S    
C61   O43   A    
Cr3   O7    S    
C85   O52   S    
C33   C69   S    
Cr6   O23   S    
C41   C71   S    
Cr10  O20   S    
Cr3   O33   S    
Cr9   O24   S    
Cr8   O18   S    
C4    C56   A    
C8    H35   S    
C87   O57   S    
Cr3   O11   S    
C25   H43   S    
C6    C54   S    
C10   H28   S    
Cr7   O13   S    
C86   O53   D    
Cr1   O9    S    
C7    C20   D    
C70   O39   A    
C8    C21   D    
C12   O19   A    
C77   C79   A    
C42   O29   A    
C39   H8    S    
Cr2   O28   S    
C42   C74   S    
C57   O35   A    
C15   H24   S    
C78   H17   S    
C63   O2    A    
Cr11  O26   S    
C6    H32   S    
Cr6   O16   S    
C78   C79   A    
C47   C51   S    
C5    C18   D    
Cr5   O12   S    
Cr12  O5    S    
C39   C58   S    
C3    C45   A    
C59   O41   A    
C23   O16   A    
C25   C64   S    
Cr2   O6    S    
H47   O54   S    
C67   H16   S    
Cr6   O38   S    
Cr3   O3    S    
C29   C30   S    
C2    C78   A    
C8    C57   S    
C22   C62   S    
C40   O27   A    
C11   C16   D    
Cr1   O1    S    
Cr11  O21   S    
C81   H12   S    
C48   C52   S    
C16   C20   S    
C32   C50   D    
C44   H45   S    
C31   H9    S    
C72   C76   A    
Cr4   O4    S    
Cr10  O25   S    
Cr7   O17   S    
C55   O23   A    
C38   C47   D    
C34   O17   A    
Cr8   O22   S    
H44   O50   S    
Cr11  O13   S    
C41   O24   A    
Cr2   O32   S    
Cr4   O13   S    
C24   C63   S    
C63   O56   A    
Cr3   O29   S    
C58   O40   A    
C9    C34   S    
Cr1   O36   S    
C54   O32   A    
C36   C44   D    
C57   O34   A    
C88   H18   S    
C36   C61   S    
C82   H23   S    
C35   C52   D    
C74   C82   A    
C84   O50   S    
C25   C30   D    
C84   O49   D    
C52   H4    S    
C75   C76   A    
Cr7   O43   S    
C30   H39   S    
C40   C72   S    
C49   H52   S    
C36   H5    S    
Cr6   O42   S    
C26   C65   S    
Cr9   O46   S    
Cr5   O41   S    
C28   H37   S    
C62   O45   A    
C80   C81   A    
C19   C85   S    
C29   H38   S    
C69   O38   A    
C82   C83   A    
C11   C12   S    
C50   H2    S    
Cr5   O37   S    
C10   C23   S    
C33   C51   D    
C46   C50   S    
C43   O30   A    
Cr9   O19   S    
C13   C17   D    
C80   H1    S    
C45   C75   A    
C37   H6    S    
C72   C80   A    
C34   O21   A    
Cr4   O30   S    
H48   O57   S    
C40   O22   A    
Cr8   O45   S    
Cr4   O8    S    
Cr5   O10   S    
C2    H19   S    
C58   O44   A    
C69   O7    A    
Cr1   O40   S    
Cr12  O60   S    
C4    H21   S    
C87   O55   D    
C70   O8    A    
C55   O33   A    
Cr9   O56   S    
C17   C21   S    
Cr1   O14   S    
C65   O59   A    
C37   C60   S    
C3    H20   S    
C85   O51   D    
C38   C59   S    
C5    H31   S    
C46   H49   S    
C1    C13   S    
Cr5   O15   S    
C26   C29   D    
Cr9   O10   S    
C48   H51   S    
C27   C28   S    
C62   O60   A    
C22   C28   D    
C42   O25   A    
C54   O12   A    
C37   C46   D    
C26   H42   S    
Cr12  O27   S    
Cr6   O11   S    
C73   C83   A    
C66   O5    A    
C3    C4    A    
Cr7   O34   S    
C1    O14   A    
C39   C48   D    
C71   C81   A    
