data_mof_unit_46744.cif
_audit_creation_date              2012-12-10T17:48:40-0500
_audit_creation_method            fapswitch 2.2
_symmetry_space_group_name_H-M    P1
_symmetry_Int_Tables_number       1
_space_group_crystal_system       triclinic
_cell_length_a                    15.722608
_cell_length_b                    10.590634
_cell_length_c                    9.997197
_cell_angle_alpha                 88.97764
_cell_angle_beta                  91.331998
_cell_angle_gamma                 92.36777
_cell_volume                      1662.54895643

loop_
_atom_site_label
_atom_site_type_symbol
_atom_type_description
_atom_site_fract_x
_atom_site_fract_y
_atom_site_fract_z
_atom_type_partial_charge
C1    C     C_R   0.501015 0.260984 0.501022 0.836430
C2    C     C_3   0.954973 0.487737 0.651183 -0.131394
C3    C     C_3   0.917292 0.499568 0.505734 0.190872
C4    C     C_3   0.951655 0.626013 0.442993 -0.499564
C5    C     C_3   0.050149 0.627097 0.436827 -0.121129
C6    C     C_1   0.825655 0.499835 0.505971 -0.076065
C7    C     C_1   0.174411 0.500204 0.496804 -0.011041
C8    C     C_1   0.249725 0.499737 0.496267 -0.144210
C9    C     C_R   0.655944 0.139483 0.581221 -0.166022
C10   C     C_R   0.730390 0.077526 0.614046 -0.122250
C11   C     C_R   0.731687 0.946449 0.606616 -0.094500
C12   C     C_R   0.338624 0.499770 0.498725 0.868260
C13   C     C_R   0.658325 0.876922 0.567357 -0.186498
C14   C     C_R   0.582043 0.938266 0.535898 0.086708
C15   C     C_R   0.581116 0.070231 0.541173 0.113100
C16   C     C_R   0.505264 0.128756 0.502943 -0.043131
C17   C     C_R   0.432412 0.061149 0.459641 -0.185199
C18   C     C_R   0.432845 0.932082 0.457033 -0.162500
C19   C     C_R   0.506426 0.871879 0.496403 -0.091870
C20   C     C_R   0.369033 0.372476 0.140206 -0.120119
C21   C     C_R   0.292870 0.339704 0.074900 -0.144772
C22   C     C_R   0.288182 0.345820 0.936716 -0.233809
C23   C     C_R   0.501414 0.739140 0.498881 0.866063
C24   C     C_R   0.362824 0.370021 0.865370 0.009190
C25   C     C_R   0.434181 0.435682 0.928164 0.135057
C26   C     C_R   0.435130 0.436984 0.072042 0.147525
C27   C     C_R   0.562106 0.560603 0.073531 -0.063969
C28   C     C_R   0.562312 0.562389 0.930908 0.007306
C29   C     C_R   0.661398 0.500648 0.501320 0.863037
C30   C     C_3   0.053542 0.485411 0.646646 -0.521422
C31   C     C_3   0.044112 0.388288 0.419081 0.478350
C32   C     C_3   0.945955 0.390048 0.418626 -0.394419
C33   C     C_1   0.750308 0.500264 0.504505 -0.168153
C34   C     C_3   0.082853 0.501514 0.499895 0.105427
H1    H     H_    0.082345 0.562017 0.709814 0.178335
H2    H     H_    0.938745 0.573769 0.706234 0.121569
H3    H     H_    0.924543 0.638253 0.339859 0.205294
H4    H     H_    0.375051 0.108619 0.429360 0.139332
H5    H     H_    0.657717 0.241333 0.586696 0.141362
H6    H     H_    0.787367 0.131455 0.644160 0.182169
H7    H     H_    0.789761 0.898560 0.630578 0.149487
H8    H     H_    0.662174 0.775625 0.559834 0.116236
H9    H     H_    0.375555 0.878774 0.426113 0.170715
H10   H     H_    0.611823 0.611439 0.129685 0.188265
H11   H     H_    0.077566 0.395681 0.689932 0.215887
H12   H     H_    0.375453 0.343310 0.242522 0.193401
H13   H     H_    0.239957 0.298758 0.130547 0.196508
H14   H     H_    0.231848 0.303860 0.887639 0.152441
H15   H     H_    0.064595 0.297869 0.465663 0.114054
H16   H     H_    0.919081 0.297578 0.455834 0.180337
H17   H     H_    0.921089 0.402420 0.314209 0.211137
H18   H     H_    0.067822 0.631266 0.329424 0.223068
H19   H     H_    0.929934 0.706515 0.501988 0.174201
N1    N     N_R   0.499210 0.498800 0.142780 -0.139748
N2    N     N_R   0.499180 0.498720 0.857170 -0.165711
O1    O     O_R   0.500000 0.316780 0.614690 -0.591212
O2    O     O_R   0.499990 0.316750 0.385360 -0.632461
O3    O     O_R   0.377150 0.500020 0.614720 -0.638385
O4    O     O_R   0.377140 0.499990 0.385380 -0.621464
O5    O     O_R   0.500010 0.683250 0.614640 -0.634310
O6    O     O_R   0.500000 0.683220 0.385310 -0.603147
O7    O     O_R   0.622860 0.500010 0.614620 -0.648762
O8    O     O_R   0.622850 0.499980 0.385280 -0.602051
Zn1   Zn    Zn3+2 0.500010 0.500020 0.653130 0.949829
Zn2   Zn    Zn3+2 0.499990 0.499980 0.346870 0.956204
C35   C     C_2   0.917076 0.376118 0.729470 0.402953
H20   H     H_    0.868356 0.391522 0.801885 0.088863
O9    O     O_2   0.938410 0.268509 0.710065 -0.594883
C36   C     C_2   0.372775 0.270554 0.768174 0.531655
H21   H     H_    0.333333 0.266923 0.677641 0.011951
O10   O     O_2   0.418993 0.183352 0.795675 -0.556014
C37   C     C_2   0.630262 0.638578 0.864256 0.428515
H22   H     H_    0.621486 0.673124 0.763497 0.124528
O11   O     O_2   0.697174 0.666414 0.923122 -0.599490
F1    F     F_    0.072455 0.393038 0.288573 -0.672512
C38   C     C_2   0.089525 0.743618 0.502909 0.406212
H23   H     H_    0.076156 0.763468 0.606244 0.078918
O12   O     O_2   0.136157 0.816993 0.440271 -0.558567

loop_
_geom_bond_atom_site_label_1
_geom_bond_atom_site_label_2
_ccdc_geom_bond_type
C35   O9    D    
O8    Zn2   S    
C4    H19   S    
C30   H11   S    
C22   H14   S    
C3    C6    S    
C29   O8    A    
C27   N1    A    
C7    C8    T    
N1    Zn2   S    
C30   H1    S    
C1    O1    A    
C38   O12   D    
C36   H21   S    
C15   C16   A    
C29   C33   S    
C9    H5    S    
C10   H6    S    
C18   C19   A    
C36   O10   D    
O7    Zn1   S    
C12   O4    A    
C27   H10   S    
C16   C17   A    
O1    Zn1   S    
C5    H18   S    
C9    C10   A    
C12   O3    A    
C35   H20   S    
C21   C22   A    
N2    Zn1   S    
C28   C37   S    
C31   H15   S    
C26   N1    A    
C13   H8    S    
C28   N2    A    
C24   C36   S    
C38   H23   S    
O3    Zn1   S    
C23   O5    A    
C30   C34   S    
C24   C25   A    
C37   O11   D    
C37   H22   S    
C25   C26   A    
C19   C23   S    
C32   H17   S    
C1    O2    A    
C31   F1    S    
C31   C32   S    
C8    C12   S    
C5    C34   S    
C17   C18   A    
C31   C34   S    
C1    C16   S    
C4    H3    S    
C32   H16   S    
C7    C34   S    
C22   C24   A    
C3    C4    S    
C2    H2    S    
C29   O7    A    
C14   C19   A    
C25   N2    A    
O2    Zn2   S    
C4    C5    S    
C2    C35   S    
C6    C33   T    
C2    C30   S    
O5    Zn1   S    
C5    C38   S    
C2    C3    S    
C9    C15   A    
C18   H9    S    
O4    Zn2   S    
C11   C13   A    
C20   C26   A    
C11   H7    S    
C17   H4    S    
C3    C32   S    
C10   C11   A    
O6    Zn2   S    
C23   O6    A    
C20   C21   A    
C27   C28   A    
C14   C15   A    
C13   C14   A    
C20   H12   S    
C21   H13   S    
