data_mof_unit_6298.cif
_audit_creation_date              2013-03-05T15:41:46-0500
_audit_creation_method            fapswitch 2.2
_symmetry_space_group_name_H-M    P1
_symmetry_Int_Tables_number       1
_space_group_crystal_system       triclinic
_cell_length_a                    19.34569
_cell_length_b                    8.694374
_cell_length_c                    7.41988
_cell_angle_alpha                 102.453838
_cell_angle_beta                  94.360988
_cell_angle_gamma                 92.443442
_cell_volume                      1212.8845382

loop_
_atom_site_label
_atom_site_type_symbol
_atom_site_description
_atom_site_fract_x
_atom_site_fract_y
_atom_site_fract_z
_atom_type_partial_charge
O1    O     O_R   0.505010 0.286130 0.619770 -0.591734
O2    O     O_R   0.494990 0.713870 0.380230 -0.588440
O3    O     O_R   0.491990 0.256780 0.308370 -0.537178
O4    O     O_R   0.508010 0.743220 0.691630 -0.529312
C1    C     C_R   0.500371 0.200568 0.454496 0.851190
C2    C     C_R   0.499315 0.799380 0.545497 0.870109
O5    O     O_R   0.406650 0.514660 0.655750 -0.552436
O6    O     O_R   0.593350 0.485340 0.344250 -0.534643
O7    O     O_R   0.393640 0.485310 0.344340 -0.615926
O8    O     O_R   0.606360 0.514690 0.655660 -0.602041
C3    C     C_R   0.367756 0.500941 0.502321 0.869977
C4    C     C_R   0.632577 0.499333 0.497568 0.844381
Cu1   Cu    Cu3+1 0.507710 0.517380 0.684380 1.032471
Cu2   Cu    Cu3+1 0.492290 0.482620 0.315620 1.022555
C5    C     C_R   0.261256 0.594733 0.651999 0.449354
C6    C     C_R   0.740475 0.460782 0.326856 0.451903
C7    C     C_R   0.188693 0.596556 0.642976 -0.336934
C8    C     C_R   0.812878 0.465491 0.331647 -0.344807
H1    H     H_    0.165260 0.674648 0.752513 0.183977
H2    H     H_    0.836606 0.439563 0.201689 0.201384
C9    C     C_R   0.146766 0.502135 0.492946 -0.096939
C10   C     C_R   0.854335 0.503614 0.500588 -0.077788
C11   C     C_R   0.178673 0.408252 0.345910 0.472478
C12   C     C_R   0.822890 0.540701 0.668650 0.479007
C13   C     C_R   0.251025 0.407093 0.355207 -0.349396
C14   C     C_R   0.750192 0.535323 0.663420 -0.370216
H3    H     H_    0.275144 0.331074 0.244980 0.184744
H4    H     H_    0.726078 0.557977 0.792663 0.202033
C15   C     C_R   0.292292 0.500845 0.505043 -0.163225
C16   C     C_R   0.708647 0.499136 0.494350 -0.163197
N1    N     N_R   0.027950 0.418026 0.349342 -0.169745
N2    N     N_R   0.972587 0.592251 0.641049 -0.180570
N3    N     N_R   0.959357 0.418022 0.351816 -0.253728
N4    N     N_R   0.041184 0.592075 0.638464 -0.261224
C17   C     C_R   0.930350 0.504517 0.498288 0.447756
C18   C     C_R   0.070360 0.504594 0.492675 0.433888
C19   C     C_2   0.511484 0.036873 0.436271 0.037268
C20   C     C_2   0.487633 0.962901 0.563481 0.026402
N5    N     N_2   0.480680 0.456420 0.038530 -0.227580
N6    N     N_2   0.519320 0.543580 0.961470 -0.211057
H5    H     H_    0.444973 0.380321 0.948864 0.260614
H6    H     H_    0.555039 0.619641 0.051138 0.279255
O9    O     O_3   0.302056 0.700230 0.789745 -0.541686
C21   C     C_3   0.296426 0.658447 0.961985 0.048602
H7    H     H_    0.311136 0.534929 0.955679 0.141253
H8    H     H_    0.242859 0.671202 0.005781 0.119326
C22   C     C_3   0.345520 0.768497 0.108510 -0.590208
H9    H     H_    0.333005 0.893027 0.115422 0.254248
H10   H     H_    0.340008 0.741134 0.246247 0.184968
H11   H     H_    0.400066 0.754072 0.073989 0.270567
O10   O     O_3   0.701293 0.425152 0.157595 -0.574802
C23   C     C_3   0.697829 0.260006 0.089122 0.052060
H12   H     H_    0.677749 0.196765 0.192015 0.181878
H13   H     H_    0.749878 0.218762 0.054250 0.141596
C24   C     C_3   0.648567 0.217342 0.913534 -0.623122
H14   H     H_    0.667602 0.276075 0.806394 0.225505
H15   H     H_    0.645432 0.087633 0.858744 0.210053
H16   H     H_    0.595834 0.255187 0.944077 0.274367
O11   O     O_3   0.139367 0.308078 0.200392 -0.556164
C25   C     C_3   0.144197 0.365431 0.037224 0.056155
H17   H     H_    0.197392 0.354816 0.990193 0.133265
H18   H     H_    0.130461 0.491004 0.058566 0.141204
C26   C     C_3   0.093602 0.267450 0.884425 -0.668987
H19   H     H_    0.039482 0.281150 0.923017 0.261614
H20   H     H_    0.098656 0.307132 0.753432 0.200916
H21   H     H_    0.105029 0.140944 0.861986 0.248136
O12   O     O_3   0.863670 0.565719 0.835991 -0.567660
C27   C     C_3   0.848526 0.707902 0.955866 0.056107
H22   H     H_    0.803287 0.686868 0.033112 0.172166
H23   H     H_    0.837704 0.803242 0.879972 0.142581
C28   C     C_3   0.910722 0.765439 0.096108 -0.718106
H24   H     H_    0.956649 0.790860 0.023742 0.263080
H25   H     H_    0.898870 0.874964 0.194088 0.202187
H26   H     H_    0.923082 0.674155 0.175581 0.252582
N7    N     N_R   0.559084 0.967192 0.305504 0.091121
O13   O     O_R   0.553550 0.989139 0.137213 -0.332361
O14   O     O_R   0.614058 0.903709 0.362250 -0.415007
N8    N     N_R   0.439396 0.031860 0.693017 0.110516
O15   O     O_R   0.442153 0.003174 0.858332 -0.296631
O16   O     O_R   0.385686 0.099310 0.635820 -0.393951

loop_
_geom_bond_atom_site_label_1
_geom_bond_atom_site_label_2
_geom_bond_distance
_ccdc_geom_bond_type
C24   H14   1.109911 S    
C26   H20   1.108820 S    
C1    C19   1.427441 S    
C6    O10   1.383911 S    
N7    O13   1.300503 A    
C22   H10   1.109827 S    
C9    C18   1.479045 S    
C23   H12   1.115368 S    
C11   O11   1.384065 S    
C10   C17   1.471681 S    
C25   C26   1.520760 S    
O1    C1    1.284287 A    
C12   C14   1.402462 A    
N8    O16   1.302255 A    
C6    C16   1.410659 A    
C25   H18   1.115457 S    
O4    Cu1   1.952391 S    
Cu1   N6    2.013152 S    
C12   O12   1.389712 S    
N3    C17   1.355652 A    
Cu2   N5    2.013152 S    
C21   H8    1.112322 S    
C27   H22   1.111648 S    
N1    N3    1.328508 A    
N4    C18   1.357145 A    
C21   C22   1.521962 S    
N6    H6    1.028997 S    
C19   N7    1.444419 S    
C26   H21   1.110724 S    
O11   C25   1.413072 S    
Cu1   Cu2   2.679253 S    
O2    C2    1.284263 A    
C23   H13   1.113476 S    
C5    C15   1.404724 A    
C22   H11   1.110579 S    
C13   C15   1.398739 A    
O12   C27   1.414718 S    
N2    C17   1.355829 A    
N5    H5    1.029004 S    
N5    N6    1.289789 D    
C28   H25   1.110530 S    
O7    Cu2   1.936919 S    
N8    O15   1.301062 A    
C20   N8    1.445570 S    
C7    C9    1.408118 A    
O10   C23   1.412878 S    
C25   H17   1.112718 S    
N2    N4    1.328712 A    
O5    C3    1.296108 A    
O9    C21   1.412498 S    
C19   C20   1.349145 D    
N7    O14   1.301986 A    
C22   H9    1.110759 S    
O6    C4    1.298450 A    
C2    C20   1.428390 S    
O7    C3    1.292135 A    
O3    Cu2   1.952391 S    
O8    C4    1.296054 A    
O4    C2    1.284526 A    
C14   C16   1.404823 A    
C24   H15   1.110597 S    
C10   C12   1.409862 A    
O1    Cu1   1.961244 S    
C21   H7    1.114845 S    
C5    C7    1.401222 A    
O6    Cu2   1.949034 S    
C4    C16   1.473712 S    
C8    C10   1.403443 A    
O3    C1    1.284247 A    
O8    Cu1   1.936917 S    
C28   H26   1.109679 S    
C23   C24   1.521788 S    
C13   H3    1.083817 S    
C14   H4    1.081867 S    
C9    C11   1.413802 A    
C5    O9    1.385693 S    
C28   H24   1.110654 S    
C27   C28   1.521370 S    
C7    H1    1.082280 S    
C8    H2    1.083399 S    
C11   C13   1.396716 A    
O2    Cu2   1.961244 S    
C26   H19   1.110794 S    
O5    Cu1   1.949034 S    
C3    C15   1.461553 S    
C6    C8    1.397054 A    
C24   H16   1.109941 S    
C27   H23   1.116353 S    
N1    C18   1.356499 A    
