data_mof_unit_52198.cif
_audit_creation_date              2013-03-05T15:47:03-0500
_audit_creation_method            fapswitch 2.2
_symmetry_space_group_name_H-M    P1
_symmetry_Int_Tables_number       1
_space_group_crystal_system       triclinic
_cell_length_a                    8.329507
_cell_length_b                    17.383045
_cell_length_c                    19.141175
_cell_angle_alpha                 98.970498
_cell_angle_beta                  94.630419
_cell_angle_gamma                 97.687746
_cell_volume                      2698.33927196

loop_
_atom_site_label
_atom_site_type_symbol
_atom_site_description
_atom_site_fract_x
_atom_site_fract_y
_atom_site_fract_z
_atom_type_partial_charge
P1    P     P_3+3 0.992230 0.679190 0.566750 0.490391
O1    O     O_2   0.166667 0.691630 0.546720 -0.358947
O2    O     O_3   0.893830 0.593690 0.541700 -0.409193
O3    O     O_3   0.390350 0.644650 0.417800 -0.409623
O4    O     O_2   0.280331 0.778932 0.458442 -0.396588
O5    O     O_3   0.014999 0.701524 0.659622 -0.535958
O6    O     O_3   0.476088 0.782848 0.359221 -0.487850
H1    H     H_    0.296453 0.697502 0.300438 0.155186
C1    C     C_3   0.448428 0.754144 0.232416 -0.886575
H2    H     H_    0.407640 0.706417 0.186243 0.214632
H3    H     H_    0.374437 0.802341 0.229206 0.286144
P2    P     P_3+3 0.339610 0.439630 0.337240 0.560403
P3    P     P_3+3 0.929520 0.605063 0.289247 0.486906
O7    O     O_2   0.171750 0.463380 0.328050 -0.359177
O8    O     O_3   0.965290 0.605410 0.380210 -0.404951
O9    O     O_2   0.057101 0.559635 0.253866 -0.302365
O10   O     O_3   0.302971 0.335742 0.315793 -0.477266
O11   O     O_3   0.982329 0.701168 0.273312 -0.533542
C2    C     C_3   0.935335 0.753710 0.328732 0.295362
H4    H     H_    0.998543 0.748340 0.380644 0.148994
H5    H     H_    0.801202 0.743044 0.330668 0.074982
C3    C     C_3   0.984976 0.837510 0.316488 -0.724661
H6    H     H_    0.117308 0.847820 0.310460 0.260597
H7    H     H_    0.915037 0.847754 0.267747 0.259719
C4    C     C_3   0.841647 0.338169 0.298198 0.094431
H8    H     H_    0.800214 0.396670 0.308835 0.133999
H9    H     H_    0.975028 0.345381 0.308863 0.172043
C5    C     C_3   0.789827 0.297972 0.219280 -0.395291
Ba1   Ba    Ba6+2 0.162080 0.538580 0.468810 1.607218
C6    C     C_3   0.049106 0.635806 0.688597 0.229992
H10   H     H_    0.165075 0.618956 0.671711 0.089377
H11   H     H_    0.949672 0.585385 0.671661 0.094947
C7    C     C_3   0.062738 0.656931 0.769625 -0.110243
H12   H     H_    0.076296 0.603596 0.793280 0.079743
H13   H     H_    0.949062 0.677852 0.786340 0.138600
C8    C     C_3   0.269476 0.300919 0.375865 0.234130
H14   H     H_    0.139473 0.299432 0.383201 0.026187
H15   H     H_    0.341292 0.332653 0.425612 0.098076
C9    C     C_3   0.311985 0.216960 0.366529 -0.024903
H16   H     H_    0.313982 0.196056 0.418056 0.063917
H17   H     H_    0.436303 0.217147 0.349909 0.168289
P4    P     P_3+3 0.818060 0.320800 0.433200 0.499357
O12   O     O_2   0.643630 0.308330 0.453260 -0.358146
O13   O     O_3   0.916470 0.406310 0.458240 -0.402586
O14   O     O_3   0.419940 0.355340 0.582140 -0.413934
O15   O     O_3   0.767807 0.289418 0.341498 -0.620743
P5    P     P_3+3 0.882811 0.399468 0.713388 0.528234
O16   O     O_3   0.383960 0.539280 0.585630 -0.394074
O17   O     O_3   0.845010 0.394580 0.619730 -0.322523
O18   O     O_2   0.779742 0.460283 0.746517 -0.367733
O19   O     O_3   0.805857 0.315629 0.749703 -0.598297
Ba2   Ba    Ba6+2 0.648090 0.461410 0.531130 1.617537
P6    P     P_3+3 0.437514 0.746804 0.437791 0.483086
C10   C     C_3   0.426890 0.721966 0.300981 0.447904
H18   H     H_    0.503361 0.674508 0.302696 0.025292
H19   H     H_    0.578700 0.777129 0.230426 0.259512
O20   O     O_3   0.426330 0.460710 0.414310 -0.406720
C11   C     C_3   0.583249 0.702739 0.652896 0.398225
H20   H     H_    0.687378 0.673266 0.636087 0.100031
H21   H     H_    0.494752 0.701898 0.606147 0.088792
C12   C     C_3   0.649186 0.787554 0.686364 -0.847922
H22   H     H_    0.727922 0.788743 0.736326 0.278790
H23   H     H_    0.723445 0.816885 0.649880 0.201276
H24   H     H_    0.546829 0.820634 0.698566 0.275618
P7    P     P_3+3 0.467393 0.564600 0.674817 0.455511
O21   O     O_2   0.638540 0.536570 0.671920 -0.372808
O22   O     O_3   0.503953 0.666425 0.703401 -0.527925
H25   H     H_    0.960611 0.879694 0.362762 0.239868
C13   C     C_3   0.848963 0.240699 0.723325 0.940112
C14   C     C_3   0.807298 0.188463 0.779625 -0.757870
H26   H     H_    0.675549 0.182768 0.786069 0.242491
H27   H     H_    0.836620 0.128056 0.763827 0.250403
H28   H     H_    0.876969 0.214836 0.831748 0.258775
P8    P     P_3+3 0.370602 0.253826 0.577527 0.555903
C15   C     C_3   0.432826 0.302266 0.713797 0.368999
H29   H     H_    0.345726 0.342935 0.704216 0.082253
O23   O     O_2   0.493044 0.214125 0.532955 -0.321026
O24   O     O_3   0.403060 0.231605 0.663704 -0.472579
H30   H     H_    0.551331 0.334953 0.707982 0.153423
H31   H     H_    0.304505 0.301702 0.808400 0.127783
C16   C     C_3   0.420004 0.284961 0.789944 -0.144822
H32   H     H_    0.415570 0.220884 0.790488 0.197214
C17   C     C_2   0.738886 0.725588 0.496864 -0.470867
C18   C     C_3   0.610802 0.779122 0.508037 0.145676
C19   C     C_2   0.681826 0.864332 0.509754 -0.100848
C20   C     C_2   0.845230 0.886992 0.515223 0.109841
C21   C     C_2   0.953449 0.825900 0.526343 -0.284134
C22   C     C_1   0.889170 0.751256 0.525689 0.304241
C23   C     C_R   0.095372 0.138063 0.526310 -0.205430
C24   C     C_R   0.162651 0.217800 0.535048 0.312711
C25   C     C_R   0.919528 0.247617 0.473768 0.324771
C26   C     C_R   0.852643 0.167349 0.462907 -0.032854
C27   C     C_R   0.936122 0.111167 0.491716 -0.020439
C28   C     C_2   0.920069 0.971451 0.517773 -0.297953
C29   C     C_2   0.856281 0.025745 0.483173 0.371986
C30   C     C_R   0.072313 0.272155 0.511280 -0.416871
H33   H     H_    0.083960 0.843743 0.537468 0.188140
H34   H     H_    0.170531 0.098497 0.545816 0.158929
H35   H     H_    0.034784 0.988018 0.550728 0.151540
H36   H     H_    0.598199 0.906973 0.510996 0.184198
H37   H     H_    0.735242 0.150002 0.432233 0.170041
H38   H     H_    0.706721 0.666212 0.467064 0.168087
H39   H     H_    0.124611 0.333693 0.519321 0.147592
C31   C     C_R   0.617631 0.527122 0.298921 -0.531084
C32   C     C_R   0.460758 0.488462 0.273755 0.203618
C33   C     C_R   0.403692 0.484248 0.200744 0.242451
C34   C     C_R   0.507345 0.517850 0.154128 -0.092642
C35   C     C_R   0.663382 0.557502 0.182103 -0.180044
C36   C     C_R   0.719301 0.560775 0.253723 0.286925
C37   C     C_R   0.461168 0.579685 0.044929 -0.179640
C38   C     C_R   0.407130 0.575452 0.972777 -0.124836
C39   C     C_R   0.341585 0.502774 0.930555 0.113634
C40   C     C_R   0.335248 0.434666 0.961120 -0.165013
C41   C     C_R   0.397039 0.437660 0.031823 0.409708
C42   C     C_R   0.455896 0.511132 0.075943 0.038903
C43   C     C_R   0.136004 0.452610 0.824424 -0.312106
C44   C     C_R   0.090015 0.442127 0.751057 0.307783
C45   C     C_R   0.347401 0.514467 0.734324 0.232075
C46   C     C_R   0.393330 0.527563 0.807785 -0.097481
C47   C     C_R   0.288714 0.495490 0.853505 0.042737
C48   C     C_R   0.197252 0.471147 0.706296 -0.501275
H40   H     H_    0.510071 0.561969 0.829027 0.162488
H41   H     H_    0.414489 0.629004 0.950211 0.180121
H42   H     H_    0.507004 0.636734 0.076690 0.149244
H43   H     H_    0.291316 0.377839 0.928498 0.157837
H44   H     H_    0.051782 0.429188 0.858835 0.195402
H45   H     H_    0.744270 0.583000 0.147481 0.175983
H46   H     H_    0.159814 0.463751 0.649855 0.172513
H47   H     H_    0.662779 0.529403 0.353939 0.181029
C49   C     C_2   0.603764 0.278819 0.208879 1.187275
O25   O     O_2   0.524448 0.327257 0.190034 -0.538180
O26   O     O_R   0.518827 0.209854 0.225007 -0.693566
H48   H     H_    0.587859 0.178853 0.252603 0.329043
N1    N     N_R   0.842984 0.351315 0.170264 0.289471
O27   O     O_R   0.845941 0.426647 0.187403 -0.339872
O28   O     O_R   0.867746 0.323198 0.105465 -0.233870
C50   C     C_2   0.872054 0.224924 0.201583 1.123067
O29   O     O_2   0.793653 0.160861 0.175287 -0.585275
O30   O     O_R   0.041825 0.233742 0.207772 -0.667967
H49   H     H_    0.083788 0.184983 0.184428 0.390678
N2    N     N_R   0.201567 0.718110 0.796048 0.290592
O31   O     O_R   0.320069 0.703795 0.838334 -0.385867
O32   O     O_R   0.202112 0.788916 0.781800 -0.305098
N3    N     N_R   0.194358 0.161399 0.316277 0.279055
O33   O     O_R   0.245686 0.113034 0.267048 -0.293167
O34   O     O_R   0.043094 0.148721 0.329310 -0.417389
N4    N     N_R   0.752851 0.206593 0.655529 0.225619
O35   O     O_R   0.773293 0.241258 0.601145 -0.349494
O36   O     O_R   0.666078 0.136910 0.645690 -0.374068
N5    N     N_R   0.022204 0.244059 0.713655 0.175955
O37   O     O_R   0.079617 0.283103 0.666611 -0.485110
O38   O     O_R   0.102339 0.190122 0.732912 -0.432672
N6    N     N_R   0.554316 0.328801 0.840400 0.255646
O39   O     O_R   0.623769 0.293848 0.887341 -0.308453
O40   O     O_R   0.586941 0.404908 0.846740 -0.383436
N7    N     N_R   0.708676 0.001702 0.435963 0.228701
O41   O     O_R   0.575283 0.028404 0.452107 -0.377687
O42   O     O_R   0.705430 0.950152 0.378598 -0.360684
N8    N     N_R   0.242238 0.446157 0.173871 0.262461
O43   O     O_R   0.193861 0.375115 0.184277 -0.242582
O44   O     O_R   0.150983 0.477942 0.131484 -0.334423
N9    N     N_R   0.415513 0.364955 0.054847 0.254335
O45   O     O_R   0.288682 0.311019 0.049435 -0.278408
O46   O     O_R   0.558762 0.343254 0.055014 -0.275124

loop_
_geom_bond_atom_site_label_1
_geom_bond_atom_site_label_2
_geom_bond_distance
_ccdc_geom_bond_type
C21   C22   1.333582 D    
C17   H38   1.086363 S    
H31   C16   1.110284 S    
P2    Ba1   3.379129 S    
C38   C39   1.404674 A    
P3    O9    1.544488 D    
C16   H32   1.111225 S    
P5    O17   1.781688 S    
C19   C20   1.356220 D    
C43   C44   1.402404 A    
C4    C5    1.562472 S    
C50   O30   1.395177 S    
P3    O11   1.749680 S    
P6    C18   1.855015 S    
C5    N1    1.471277 S    
C13   N5    1.464206 S    
O4    P6    1.546828 D    
C8    H14   1.100529 S    
N4    O36   1.302980 A    
P1    O1    1.528601 D    
N2    O32   1.301040 A    
P2    C32   1.872428 S    
O3    P6    1.741033 S    
O2    Ba2   2.836699 S    
O12   Ba2   2.834020 S    
C41   N9    1.424770 S    
C40   H43   1.083340 S    
C33   C34   1.426461 A    
C11   H21   1.109439 S    
C33   N8    1.433680 S    
C16   N6    1.460500 S    
C35   C36   1.401791 A    
O2    Ba1   2.918220 S    
C29   N7    1.438134 S    
P4    O15   1.753704 S    
C12   H23   1.107527 S    
C44   C48   1.387156 A    
C37   C38   1.405170 A    
C31   C32   1.397687 A    
P3    C36   1.845259 S    
C20   C28   1.508092 S    
C37   H42   1.082598 S    
C25   C30   1.388809 A    
C45   C46   1.401929 A    
N4    O35   1.293253 A    
O26   H48   1.011270 S    
P7    O22   1.746981 S    
P8    O23   1.545805 D    
P2    O10   1.767491 S    
P7    C45   1.821029 S    
N8    O44   1.301510 A    
C14   H26   1.107208 S    
O10   C8    1.410712 S    
O16   P7    1.755940 S    
N6    O40   1.298935 A    
C1    H2    1.110080 S    
C5    C49   1.530970 S    
O3    Ba1   2.809169 S    
O13   Ba2   2.919077 S    
P1    C22   1.846559 S    
C17   C22   1.316345 D    
C27   C29   1.521973 S    
C43   H44   1.083316 S    
C13   C14   1.545158 S    
P4    O13   1.580980 S    
C39   C40   1.396801 A    
O8    Ba1   2.754555 S    
P5    O18   1.542192 D    
N9    O46   1.298541 A    
Ba1   O16   2.781024 S    
C38   H41   1.082273 S    
P1    O5    1.748557 S    
C2    C3    1.519482 S    
C18   C19   1.514038 S    
C48   H46   1.082811 S    
N3    O34   1.300730 A    
H1    C10   1.111110 S    
C9    H16   1.102644 S    
C39   C47   1.485623 S    
C20   C21   1.510380 S    
C15   C16   1.542580 S    
P5    O19   1.776495 S    
O14   Ba2   2.808556 S    
C7    N2    1.460416 S    
C4    H8    1.111467 S    
C43   C47   1.409275 A    
O14   P8    1.744164 S    
P1    O2    1.580830 S    
C45   C48   1.390241 A    
C12   H24   1.110648 S    
C49   O26   1.398835 S    
C15   H29   1.102691 S    
N8    O43   1.297541 A    
O16   Ba2   2.913387 S    
C6    H10   1.104502 S    
C34   C35   1.408523 A    
O17   Ba2   2.755206 S    
C34   C42   1.505149 S    
C14   H28   1.111329 S    
P1    Ba1   3.378569 S    
C7    H12   1.108141 S    
C28   C29   1.372568 D    
C1    H19   1.110840 S    
C46   C47   1.407588 A    
C24   C30   1.391025 A    
C1    H3    1.110681 S    
C3    H25   1.108926 S    
C40   C41   1.399117 A    
C26   H37   1.079411 S    
P2    O20   1.555907 S    
O5    C6    1.397256 S    
P2    O7    1.514497 D    
C31   H47   1.082174 S    
P3    O8    1.741514 S    
Ba1   O13   2.835922 S    
C13   N4    1.463473 S    
C3    H7    1.110551 S    
C17   C18   1.513396 S    
P4    O12   1.528775 D    
O6    P6    1.753725 S    
O7    Ba1   2.817702 S    
C25   C26   1.408315 A    
Ba2   O21   2.817825 S    
N9    O45   1.301111 A    
C32   C33   1.426830 A    
C46   H40   1.083195 S    
C10   H18   1.110420 S    
N7    O41   1.301602 A    
C6    C7    1.528419 S    
C2    H5    1.112395 S    
C3    H6    1.111099 S    
C8    C9    1.534442 S    
C5    C50   1.527176 S    
Ba1   O20   2.914233 S    
N3    O33   1.300659 A    
N1    O28   1.303483 A    
O30   H49   1.013205 S    
C41   C42   1.419147 A    
N1    O27   1.295799 A    
C4    H9    1.099921 S    
C50   O29   1.223715 D    
C23   H34   1.077916 S    
P8    C24   1.837705 S    
C2    H4    1.109444 S    
C8    H15   1.106702 S    
C49   O25   1.216809 D    
C11   H20   1.109428 S    
C19   H36   1.081890 S    
N2    O31   1.300336 A    
C6    H11   1.110441 S    
C31   C36   1.396929 A    
C28   H35   1.079940 S    
C11   C12   1.522401 S    
C37   C42   1.408973 A    
N7    O42   1.300495 A    
C26   C27   1.424459 A    
C7    H13   1.111728 S    
N5    O38   1.302280 A    
C35   H45   1.083221 S    
C23   C27   1.418555 A    
C12   H22   1.110894 S    
C15   O24   1.415086 S    
Ba2   O20   2.780426 S    
C11   O22   1.396832 S    
P5    C44   1.827146 S    
O1    Ba1   2.833700 S    
C9    N3    1.457032 S    
C9    H17   1.107290 S    
P7    O21   1.569366 D    
P8    O24   1.760069 S    
C30   H39   1.082076 S    
O11   C2    1.404739 S    
N5    O37   1.293628 A    
C14   H27   1.111402 S    
C1    C10   1.519076 S    
O19   C13   1.424673 S    
O6    C10   1.404640 S    
C21   H33   1.084036 S    
C23   C24   1.402845 A    
C15   H30   1.094070 S    
C4    O15   1.394724 S    
P4    C25   1.850789 S    
P4    Ba2   3.379037 S    
N6    O39   1.300579 A    
Ba1   Ba2   4.558818 S    
