data_mof_unit_43662.cif
_audit_creation_date              2012-12-11T16:44:16-0500
_audit_creation_method            fapswitch 2.2
_symmetry_space_group_name_H-M    P1
_symmetry_Int_Tables_number       1
_space_group_crystal_system       triclinic
_cell_length_a                    26.999395
_cell_length_b                    7.199964
_cell_length_c                    22.871646
_cell_angle_alpha                 89.994006
_cell_angle_beta                  101.807427
_cell_angle_gamma                 89.99406
_cell_volume                      4352.04991442

loop_
_atom_site_label
_atom_site_type_symbol
_atom_type_description
_atom_site_fract_x
_atom_site_fract_y
_atom_site_fract_z
_atom_type_partial_charge
O1    O     O_R   0.707300 0.594030 0.176840 -0.538874
O2    O     O_R   0.292700 0.405970 0.823160 -0.527569
O3    O     O_R   0.792700 0.094030 0.323160 -0.538873
O4    O     O_R   0.207300 0.905970 0.676840 -0.527701
O5    O     O_R   0.697330 0.262360 0.295660 -0.543318
O6    O     O_R   0.302670 0.737640 0.704340 -0.536458
O7    O     O_R   0.802670 0.762360 0.204340 -0.543317
O8    O     O_R   0.197330 0.237640 0.795660 -0.536417
C1    C     C_R   0.684874 0.432361 0.311939 0.681597
C2    C     C_R   0.315055 0.567688 0.688032 0.671121
C3    C     C_R   0.815128 0.932360 0.188062 0.681511
C4    C     C_R   0.184944 0.067690 0.811969 0.671274
O9    O     O_R   0.701410 0.264250 0.175600 -0.523729
O10   O     O_R   0.298590 0.735750 0.824400 -0.541114
O11   O     O_R   0.798590 0.764250 0.324400 -0.523618
O12   O     O_R   0.201410 0.235750 0.675600 -0.541095
O13   O     O_R   0.796800 0.094950 0.202240 -0.533596
O14   O     O_R   0.203200 0.905050 0.797760 -0.539006
O15   O     O_R   0.703200 0.594950 0.297760 -0.533567
O16   O     O_R   0.296800 0.405050 0.702240 -0.538969
C5    C     C_R   0.689648 0.432320 0.153314 0.724014
C6    C     C_R   0.310399 0.567223 0.846625 0.727863
C7    C     C_R   0.810351 0.932285 0.346689 0.724016
C8    C     C_R   0.189601 0.067258 0.653372 0.727833
O17   O     O_3   0.781290 0.427390 0.258880 -0.374550
O18   O     O_3   0.218710 0.572610 0.741120 -0.373198
O19   O     O_3   0.718710 0.927390 0.241120 -0.374567
O20   O     O_3   0.281290 0.072610 0.758880 -0.373156
V1    V     V_3+5 0.744190 0.152150 0.248350 1.429532
V2    V     V_3+5 0.255810 0.847850 0.751650 1.425305
V3    V     V_3+5 0.755810 0.652150 0.251650 1.429640
V4    V     V_3+5 0.244190 0.347850 0.748350 1.425469
C9    C     C_R   0.155637 0.057675 0.593831 -0.055209
C10   C     C_R   0.844867 0.933289 0.406005 -0.058132
C11   C     C_R   0.344363 0.557457 0.906160 -0.055224
C12   C     C_R   0.655148 0.433498 0.093993 -0.057963
C13   C     C_R   0.143600 0.055540 0.486117 -0.152530
C14   C     C_R   0.861570 0.839971 0.509775 -0.154032
C15   C     C_R   0.356345 0.553312 0.013862 -0.152503
C16   C     C_R   0.638580 0.341808 0.990085 -0.153986
C17   C     C_R   0.175558 0.077384 0.542221 0.181284
C18   C     C_R   0.827168 0.869266 0.455858 0.185943
C19   C     C_R   0.324393 0.575775 0.957779 0.181325
C20   C     C_R   0.672930 0.370557 0.044075 0.185833
C21   C     C_R   0.103893 0.018719 0.588518 -0.262751
C22   C     C_R   0.896780 0.969425 0.411181 -0.265681
C23   C     C_R   0.396147 0.519244 0.911443 -0.262815
C24   C     C_R   0.603206 0.469029 0.088828 -0.265683
C25   C     C_R   0.071772 0.980701 0.532248 0.050891
C26   C     C_R   0.932942 0.921382 0.463610 0.050503
C27   C     C_R   0.428268 0.480495 0.967659 0.050918
C28   C     C_R   0.567110 0.421503 0.036297 0.050524
C29   C     C_R   0.092120 0.007686 0.480464 0.051046
C30   C     C_R   0.914106 0.862944 0.514142 0.052034
C31   C     C_R   0.407866 0.506096 0.019468 0.051046
C32   C     C_R   0.586022 0.364270 0.985697 0.052030
C33   C     C_R   0.019834 0.923443 0.525736 -0.045640
C34   C     C_R   0.986871 0.932992 0.467931 -0.046100
C35   C     C_R   0.480247 0.423769 0.974106 -0.045642
C36   C     C_R   0.513171 0.432528 0.031948 -0.046118
C37   C     C_R   0.009824 0.939439 0.416891 0.165204
C38   C     C_R   0.000115 0.844146 0.573520 0.164166
C39   C     C_R   0.490182 0.437610 0.082973 0.165207
C40   C     C_R   0.500052 0.345708 0.926203 0.164211
C41   C     C_R   0.061612 0.980073 0.423572 0.186852
C42   C     C_R   0.947748 0.818964 0.567749 0.186936
C43   C     C_R   0.438363 0.477689 0.076325 0.186836
C44   C     C_R   0.552440 0.320994 0.931985 0.186950
C45   C     C_R   0.865044 0.114654 0.125853 -0.142958
C46   C     C_R   0.139967 0.891985 0.880868 -0.164634
C47   C     C_R   0.635014 0.614605 0.374225 -0.143000
C48   C     C_R   0.359985 0.392078 0.619070 -0.164523
C49   C     C_R   0.900735 0.126082 0.089445 -0.168584
C50   C     C_R   0.104483 0.881872 0.917614 -0.144503
C51   C     C_R   0.599325 0.626029 0.410635 -0.168675
C52   C     C_R   0.395470 0.381969 0.582324 -0.144481
C53   C     C_R   0.926062 0.966600 0.075701 0.136390
C54   C     C_R   0.074666 0.036518 0.924917 0.105656
C55   C     C_R   0.573945 0.466595 0.424306 0.136376
C56   C     C_R   0.425336 0.536524 0.575088 0.105633
C57   C     C_R   0.915180 0.795216 0.099832 -0.083456
C58   C     C_R   0.080386 0.200716 0.893706 -0.145501
C59   C     C_R   0.584773 0.295267 0.400101 -0.083496
C60   C     C_R   0.419664 0.700617 0.606366 -0.145459
C61   C     C_R   0.879277 0.783395 0.136188 -0.183572
C62   C     C_R   0.116305 0.211778 0.857388 -0.153722
C63   C     C_R   0.620676 0.283448 0.363746 -0.183663
C64   C     C_R   0.383743 0.711680 0.642682 -0.153838
C65   C     C_R   0.853663 0.943112 0.149745 -0.049446
C66   C     C_R   0.146611 0.057432 0.850446 -0.048750
C67   C     C_R   0.646342 0.443115 0.350260 -0.049442
C68   C     C_R   0.353388 0.557429 0.649556 -0.048775
C69   C     C_R   0.963509 0.861894 0.987968 0.216554
C70   C     C_R   0.037750 0.141530 0.013308 0.213249
C71   C     C_R   0.536437 0.361633 0.511972 0.216599
C72   C     C_R   0.462313 0.641794 0.486766 0.213236
C73   C     C_R   0.999677 0.882950 0.952094 -0.242271
C74   C     C_R   0.001638 0.120171 0.049004 -0.191309
C75   C     C_R   0.500269 0.382701 0.547847 -0.242217
C76   C     C_R   0.498424 0.620423 0.451069 -0.191361
H1    H     H_    0.998469 0.790518 0.914422 0.128522
H2    H     H_    0.003245 0.211451 0.087024 0.144532
H3    H     H_    0.501433 0.290070 0.585468 0.128506
H4    H     H_    0.496860 0.711904 0.413098 0.144509
C77   C     C_R   0.036705 0.022742 0.963714 -0.000162
C78   C     C_R   0.964258 0.981487 0.037050 0.022429
C79   C     C_R   0.463300 0.522748 0.536294 -0.000134
C80   C     C_R   0.535747 0.481484 0.462957 0.022459
N1    N     N_3   0.083795 0.990330 0.371639 -0.676238
H5    H     H_    0.064276 0.090450 0.342667 0.242593
H6    H     H_    0.079552 0.861650 0.350009 0.264456
N2    N     N_3   0.928490 0.743003 0.616798 -0.680928
H7    H     H_    0.943740 0.610327 0.626415 0.262143
H8    H     H_    0.940326 0.827615 0.654201 0.238903
N3    N     N_3   0.416137 0.486516 0.128249 -0.676255
H9    H     H_    0.435571 0.586271 0.157425 0.242592
H10   H     H_    0.420457 0.357427 0.149632 0.264440
N4    N     N_3   0.571783 0.246273 0.882829 -0.680911
H11   H     H_    0.556611 0.113624 0.872951 0.262122
H12   H     H_    0.559927 0.331519 0.845576 0.238954
N5    N     N_3   0.925199 0.722279 0.973259 -0.678755
H13   H     H_    0.905365 0.746536 0.929659 0.234937
H14   H     H_    0.943135 0.593334 0.973883 0.224999
N6    N     N_3   0.076256 0.279548 0.030197 -0.666486
H15   H     H_    0.071772 0.382113 0.997288 0.221974
H16   H     H_    0.111647 0.216941 0.033355 0.242307
N7    N     N_3   0.574687 0.221739 0.526616 -0.678812
H17   H     H_    0.594524 0.245667 0.570233 0.234935
H18   H     H_    0.556699 0.092889 0.525916 0.225022
N8    N     N_3   0.423864 0.780097 0.469938 -0.666527
H19   H     H_    0.428389 0.882503 0.502892 0.221937
H20   H     H_    0.388446 0.717702 0.466746 0.242325
H21   H     H_    0.907894 0.033857 0.373483 0.123581
H22   H     H_    0.089395 0.023388 0.628911 0.119436
H23   H     H_    0.592016 0.532666 0.126603 0.123453
H24   H     H_    0.410661 0.524936 0.871073 0.119441
N9    N     N_3   0.774151 0.831725 0.451061 -0.669829
H25   H     H_    0.754994 0.958632 0.444361 0.218030
H26   H     H_    0.767357 0.777157 0.491051 0.228804
N10   N     N_3   0.228406 0.118167 0.547162 -0.678983
H27   H     H_    0.234567 0.253701 0.563440 0.224197
H28   H     H_    0.237928 0.116866 0.505094 0.228693
N11   N     N_3   0.725978 0.333611 0.048867 -0.669933
H29   H     H_    0.745044 0.460645 0.055771 0.218143
H30   H     H_    0.732839 0.279827 0.008808 0.228851
N12   N     N_3   0.271502 0.615749 0.952866 -0.678886
H31   H     H_    0.265209 0.751459 0.936778 0.224034
H32   H     H_    0.261962 0.613549 0.994922 0.228702
H33   H     H_    0.159557 0.074110 0.446763 0.159754
H34   H     H_    0.846954 0.793401 0.547970 0.158059
H35   H     H_    0.340348 0.570814 0.053230 0.159737
H36   H     H_    0.653255 0.296114 0.951838 0.158066
N13   N     N_3   0.984857 0.870940 0.359313 -0.690516
H37   H     H_    0.957543 0.770832 0.362583 0.245252
H38   H     H_    0.970406 0.981428 0.331373 0.223951
N14   N     N_3   0.031891 0.754058 0.623684 -0.690126
H39   H     H_    0.065643 0.705870 0.613511 0.249894
H40   H     H_    0.037858 0.841608 0.660883 0.223165
N15   N     N_3   0.515167 0.368232 0.140435 -0.690506
H41   H     H_    0.542558 0.268569 0.137002 0.245332
H42   H     H_    0.529529 0.478322 0.168587 0.223942
N16   N     N_3   0.468361 0.256329 0.875840 -0.690191
H43   H     H_    0.434630 0.207463 0.885884 0.249839
H44   H     H_    0.462364 0.344622 0.838815 0.223193
H45   H     H_    0.846157 0.240971 0.134865 0.136601
H46   H     H_    0.162539 0.770121 0.876828 0.140128
H47   H     H_    0.653945 0.740879 0.365270 0.136602
H48   H     H_    0.337374 0.270291 0.623057 0.140305
H49   H     H_    0.908204 0.259974 0.071424 0.114285
H50   H     H_    0.100506 0.753163 0.940771 0.114792
H51   H     H_    0.591899 0.759879 0.428713 0.114352
H52   H     H_    0.399410 0.253336 0.559116 0.114850
H53   H     H_    0.934874 0.670440 0.091131 0.124643
H54   H     H_    0.056547 0.319802 0.896639 0.103014
H55   H     H_    0.565036 0.170537 0.408742 0.124696
H56   H     H_    0.443542 0.819615 0.603491 0.103034
H57   H     H_    0.871860 0.649054 0.153881 0.124853
H58   H     H_    0.119818 0.340624 0.834149 0.126858
H59   H     H_    0.628050 0.149150 0.345994 0.124880
H60   H     H_    0.380267 0.840444 0.665975 0.126867

loop_
_geom_bond_atom_site_label_1
_geom_bond_atom_site_label_2
_ccdc_geom_bond_type
O17   V3    S    
C59   C63   A    
C25   C29   A    
C70   C77   A    
O1    C5    A    
C59   H55   S    
C23   H24   S    
O19   V1    S    
C9    C21   A    
C24   H23   S    
O3    C7    A    
C10   C18   A    
C39   N15   S    
C56   C60   A    
C11   C23   A    
C1    C67   S    
N2    H8    S    
C25   C33   A    
C33   C38   A    
C5    C12   S    
O7    C3    A    
C6    C11   S    
N9    H26   S    
C56   C79   S    
C21   H22   S    
C26   C30   A    
C54   C77   S    
C40   C44   A    
C4    C66   S    
C53   C78   S    
N10   H28   S    
C14   C18   A    
N6    H16   S    
C63   C67   A    
C46   H46   S    
C48   C68   A    
C71   C75   A    
C70   C74   A    
N11   H29   S    
C15   H35   S    
C45   H45   S    
O1    V3    S    
O13   V1    S    
C16   H36   S    
O2    V4    S    
C32   C44   A    
O3    V1    S    
C43   N3    S    
N4    H11   S    
C17   N10   S    
C28   C36   A    
C44   N4    S    
N14   H40   S    
C1    O15   A    
C76   H4    S    
C15   C31   A    
C58   H54   S    
C2    O16   A    
C16   C32   A    
C46   C50   A    
C52   C56   A    
N15   H42   S    
C45   C49   A    
C10   C22   A    
C21   C25   A    
N3    H9    S    
N13   H38   S    
C11   C19   A    
C16   C20   A    
N12   H32   S    
C48   C52   A    
C13   C29   A    
C34   C37   A    
O11   C7    A    
O15   V3    S    
C35   C36   A    
O12   C8    A    
C47   H47   S    
C18   N9    S    
C48   H48   S    
C52   H52   S    
C46   C66   A    
O10   V2    S    
C62   H58   S    
C45   C65   A    
N2    H7    S    
C57   C61   A    
C64   H60   S    
N16   H44   S    
C39   C43   A    
C76   C80   A    
O7    V3    S    
C38   C42   A    
C26   C34   A    
C64   C68   A    
N10   H27   S    
C40   N16   S    
C75   H3    S    
C62   C66   A    
C61   C65   A    
O18   V4    S    
C23   C27   A    
N3    H10   S    
C74   H2    S    
C63   H59   S    
C37   N13   S    
O8    V4    S    
N8    H20   S    
N7    H18   S    
O5    C1    A    
C37   C41   A    
C69   C78   A    
C3    C65   S    
C31   C43   A    
N15   H41   S    
C14   C30   A    
C53   C57   A    
O8    C4    A    
C7    C10   S    
C73   H1    S    
C69   N5    S    
C35   C40   A    
O9    C5    A    
C41   N1    S    
N5    H13   S    
O14   V2    S    
O6    V2    S    
C72   C79   A    
C36   C39   A    
C51   H51   S    
C12   C20   A    
C27   C35   A    
C49   H49   S    
N7    H17   S    
O5    V1    S    
C69   C73   A    
O12   V4    S    
N5    H14   S    
C29   C41   A    
C72   N8    S    
N12   H31   S    
O16   V4    S    
O9    V1    S    
N11   H30   S    
N14   H39   S    
C60   C64   A    
C13   H33   S    
C54   C58   A    
C3    O13   A    
O6    C2    A    
C15   C19   A    
O11   V3    S    
C30   C42   A    
N16   H43   S    
C75   C79   A    
N9    H25   S    
C22   C26   A    
C8    C9    S    
C74   C78   A    
C9    C17   A    
O10   C6    A    
N1    H6    S    
N8    H19   S    
C73   C77   A    
C19   N12   S    
C58   C62   A    
N1    H5    S    
C22   H21   S    
C47   C51   A    
C33   C34   A    
C20   N11   S    
O4    C8    A    
C72   C76   A    
O20   V2    S    
O2    C6    A    
C38   N14   S    
C55   C80   S    
C12   C24   A    
C27   C31   A    
C13   C17   A    
N4    H12   S    
C50   H50   S    
C71   C80   A    
C2    C68   S    
C55   C59   A    
C71   N7    S    
C24   C28   A    
C47   C67   A    
C61   H57   S    
C50   C54   A    
C4    O14   A    
C49   C53   A    
C42   N2    S    
N13   H37   S    
C60   H56   S    
C51   C55   A    
C14   H34   S    
O4    V2    S    
C28   C32   A    
C57   H53   S    
N6    H15   S    
C70   N6    S    
