data_mof_unit_22071.cif
_audit_creation_date              2012-12-11T14:38:16-0500
_audit_creation_method            fapswitch 2.2
_symmetry_space_group_name_H-M    P1
_symmetry_Int_Tables_number       1
_space_group_crystal_system       monoclinic
_cell_length_a                    19.438429
_cell_length_b                    11.188275
_cell_length_c                    19.654067
_cell_angle_alpha                 90.0
_cell_angle_beta                  96.419273
_cell_angle_gamma                 90.0
_cell_volume                      4247.61639989

loop_
_atom_site_label
_atom_site_type_symbol
_atom_type_description
_atom_site_fract_x
_atom_site_fract_y
_atom_site_fract_z
_atom_type_partial_charge
C1    C     C_R   0.723944 0.955746 0.361172 0.576965
C2    C     C_R   0.276055 0.955746 0.638828 0.576965
C3    C     C_R   0.223944 0.455746 0.361172 0.576965
C4    C     C_R   0.776055 0.455746 0.638828 0.576965
C5    C     C_3   0.680244 0.448897 0.457082 -0.205863
C6    C     C_3   0.319756 0.448897 0.542918 -0.205862
C7    C     C_3   0.180244 0.948897 0.457082 -0.205862
C8    C     C_3   0.819756 0.948897 0.542918 -0.205862
C9    C     C_3   0.826247 0.484617 0.529220 -0.134937
C10   C     C_3   0.173753 0.484617 0.470780 -0.134937
C11   C     C_3   0.326247 0.984617 0.529220 -0.134937
C12   C     C_3   0.673753 0.984617 0.470780 -0.134937
C13   C     C_3   0.762823 0.294391 0.552985 -0.245950
C14   C     C_3   0.237177 0.294391 0.447015 -0.245950
C15   C     C_3   0.262823 0.794391 0.552985 -0.245950
C16   C     C_3   0.737177 0.794391 0.447015 -0.245950
C17   C     C_3   0.764031 0.428668 0.565805 0.088138
C18   C     C_3   0.235969 0.428668 0.434195 0.088138
C19   C     C_3   0.264031 0.928668 0.565805 0.088138
C20   C     C_3   0.735969 0.928668 0.434195 0.088138
C21   C     C_3   0.747178 0.394541 0.434377 0.015256
C22   C     C_3   0.252821 0.394541 0.565623 0.015256
C23   C     C_3   0.247179 0.894541 0.434377 0.015256
C24   C     C_3   0.752821 0.894541 0.565623 0.015256
C25   C     C_3   0.807703 0.481593 0.450804 -0.263549
C26   C     C_3   0.192297 0.481593 0.549196 -0.263549
C27   C     C_3   0.307703 0.981593 0.450804 -0.263549
C28   C     C_3   0.692297 0.981593 0.549196 -0.263549
C29   C     C_3   0.764980 0.278239 0.476148 -0.237761
C30   C     C_3   0.235020 0.278239 0.523852 -0.237761
C31   C     C_3   0.264979 0.778239 0.476148 -0.237761
C32   C     C_3   0.735020 0.778239 0.523852 -0.237761
C33   C     C_3   0.555064 0.235796 0.952774 -0.242590
C34   C     C_3   0.572416 0.234566 0.030602 -0.222920
C35   C     C_3   0.055064 0.735796 0.952774 -0.242590
C36   C     C_3   0.072416 0.734565 0.030602 -0.222920
C37   C     C_3   0.427584 0.234564 0.969398 -0.222920
C38   C     C_3   0.508171 0.040585 0.039242 -0.233953
C39   C     C_3   0.927584 0.734565 0.969398 -0.222920
C40   C     C_3   0.008171 0.540585 0.039242 -0.233953
C41   C     C_3   0.491830 0.040585 0.960758 -0.233954
C42   C     C_3   0.444935 0.235795 0.047226 -0.242590
C43   C     C_3   0.991829 0.540585 0.960758 -0.233953
C44   C     C_3   0.944936 0.735796 0.047226 -0.242590
C45   C     C_R   0.536077 0.180521 0.338509 0.539856
C46   C     C_R   0.463923 0.180521 0.661491 0.539856
C47   C     C_R   0.036077 0.680521 0.338509 0.539856
C48   C     C_R   0.963923 0.680521 0.661491 0.539856
C49   C     C_3   0.485627 0.171500 0.933900 0.052720
C50   C     C_3   0.514373 0.171500 0.066100 0.052720
C51   C     C_3   0.985627 0.671500 0.933900 0.052720
C52   C     C_3   0.014373 0.671500 0.066100 0.052720
C53   C     C_1   0.757308 0.414601 0.900820 -0.011845
C54   C     C_1   0.242692 0.414601 0.099180 -0.011845
C55   C     C_1   0.257308 0.914601 0.900820 -0.011845
C56   C     C_1   0.742692 0.914601 0.099180 -0.011845
C57   C     C_1   0.736606 0.365792 0.027127 -0.052528
C58   C     C_1   0.263394 0.365792 0.972873 -0.052528
C59   C     C_1   0.236606 0.865792 0.027127 -0.052528
C60   C     C_1   0.763394 0.865792 0.972873 -0.052528
C61   C     C_1   0.745860 0.390108 0.958228 -0.047169
C62   C     C_1   0.254140 0.390108 0.041772 -0.047169
C63   C     C_1   0.245860 0.890108 0.958228 -0.047169
C64   C     C_1   0.754140 0.890108 0.041772 -0.047169
C65   C     C_1   0.730298 0.344167 0.086233 -0.021318
C66   C     C_1   0.269702 0.344167 0.913767 -0.021318
C67   C     C_1   0.230298 0.844167 0.086233 -0.021318
C68   C     C_1   0.769702 0.844167 0.913767 -0.021318
C69   C     C_R   0.738974 0.361006 0.361742 0.550125
C70   C     C_R   0.261026 0.361006 0.638258 0.550125
C71   C     C_R   0.238974 0.861006 0.361742 0.550125
C72   C     C_R   0.761026 0.861006 0.638258 0.550125
C73   C     C_R   0.722931 0.952842 0.163910 0.539780
C74   C     C_R   0.277069 0.952843 0.836090 0.539781
C75   C     C_R   0.222931 0.452842 0.163910 0.539780
C76   C     C_R   0.777069 0.452842 0.836090 0.539781
C77   C     C_R   0.534393 0.179002 0.140101 0.532851
C78   C     C_R   0.465607 0.179002 0.859899 0.532850
C79   C     C_R   0.034393 0.679002 0.140101 0.532851
C80   C     C_R   0.965607 0.679002 0.859899 0.532851
C81   C     C_R   0.723078 0.312832 0.155923 0.548839
C82   C     C_R   0.276922 0.312832 0.844077 0.548839
C83   C     C_R   0.223078 0.812832 0.155923 0.548839
C84   C     C_R   0.776922 0.812832 0.844077 0.548839
C85   C     C_1   0.485584 0.173769 0.594392 0.007777
C86   C     C_1   0.514416 0.173769 0.405608 0.007777
C87   C     C_1   0.985584 0.673769 0.594392 0.007777
C88   C     C_1   0.014416 0.673770 0.405608 0.007777
C89   C     C_1   0.504196 0.171246 0.464869 -0.018965
C90   C     C_1   0.495804 0.171246 0.535131 -0.018965
C91   C     C_1   0.004196 0.671246 0.464869 -0.018965
C92   C     C_1   0.995804 0.671246 0.535131 -0.018965
C93   C     C_3   0.691261 0.475526 0.534200 0.088783
C94   C     C_3   0.308739 0.475526 0.465800 0.088783
C95   C     C_3   0.191261 0.975526 0.534200 0.088783
C96   C     C_3   0.808739 0.975526 0.465800 0.088783
Cr1   Cr    Cr6+3 0.765780 0.160710 0.267420 1.040704
Cr2   Cr    Cr6+3 0.234220 0.160710 0.732580 1.040704
Cr3   Cr    Cr6+3 0.265780 0.660710 0.267420 1.040704
Cr4   Cr    Cr6+3 0.734220 0.660710 0.732580 1.040705
Cr5   Cr    Cr6+3 0.612200 0.009560 0.248850 1.031537
Cr6   Cr    Cr6+3 0.387800 0.009560 0.751150 1.031537
Cr7   Cr    Cr6+3 0.112200 0.509560 0.248850 1.031537
Cr8   Cr    Cr6+3 0.887800 0.509560 0.751150 1.031537
Cr9   Cr    Cr6+3 0.616030 0.323720 0.248510 1.022270
Cr10  Cr    Cr6+3 0.383970 0.323720 0.751490 1.022271
Cr11  Cr    Cr6+3 0.116030 0.823720 0.248510 1.022271
Cr12  Cr    Cr6+3 0.883970 0.823720 0.751490 1.022270
H1    H     H_    0.688959 0.571227 0.541795 0.127919
H2    H     H_    0.311041 0.571227 0.458205 0.127919
H3    H     H_    0.188959 0.071227 0.541795 0.127918
H4    H     H_    0.811041 0.071227 0.458205 0.127919
H5    H     H_    0.818885 0.253271 0.468492 0.150429
H6    H     H_    0.181115 0.253271 0.531507 0.150429
H7    H     H_    0.318885 0.753271 0.468492 0.150429
H8    H     H_    0.681115 0.753271 0.531507 0.150429
H9    H     H_    0.852976 0.455308 0.423918 0.156178
H10   H     H_    0.147024 0.455308 0.576082 0.156178
H11   H     H_    0.352976 0.955308 0.423918 0.156178
H12   H     H_    0.647024 0.955308 0.576082 0.156178
H13   H     H_    0.552165 0.329996 0.934395 0.145232
H14   H     H_    0.622296 0.186617 0.043796 0.105391
H15   H     H_    0.052166 0.829995 0.934395 0.145232
H16   H     H_    0.122296 0.686616 0.043796 0.105391
H17   H     H_    0.596866 0.190563 0.928105 0.122518
H18   H     H_    0.579641 0.328577 0.048530 0.147952
H19   H     H_    0.096866 0.690563 0.928105 0.122518
H20   H     H_    0.079642 0.828577 0.048530 0.147952
H21   H     H_    0.420358 0.328576 0.951470 0.147952
H22   H     H_    0.557501 0.991307 0.053186 0.149500
H23   H     H_    0.920358 0.828577 0.951470 0.147952
H24   H     H_    0.057501 0.491307 0.053186 0.149500
H25   H     H_    0.447834 0.329995 0.065605 0.145232
H26   H     H_    0.533400 0.992721 0.937140 0.132007
H27   H     H_    0.947834 0.829995 0.065605 0.145232
H28   H     H_    0.033400 0.492721 0.937140 0.132007
H29   H     H_    0.442500 0.991306 0.946814 0.149500
H30   H     H_    0.403133 0.190561 0.071895 0.122518
H31   H     H_    0.942499 0.491307 0.946814 0.149500
H32   H     H_    0.903133 0.690563 0.071895 0.122518
H33   H     H_    0.466601 0.992720 0.062860 0.132008
H34   H     H_    0.377704 0.186615 0.956204 0.105391
H35   H     H_    0.966600 0.492721 0.062860 0.132007
H36   H     H_    0.877704 0.686616 0.956204 0.105391
H37   H     H_    0.636637 0.384687 0.445819 0.172501
H38   H     H_    0.363363 0.384687 0.554181 0.172501
H39   H     H_    0.136637 0.884687 0.445819 0.172502
H40   H     H_    0.863363 0.884687 0.554181 0.172501
H41   H     H_    0.666072 0.532422 0.428156 0.096647
H42   H     H_    0.333928 0.532422 0.571843 0.096647
H43   H     H_    0.166072 0.032422 0.428156 0.096647
H44   H     H_    0.833928 0.032422 0.571843 0.096647
H45   H     H_    0.339082 0.075950 0.546220 0.085275
H46   H     H_    0.660918 0.075950 0.453780 0.085275
H47   H     H_    0.839082 0.575950 0.546220 0.085275
H48   H     H_    0.160918 0.575950 0.453780 0.085275
H49   H     H_    0.291983 0.070136 0.430963 0.096021
H50   H     H_    0.708017 0.070136 0.569037 0.096021
H51   H     H_    0.791983 0.570136 0.430963 0.096021
H52   H     H_    0.208017 0.570136 0.569037 0.096021
H53   H     H_    0.807225 0.247342 0.582014 0.125017
H54   H     H_    0.192774 0.247342 0.417986 0.125017
H55   H     H_    0.307225 0.747342 0.582014 0.125017
H56   H     H_    0.692774 0.747342 0.417986 0.125017
H57   H     H_    0.714866 0.256190 0.569272 0.176119
H58   H     H_    0.285134 0.256190 0.430728 0.176119
H59   H     H_    0.214866 0.756190 0.569272 0.176119
H60   H     H_    0.785134 0.756190 0.430728 0.176119
H61   H     H_    0.729589 0.208331 0.456778 0.104830
H62   H     H_    0.270411 0.208331 0.543222 0.104830
H63   H     H_    0.229589 0.708331 0.456778 0.104830
H64   H     H_    0.770411 0.708331 0.543222 0.104830
O1    O     O_R   0.783100 0.287550 0.345460 -0.520779
O2    O     O_R   0.216900 0.287550 0.654540 -0.520779
O3    O     O_R   0.283100 0.787550 0.345460 -0.520779
O4    O     O_R   0.716900 0.787550 0.654540 -0.520779
O5    O     O_R   0.554710 0.081900 0.170950 -0.509095
O6    O     O_R   0.445290 0.081900 0.829050 -0.509095
O7    O     O_R   0.054710 0.581900 0.170950 -0.509095
O8    O     O_R   0.945290 0.581900 0.829050 -0.509095
O9    O     O_R   0.545650 0.284910 0.163740 -0.527658
O10   O     O_R   0.454350 0.284910 0.836260 -0.527658
O11   O     O_R   0.045650 0.784910 0.163740 -0.527658
O12   O     O_R   0.954350 0.784910 0.836260 -0.527658
O13   O     O_R   0.677950 0.374280 0.185410 -0.489588
O14   O     O_R   0.322050 0.374280 0.814590 -0.489587
O15   O     O_R   0.177950 0.874280 0.185410 -0.489588
O16   O     O_R   0.822050 0.874280 0.814590 -0.489587
O17   O     O_3   0.664670 0.164660 0.254930 -0.292168
O18   O     O_3   0.335330 0.164660 0.745070 -0.292168
O19   O     O_3   0.164670 0.664660 0.254930 -0.292168
O20   O     O_3   0.835330 0.664660 0.745070 -0.292169
O21   O     O_R   0.760020 0.037400 0.337700 -0.484613
O22   O     O_R   0.239980 0.037400 0.662300 -0.484613
O23   O     O_R   0.260020 0.537400 0.337700 -0.484613
O24   O     O_R   0.739980 0.537400 0.662300 -0.484613
O25   O     O_R   0.666600 0.921990 0.332020 -0.519375
O26   O     O_R   0.333400 0.921990 0.667980 -0.519375
O27   O     O_R   0.166600 0.421990 0.332020 -0.519375
O28   O     O_R   0.833400 0.421990 0.667980 -0.519375
O29   O     O_R   0.557260 0.082670 0.312540 -0.487240
O30   O     O_R   0.442740 0.082670 0.687460 -0.487241
O31   O     O_R   0.057260 0.582670 0.312540 -0.487240
O32   O     O_R   0.942740 0.582670 0.687460 -0.487241
O33   O     O_R   0.548410 0.285740 0.316480 -0.506830
O34   O     O_R   0.451590 0.285740 0.683520 -0.506830
O35   O     O_R   0.048410 0.785740 0.316480 -0.506830
O36   O     O_R   0.951590 0.785740 0.683520 -0.506830
O37   O     O_R   0.680500 0.375040 0.327000 -0.501750
O38   O     O_R   0.319500 0.375040 0.673000 -0.501750
O39   O     O_R   0.180500 0.875040 0.327000 -0.501750
O40   O     O_R   0.819500 0.875040 0.673000 -0.501750
O41   O     O_R   0.780350 0.286720 0.192720 -0.498069
O42   O     O_R   0.219650 0.286720 0.807280 -0.498069
O43   O     O_R   0.280350 0.786720 0.192720 -0.498069
O44   O     O_R   0.719650 0.786720 0.807280 -0.498069
O45   O     O_R   0.757470 0.036630 0.196110 -0.507079
O46   O     O_R   0.242530 0.036630 0.803890 -0.507079
O47   O     O_R   0.257470 0.536630 0.196110 -0.507079
O48   O     O_R   0.742530 0.536630 0.803890 -0.507079
O49   O     O_R   0.663840 0.921160 0.179280 -0.510300
O50   O     O_R   0.336160 0.921160 0.820720 -0.510300
O51   O     O_R   0.163840 0.421160 0.179280 -0.510300
O52   O     O_R   0.836160 0.421160 0.820720 -0.510301
C97   C     C_1   0.892869 0.420766 0.546754 0.224662
N1    N     N_1   0.944766 0.370925 0.560345 -0.277587
C98   C     C_1   0.107131 0.420766 0.453246 0.224662
N2    N     N_1   0.055234 0.370925 0.439655 -0.277587
C99   C     C_1   0.392869 0.920766 0.546754 0.224663
N3    N     N_1   0.444766 0.870925 0.560345 -0.277587
C100  C     C_1   0.607131 0.920767 0.453246 0.224662
N4    N     N_1   0.555234 0.870925 0.439655 -0.277587
O53   O     O_3   0.637774 0.423857 0.567213 -0.711145
H65   H     H_    0.594929 0.469917 0.552756 0.328823
O54   O     O_3   0.362226 0.423857 0.432787 -0.711146
H66   H     H_    0.405071 0.469918 0.447244 0.328823
O55   O     O_3   0.137774 0.923857 0.567213 -0.711146
H67   H     H_    0.094930 0.969918 0.552757 0.328824
O56   O     O_3   0.862226 0.923857 0.432787 -0.711145
H68   H     H_    0.905070 0.969918 0.447244 0.328823

loop_
_geom_bond_atom_site_label_1
_geom_bond_atom_site_label_2
_ccdc_geom_bond_type
C58   C62   S    
C39   C51   S    
C79   O11   A    
C67   C83   S    
C8    C24   S    
C9    H47   S    
Cr11  O15   S    
C42   H30   S    
C14   C18   S    
C35   C36   S    
C8    C96   S    
Cr12  O36   S    
C83   O15   A    
Cr3   O43   S    
Cr7   O19   S    
C9    C25   S    
C36   H20   S    
C16   H56   S    
C15   C19   S    
C96   H4    S    
C11   C19   S    
C28   H50   S    
C31   H63   S    
C48   O36   A    
C82   O14   A    
C42   H25   S    
Cr8   O32   S    
C13   C29   S    
C16   C20   S    
C8    H44   S    
C10   C18   S    
C75   O47   A    
C72   O40   A    
Cr5   O17   S    
C74   O46   A    
Cr6   O26   S    
Cr2   O2    S    
Cr5   O25   S    
C94   O54   S    
Cr11  O39   S    
C33   C49   S    
C6    C22   S    
Cr3   O23   S    
Cr9   O37   S    
C49   C78   S    
Cr2   O22   S    
C3    C18   S    
C46   O34   A    
C48   O32   A    
C95   O55   S    
Cr1   O21   S    
C37   C42   S    
C26   H52   S    
C51   C80   S    
Cr10  O10   S    
C21   C25   S    
Cr9   O9    S    
Cr7   O51   S    
C43   C51   S    
C82   O42   A    
C55   C74   S    
C13   H57   S    
C58   C66   T    
C40   C43   S    
C81   O41   A    
O56   H68   S    
C71   O3    A    
C78   O6    A    
C6    C94   S    
Cr8   O20   S    
C55   C63   T    
Cr11  O11   S    
C25   H51   S    
C3    O27   A    
O54   H66   S    
C56   C64   T    
C43   H31   S    
C73   O49   A    
C23   C27   S    
C14   H58   S    
C52   C79   S    
O53   H65   S    
Cr11  O35   S    
C36   C52   S    
Cr2   O18   S    
C46   C85   S    
C59   C67   T    
C5    C93   S    
C44   C52   S    
C44   H27   S    
Cr1   O17   S    
C32   H64   S    
C20   C96   S    
C75   O51   A    
C34   H14   S    
C45   O29   A    
Cr1   O41   S    
O55   H67   S    
C33   H13   S    
Cr8   O28   S    
Cr6   O6    S    
C15   H59   S    
Cr4   O20   S    
C69   O1    A    
C14   C30   S    
C31   H7    S    
C41   H26   S    
Cr12  O40   S    
C33   C34   S    
C7    H39   S    
Cr4   O24   S    
Cr7   O31   S    
C34   C50   S    
C5    H37   S    
C37   H34   S    
Cr12  O12   S    
C73   O45   A    
C68   C84   S    
Cr9   O17   S    
Cr1   O1    S    
Cr10  O14   S    
C38   C41   S    
C28   H12   S    
C10   H48   S    
C77   O9    A    
C81   O13   A    
C27   H49   S    
Cr2   O42   S    
C54   C62   T    
C93   O53   S    
C40   C52   S    
C21   C29   S    
C15   C31   S    
C94   H2    S    
C3    O23   A    
C21   C69   S    
C2    O22   A    
C23   C31   S    
C14   H54   S    
C1    O21   A    
C24   C32   S    
Cr4   O4    S    
C99   N3    T    
C7    C95   S    
C23   C71   S    
C66   C82   S    
C9    C97   S    
C37   C49   S    
C65   C81   S    
C98   N2    T    
C88   C91   T    
C11   C27   S    
C34   H18   S    
C57   C65   T    
C12   C20   S    
C22   C70   S    
C33   H17   S    
C97   N1    T    
C48   C87   S    
C47   O31   A    
Cr7   O27   S    
C32   H8    S    
C35   H19   S    
C70   O2    A    
C60   C68   T    
Cr12  O20   S    
C42   C50   S    
C7    H43   S    
C4    C17   S    
C9    C17   S    
Cr3   O47   S    
C27   H11   S    
Cr2   O46   S    
C35   C51   S    
C10   C98   S    
C18   C94   S    
C38   H33   S    
Cr1   O45   S    
C59   C63   S    
C84   O16   A    
C53   C76   S    
C17   C93   S    
Cr10  O18   S    
C53   C61   T    
C13   H53   S    
C50   C77   S    
C38   H22   S    
C91   C92   S    
C19   C95   S    
C24   C72   S    
C12   C100  S    
C12   C28   S    
C30   H6    S    
Cr5   O49   S    
C4    O24   A    
C29   H5    S    
Cr4   O44   S    
C1    C20   S    
C45   O33   A    
C56   C73   S    
C22   C30   S    
C36   H16   S    
C2    C19   S    
C2    O26   A    
C41   H29   S    
Cr12  O16   S    
C1    O25   A    
C24   C28   S    
C12   H46   S    
C86   C89   T    
C25   H9    S    
Cr10  O34   S    
C83   O43   A    
C85   C90   T    
C57   C61   S    
C39   C44   S    
C30   H62   S    
Cr9   O33   S    
C13   C17   S    
C16   C32   S    
C41   C49   S    
C26   H10   S    
C74   O50   A    
Cr9   O13   S    
C38   C50   S    
C47   O35   A    
C60   C64   S    
C29   H61   S    
C47   C88   S    
C35   H15   S    
C45   C86   S    
Cr6   O30   S    
C80   O8    A    
C95   H3    S    
C8    H40   S    
Cr3   O19   S    
C10   C26   S    
Cr8   O8    S    
C7    C23   S    
C39   H23   S    
C16   H60   S    
C6    H38   S    
C5    H41   S    
C96   O56   S    
Cr6   O18   S    
C37   H21   S    
C44   H32   S    
C69   O37   A    
Cr7   O7    S    
C80   O12   A    
C40   H24   S    
C43   H28   S    
C72   O4    A    
C77   O5    A    
Cr3   O3    S    
Cr5   O5    S    
C11   H45   S    
C54   C75   S    
C6    H42   S    
C76   O52   A    
C4    O28   A    
C79   O7    A    
C5    C21   S    
C39   H36   S    
Cr4   O48   S    
C11   C99   S    
C22   C26   S    
C40   H35   S    
Cr11  O19   S    
C100  N4    T    
C76   O48   A    
C71   O39   A    
Cr5   O29   S    
C70   O38   A    
C78   O10   A    
C89   C90   S    
C87   C92   T    
Cr6   O50   S    
Cr8   O52   S    
C15   H55   S    
C84   O44   A    
C93   H1    S    
C46   O30   A    
Cr10  O38   S    
