data_mof_unit_5035.cif
_audit_creation_date              2012-12-10T17:52:22-0500
_audit_creation_method            fapswitch 2.2
_symmetry_space_group_name_H-M    P1
_symmetry_Int_Tables_number       1
_space_group_crystal_system       triclinic
_cell_length_a                    19.005654
_cell_length_b                    10.703888
_cell_length_c                    9.904199
_cell_angle_alpha                 90.085523
_cell_angle_beta                  90.109218
_cell_angle_gamma                 91.57542
_cell_volume                      2014.08702246

loop_
_atom_site_label
_atom_site_type_symbol
_atom_type_description
_atom_site_fract_x
_atom_site_fract_y
_atom_site_fract_z
_atom_type_partial_charge
C1    C     C_R   0.507682 0.261386 0.500368 0.844816
C2    C     C_R   0.288867 0.486687 0.501870 -0.149857
C3    C     C_R   0.927516 0.404649 0.526613 0.327949
C4    C     C_R   0.069427 0.403068 0.527869 0.319731
C5    C     C_R   0.824445 0.518182 0.606644 -0.209904
C6    C     C_R   0.754205 0.550341 0.597239 0.435470
C7    C     C_R   0.710653 0.488278 0.501228 -0.182306
C8    C     C_R   0.739357 0.401873 0.411478 -0.210453
C9    C     C_R   0.810001 0.373004 0.419931 -0.119050
C10   C     C_R   0.852513 0.429334 0.519305 0.007329
C11   C     C_R   0.553562 0.117880 0.743663 -0.320327
C12   C     C_R   0.365266 0.500484 0.500174 0.915224
C13   C     C_R   0.545122 0.057769 0.868085 0.398960
C14   C     C_R   0.498927 0.953491 0.877235 0.404771
C15   C     C_R   0.479019 0.892188 0.756247 -0.330031
C16   C     C_R   0.499149 0.941496 0.629123 0.086387
C17   C     C_R   0.524028 0.064757 0.625258 0.035036
C18   C     C_R   0.518371 0.129303 0.501993 -0.090645
C19   C     C_R   0.510772 0.064398 0.380678 -0.134856
C20   C     C_R   0.504723 0.936975 0.382240 -0.192722
C21   C     C_R   0.496103 0.874526 0.505047 -0.073365
C22   C     C_R   0.409702 0.332995 0.139464 -0.124302
C23   C     C_R   0.496528 0.740293 0.501084 0.954795
C24   C     C_R   0.366399 0.248681 0.069026 -0.190818
C25   C     C_R   0.366708 0.248045 0.929333 -0.201486
C26   C     C_R   0.410258 0.331805 0.859306 -0.126885
C27   C     C_R   0.455938 0.416878 0.927340 0.206818
C28   C     C_R   0.455531 0.417654 0.071976 0.217136
C29   C     C_R   0.540650 0.581861 0.071803 -0.048631
C30   C     C_R   0.540033 0.582642 0.928693 -0.024735
C31   C     C_R   0.634722 0.501304 0.500179 0.937565
C32   C     C_R   0.248001 0.545301 0.601379 0.401933
C33   C     C_R   0.176859 0.512512 0.611653 -0.240421
C34   C     C_R   0.145356 0.426536 0.521590 0.017537
C35   C     C_R   0.185473 0.373147 0.419557 -0.131600
C36   C     C_R   0.256875 0.402587 0.410293 -0.254875
H1    H     H_    0.585292 0.203339 0.738913 0.219796
H2    H     H_    0.446651 0.808465 0.763068 0.231568
H3    H     H_    0.505426 0.888087 0.286689 0.230701
H4    H     H_    0.573858 0.648818 0.125756 0.179771
H5    H     H_    0.405687 0.329134 0.246381 0.187520
H6    H     H_    0.331916 0.184238 0.123327 0.150377
H7    H     H_    0.332398 0.183213 0.874689 0.161673
H8    H     H_    0.405686 0.328267 0.752345 0.198978
H9    H     H_    0.145462 0.557248 0.687900 0.198888
H10   H     H_    0.571692 0.651590 0.875121 0.212083
H11   H     H_    0.161869 0.307709 0.348067 0.163966
H12   H     H_    0.287497 0.356566 0.333848 0.156690
H13   H     H_    0.857812 0.565021 0.680782 0.178242
H14   H     H_    0.706500 0.353508 0.337442 0.207435
H15   H     H_    0.831049 0.305370 0.350447 0.179143
H16   H     H_    0.508478 0.111671 0.284623 0.240415
N1    N     N_R   0.032869 0.366592 0.416129 -0.159467
N2    N     N_R   0.962935 0.367337 0.415511 -0.156361
N3    N     N_R   0.964055 0.434971 0.640071 -0.157838
N4    N     N_R   0.033742 0.434190 0.640691 -0.161997
N5    N     N_R   0.499340 0.498800 0.142780 -0.131397
N6    N     N_R   0.499320 0.498720 0.857170 -0.132732
O1    O     O_R   0.500000 0.316780 0.614690 -0.658398
O2    O     O_R   0.499990 0.316750 0.385360 -0.627900
O3    O     O_R   0.398140 0.500000 0.614700 -0.581948
O4    O     O_R   0.398130 0.499970 0.385370 -0.651372
O5    O     O_R   0.500010 0.683250 0.614640 -0.597183
O6    O     O_R   0.500000 0.683220 0.385310 -0.638834
O7    O     O_R   0.601870 0.500030 0.614630 -0.565607
O8    O     O_R   0.601860 0.500000 0.385300 -0.605154
Zn1   Zn    Zn3+2 0.500000 0.500020 0.653130 1.019572
Zn2   Zn    Zn3+2 0.500000 0.499980 0.346870 0.980397
S1    S     S_3+6 0.282519 0.664303 0.709415 -0.003223
O9    O     O_2   0.331344 0.749478 0.630810 -0.327815
O10   O     O_2   0.224365 0.740117 0.767395 -0.295624
O11   O     O_3   0.327244 0.599361 0.836644 -0.575921
H17   H     H_    0.293068 0.540646 0.880040 0.349726
S2    S     S_3+6 0.594488 0.112700 0.007971 0.049762
O12   O     O_2   0.556531 0.216650 0.075082 -0.307576
O13   O     O_2   0.605185 0.009477 0.108015 -0.269442
O14   O     O_3   0.673339 0.168599 0.955582 -0.513081
H18   H     H_    0.695813 0.096561 0.911972 0.369815
O15   O     O_3   0.477682 0.909975 0.003707 -0.598532
C37   C     C_3   0.404886 0.876800 0.003662 0.114658
H19   H     H_    0.396945 0.779958 0.965232 0.211111
H20   H     H_    0.373500 0.942338 0.941774 0.160830
C38   C     C_3   0.375941 0.879865 0.146525 -0.802767
H21   H     H_    0.387903 0.972159 0.193756 0.250174
H22   H     H_    0.317943 0.864341 0.143897 0.235165
H23   H     H_    0.398912 0.804309 0.207697 0.257245
S3    S     S_3+6 0.724862 0.670025 0.705545 0.032338
O16   O     O_2   0.664656 0.738168 0.643860 -0.289868
O17   O     O_2   0.701447 0.611951 0.836564 -0.319635
O18   O     O_3   0.791159 0.773816 0.736125 -0.522048
H24   H     H_    0.813756 0.744997 0.820296 0.369495

loop_
_geom_bond_atom_site_label_1
_geom_bond_atom_site_label_2
_ccdc_geom_bond_type
C31   O8    A    
O8    Zn2   S    
S3    O16   D    
C16   C21   A    
C4    N1    A    
C33   H9    S    
C35   C36   A    
C9    H15   S    
N3    N4    A    
C2    C12   S    
C25   H7    S    
C26   H8    S    
C7    C8    A    
N1    N2    A    
C1    C18   S    
S2    O13   D    
O6    Zn2   S    
C34   C35   A    
C1    O1    A    
C5    C6    A    
C3    N2    A    
C22   H5    S    
C15   C16   A    
C24   H6    S    
C2    C32   A    
C18   C19   A    
S1    O10   D    
O1    Zn1   S    
C3    N3    A    
C19   H16   S    
C19   C20   A    
C8    C9    A    
O7    Zn1   S    
S2    O14   S    
C9    C10   A    
O14   H18   S    
C23   O5    A    
C35   H11   S    
C22   C28   A    
C13   C14   A    
C4    N4    A    
C5    H13   S    
C37   C38   S    
C33   C34   A    
O5    Zn1   S    
C4    C34   S    
C7    C31   S    
S2    O12   D    
C24   C25   A    
C37   H20   S    
C1    O2    A    
C20   H3    S    
O11   H17   S    
C25   C26   A    
C28   N5    A    
C6    S3    S    
S1    O11   S    
C15   H2    S    
C29   C30   A    
C12   O4    A    
O3    Zn1   S    
C38   H21   S    
C17   C18   A    
C26   C27   A    
C14   O15   S    
C20   C21   A    
C32   S1    S    
C23   O6    A    
C38   H22   S    
C29   N5    A    
C21   C23   S    
C22   C24   A    
N5    Zn2   S    
C8    H14   S    
C11   H1    S    
C2    C36   A    
C31   O7    A    
C11   C17   A    
C30   H10   S    
C37   H19   S    
C27   N6    A    
C6    C7    A    
O4    Zn2   S    
C32   C33   A    
S3    O17   D    
C5    C10   A    
C3    C10   S    
C12   O3    A    
C11   C13   A    
O18   H24   S    
C16   C17   A    
C30   N6    A    
C29   H4    S    
C36   H12   S    
S1    O9    D    
O15   C37   S    
N6    Zn1   S    
C38   H23   S    
C13   S2    S    
O2    Zn2   S    
S3    O18   S    
C27   C28   A    
C14   C15   A    
