data_mof_unit_25632.cif
_audit_creation_date              2012-12-10T19:00:48-0500
_audit_creation_method            fapswitch 2.2
_symmetry_space_group_name_H-M    P1
_symmetry_Int_Tables_number       1
_space_group_crystal_system       triclinic
_cell_length_a                    15.091016
_cell_length_b                    10.879515
_cell_length_c                    9.530943
_cell_angle_alpha                 90.376083
_cell_angle_beta                  90.018249
_cell_angle_gamma                 90.378168
_cell_volume                      1564.75029861

loop_
_atom_site_label
_atom_site_type_symbol
_atom_type_description
_atom_site_fract_x
_atom_site_fract_y
_atom_site_fract_z
_atom_type_partial_charge
C1    C     C_R   0.503227 0.262202 0.498685 0.833823
C2    C     C_R   0.907380 0.493811 0.628408 0.108645
C3    C     C_R   0.953913 0.493022 0.244252 -0.198641
C4    C     C_R   0.046306 0.494042 0.244201 -0.193412
C5    C     C_R   0.093013 0.495194 0.371391 0.107006
C6    C     C_R   0.046650 0.494882 0.499941 0.063079
C7    C     C_R   0.093069 0.495698 0.628489 0.105300
C8    C     C_R   0.046424 0.495050 0.755679 -0.192263
C9    C     C_R   0.954033 0.494032 0.755641 -0.200061
C10   C     C_R   0.185342 0.496767 0.372297 -0.224724
C11   C     C_R   0.231735 0.498007 0.499951 -0.068931
C12   C     C_R   0.328587 0.499485 0.499986 0.828716
C13   C     C_R   0.185392 0.497265 0.627591 -0.216030
C14   C     C_R   0.525657 0.064277 0.618293 0.017888
C15   C     C_R   0.514911 0.129078 0.493522 -0.208267
C16   C     C_R   0.516813 0.061298 0.364965 -0.128141
C17   C     C_R   0.514170 0.932923 0.368206 0.534178
C18   C     C_R   0.511247 0.870355 0.497189 -0.181267
C19   C     C_R   0.523972 0.937854 0.620324 -0.099603
C20   C     C_3   0.477035 0.934958 0.758287 0.539822
C21   C     C_3   0.479624 0.074672 0.756255 -0.455921
C22   C     C_R   0.537083 0.595710 0.074311 0.362804
C23   C     C_R   0.501707 0.737611 0.499955 0.880326
C24   C     C_R   0.453286 0.414589 0.073927 -0.052452
C25   C     C_R   0.453814 0.413918 0.924860 -0.077926
C26   C     C_R   0.536897 0.595847 0.926932 0.285314
C27   C     C_3   0.630677 0.639007 0.921152 -0.535878
C28   C     C_3   0.630949 0.638638 0.080313 -0.487715
C29   C     C_R   0.671501 0.498571 0.499995 0.804569
C30   C     C_R   0.815065 0.493958 0.627416 -0.236656
C31   C     C_R   0.768515 0.495422 0.499983 -0.068693
C32   C     C_R   0.815001 0.493468 0.372517 -0.226294
C33   C     C_R   0.907318 0.493307 0.371497 0.106156
C34   C     C_R   0.953758 0.493994 0.499947 0.063688
Cu1   Cu    Cu3+1 0.500000 0.499980 0.640670 0.973154
Cu2   Cu    Cu3+1 0.500000 0.500020 0.359330 1.002930
H1    H     H_    0.779778 0.492816 0.726069 0.148239
H2    H     H_    0.516683 0.893520 0.843861 0.088718
H3    H     H_    0.413175 0.117659 0.748005 0.215856
H4    H     H_    0.524219 0.115103 0.837258 0.162995
H5    H     H_    0.416120 0.345196 0.129651 0.152471
H6    H     H_    0.417798 0.342924 0.868522 0.136486
H7    H     H_    0.675613 0.569257 0.875620 0.213419
H8    H     H_    0.636969 0.732527 0.875883 0.198165
H9    H     H_    0.675925 0.568546 0.124084 0.200866
H10   H     H_    0.779656 0.491953 0.273863 0.151253
H11   H     H_    0.637660 0.731971 0.127255 0.243372
H12   H     H_    0.918917 0.492442 0.144933 0.139319
H13   H     H_    0.081208 0.494135 0.144840 0.140974
H14   H     H_    0.220930 0.497046 0.273475 0.161088
H15   H     H_    0.221016 0.497947 0.726420 0.162779
H16   H     H_    0.081373 0.495536 0.855034 0.141145
H17   H     H_    0.919085 0.493850 0.854967 0.139099
N1    N     N_R   0.500570 0.500930 0.147930 -0.197318
N2    N     N_R   0.500570 0.500890 0.852020 -0.191306
O1    O     O_R   0.500000 0.319640 0.618810 -0.583605
O2    O     O_R   0.500010 0.319680 0.381230 -0.575224
O3    O     O_R   0.370250 0.499950 0.618800 -0.579820
O4    O     O_R   0.370260 0.499990 0.381220 -0.591436
O5    O     O_R   0.499990 0.680320 0.618770 -0.571023
O6    O     O_R   0.500000 0.680360 0.381190 -0.526687
O7    O     O_R   0.629740 0.500010 0.618780 -0.595915
O8    O     O_R   0.629750 0.500050 0.381200 -0.585644
F1    F     F_    0.510527 0.870566 0.244062 -0.657591
F2    F     F_    0.391656 0.888514 0.746519 -0.625748
C35   C     C_2   0.514004 0.117935 0.224596 0.940009
O9    O     O_2   0.576224 0.180534 0.183315 -0.601035
O10   O     O_R   0.441064 0.094856 0.137757 -0.722751
H18   H     H_    0.445494 0.138696 0.044765 0.304327

loop_
_geom_bond_atom_site_label_1
_geom_bond_atom_site_label_2
_ccdc_geom_bond_type
C25   H6    S    
C35   O10   S    
C11   C12   S    
C29   O8    A    
C28   H11   S    
C6    C7    A    
C1    C15   S    
C1    O2    A    
Cu2   O8    S    
C20   H2    S    
C20   F2    S    
C19   C20   S    
C21   H3    S    
C7    C13   A    
C4    H13   S    
C2    C30   A    
Cu2   O4    S    
C12   O3    A    
C32   C33   A    
C2    C34   A    
C35   O9    D    
C24   C25   A    
C5    C10   A    
C22   N1    A    
Cu1   N2    S    
C22   C28   S    
C26   N2    A    
C29   C31   S    
C24   H5    S    
C11   C13   A    
C26   C27   S    
C5    C6    A    
C16   C35   S    
C18   C23   S    
C4    C5    A    
C14   C19   A    
C14   C21   S    
C12   O4    A    
C1    O1    A    
C33   C34   A    
Cu1   O7    S    
C7    C8    A    
C21   H4    S    
Cu1   O3    S    
C17   F1    S    
C13   H15   S    
C30   C31   A    
C31   C32   A    
C28   H9    S    
C9    H17   S    
C10   C11   A    
C3    C33   A    
C24   N1    A    
C15   C16   A    
C10   H14   S    
C6    C34   A    
C3    H12   S    
C23   O6    A    
Cu2   N1    S    
C20   C21   S    
C30   H1    S    
C17   C18   A    
Cu2   O2    S    
C22   C26   A    
C18   C19   A    
C27   C28   S    
C27   H7    S    
C8    H16   S    
C29   O7    A    
Cu1   O5    S    
Cu1   O1    S    
C14   C15   A    
C2    C9    A    
C32   H10   S    
C27   H8    S    
O10   H18   S    
C23   O5    A    
C3    C4    A    
C25   N2    A    
C16   C17   A    
C8    C9    A    
Cu1   Cu2   S    
Cu2   O6    S    
