data_mof_unit_8761.cif
_audit_creation_date              2012-12-10T18:01:19-0500
_audit_creation_method            fapswitch 2.2
_symmetry_space_group_name_H-M    P1
_symmetry_Int_Tables_number       1
_space_group_crystal_system       triclinic
_cell_length_a                    9.582114
_cell_length_b                    10.827811
_cell_length_c                    17.355664
_cell_angle_alpha                 92.558418
_cell_angle_beta                  86.257454
_cell_angle_gamma                 90.876433
_cell_volume                      1794.93805309

loop_
_atom_site_label
_atom_site_type_symbol
_atom_type_description
_atom_site_fract_x
_atom_site_fract_y
_atom_site_fract_z
_atom_type_partial_charge
C1    C     C_R   0.500624 0.737755 0.500281 0.781796
C2    C     C_R   0.499376 0.262245 0.499717 0.781791
C3    C     C_R   0.627366 0.937495 0.493104 -0.186979
C4    C     C_R   0.372632 0.062505 0.506886 -0.186956
C5    C     C_R   0.626651 0.065238 0.492742 -0.176064
C6    C     C_R   0.373348 0.934762 0.507249 -0.176053
C7    C     C_R   0.499244 0.128283 0.499642 -0.014971
C8    C     C_R   0.500755 0.871717 0.500351 -0.014965
C9    C     C_R   0.925125 0.585116 0.545821 0.209877
C10   C     C_R   0.074876 0.414891 0.454174 0.209825
C11   C     C_R   0.073442 0.585528 0.543160 -0.022983
C12   C     C_R   0.926558 0.414465 0.456845 -0.023038
C13   C     C_R   0.481201 0.494248 0.649817 0.793780
C14   C     C_R   0.518798 0.505752 0.350184 0.793783
C15   C     C_R   0.469702 0.479539 0.734220 -0.096270
C16   C     C_R   0.530294 0.520447 0.265784 -0.096271
C17   C     C_R   0.592908 0.486443 0.773399 -0.217609
C18   C     C_R   0.407101 0.513506 0.226609 -0.217571
C19   C     C_R   0.589338 0.477787 0.852682 -0.152797
C20   C     C_R   0.410672 0.522130 0.147323 -0.152797
C21   C     C_R   0.461954 0.461577 0.895360 0.118788
C22   C     C_R   0.538047 0.538349 0.104639 0.118780
C23   C     C_R   0.337186 0.446649 0.857209 -0.036559
C24   C     C_R   0.662805 0.553318 0.142789 -0.036559
C25   C     C_R   0.340455 0.454867 0.776306 -0.074803
C26   C     C_R   0.659532 0.545136 0.223695 -0.074795
C27   C     C_2   0.460245 0.460444 0.979970 -0.206952
C28   C     C_2   0.539754 0.539473 0.020027 -0.206944
Cu1   Cu    Cu3+1 0.359340 0.499980 0.500000 0.944927
Cu2   Cu    Cu3+1 0.640660 0.500020 0.500000 0.944930
H1    H     H_    0.693357 0.498662 0.742709 0.178461
H2    H     H_    0.306662 0.501285 0.257304 0.178502
H3    H     H_    0.610315 0.603639 0.990181 0.161825
H4    H     H_    0.389678 0.396281 0.009814 0.161812
H5    H     H_    0.312931 0.516144 0.119256 0.158243
H6    H     H_    0.687089 0.483741 0.880749 0.158262
H7    H     H_    0.726715 0.890546 0.487258 0.148272
H8    H     H_    0.273283 0.109454 0.512727 0.148286
H9    H     H_    0.725871 0.114319 0.486823 0.147430
H10   H     H_    0.274127 0.885681 0.513168 0.147430
H11   H     H_    0.130353 0.654230 0.576035 0.128226
H12   H     H_    0.869651 0.345757 0.423973 0.128223
N1    N     N_R   0.147930 0.499970 0.499980 -0.187415
N2    N     N_R   0.852070 0.500030 0.500020 -0.187412
O1    O     O_R   0.381260 0.680340 0.500000 -0.589651
O2    O     O_R   0.618740 0.319660 0.500000 -0.589649
O3    O     O_R   0.618830 0.680370 0.500010 -0.605805
O4    O     O_R   0.381170 0.319630 0.499990 -0.605796
O5    O     O_R   0.367440 0.500000 0.613600 -0.570573
O6    O     O_R   0.632560 0.500000 0.386400 -0.570574
O7    O     O_R   0.605010 0.500030 0.613600 -0.595237
O8    O     O_R   0.394990 0.499970 0.386400 -0.595245
C29   C     C_1   0.788314 0.566420 0.262121 0.276587
N3    N     N_1   0.891141 0.584081 0.292558 -0.301993
C30   C     C_1   0.211656 0.433649 0.737884 0.276604
N4    N     N_1   0.108815 0.416043 0.707450 -0.301997
C31   C     C_1   0.205406 0.426189 0.901246 0.218428
N5    N     N_1   0.100350 0.409875 0.936325 -0.262005
C32   C     C_1   0.794582 0.573776 0.098743 0.218414
N6    N     N_1   0.899638 0.590084 0.063658 -0.261997
C33   C     C_3   0.855206 0.684044 0.599426 -0.403643
C34   C     C_3   0.903728 0.684605 0.682383 -0.402027
C35   C     C_3   0.812687 0.768218 0.737519 -0.827659
H13   H     H_    0.819083 0.864933 0.718600 0.259408
H14   H     H_    0.701876 0.736305 0.739317 0.251968
H15   H     H_    0.849949 0.766099 0.796711 0.253470
H16   H     H_    0.899762 0.589359 0.703414 0.243521
H17   H     H_    0.013101 0.719260 0.684057 0.219178
H18   H     H_    0.879269 0.775866 0.575269 0.168339
H19   H     H_    0.742071 0.673416 0.604538 0.269473
C36   C     C_3   0.144793 0.316015 0.400523 -0.403667
C37   C     C_3   0.096343 0.315630 0.317557 -0.401720
C38   C     C_3   0.187362 0.232053 0.262379 -0.827947
H20   H     H_    0.298274 0.263616 0.260806 0.251977
H21   H     H_    0.180511 0.135242 0.281062 0.259434
H22   H     H_    0.150442 0.234648 0.203158 0.253497
H23   H     H_    0.986940 0.281039 0.315833 0.219174
H24   H     H_    0.100393 0.410934 0.296597 0.243441
H25   H     H_    0.257920 0.326604 0.395450 0.269446
H26   H     H_    0.120679 0.224152 0.424611 0.168335

loop_
_geom_bond_atom_site_label_1
_geom_bond_atom_site_label_2
_ccdc_geom_bond_type
C33   H19   S    
C30   N4    T    
C35   H14   S    
C1    C8    S    
C38   H20   S    
C2    C7    S    
Cu2   O7    S    
C36   H25   S    
Cu1   O5    S    
C29   N3    T    
C2    O2    A    
C34   C35   S    
C34   H16   S    
C9    C33   S    
C19   C21   A    
C24   C26   A    
C19   H6    S    
C15   C25   A    
C23   C31   S    
C37   H24   S    
C37   H23   S    
C13   O7    A    
C20   H5    S    
C14   O8    A    
C12   H12   S    
C11   N1    A    
C18   C20   A    
C10   C36   S    
C21   C27   S    
C35   H15   S    
C32   N6    T    
C22   C28   S    
Cu1   N1    S    
C38   H21   S    
Cu2   N2    S    
C4    C7    A    
C36   H26   S    
C27   H4    S    
C16   C26   A    
Cu1   O4    S    
Cu2   O3    S    
C6    H10   S    
C4    C6    A    
C3    C8    A    
C5    C7    A    
C1    O3    A    
C6    C8    A    
C2    O4    A    
Cu1   O1    S    
Cu1   Cu2   S    
C9    C11   A    
C10   C12   A    
C13   O5    A    
C20   C22   A    
C28   H3    S    
C13   C15   S    
C17   H1    S    
C38   H22   S    
C14   C16   S    
C18   H2    S    
C26   C29   S    
C33   H18   S    
C15   C17   A    
C5    H9    S    
C9    N2    A    
C10   N1    A    
Cu2   O2    S    
C25   C30   S    
C4    H8    S    
C37   C38   S    
C3    C5    A    
C34   H17   S    
C21   C23   A    
C36   C37   S    
C12   N2    A    
C1    O1    A    
C31   N5    T    
C14   O6    A    
C24   C32   S    
C17   C19   A    
C11   H11   S    
C22   C24   A    
C23   C25   A    
Cu2   O6    S    
C33   C34   S    
C35   H13   S    
C3    H7    S    
C16   C18   A    
C27   C28   D    
Cu1   O8    S    
