data_mof_unit_13075.cif
_audit_creation_date              2012-12-10T17:30:25-0500
_audit_creation_method            fapswitch 2.2
_symmetry_space_group_name_H-M    P1
_symmetry_Int_Tables_number       1
_space_group_crystal_system       triclinic
_cell_length_a                    12.115949
_cell_length_b                    12.767625
_cell_length_c                    14.918686
_cell_angle_alpha                 91.339618
_cell_angle_beta                  87.262791
_cell_angle_gamma                 94.242883
_cell_volume                      2298.39290201

loop_
_atom_site_label
_atom_site_type_symbol
_atom_type_description
_atom_site_fract_x
_atom_site_fract_y
_atom_site_fract_z
_atom_type_partial_charge
C1    C     C_R   0.522705 0.699948 0.494188 0.986633
C2    C     C_R   0.366854 0.137169 0.476782 -0.266570
C3    C     C_R   0.459596 0.868799 0.447870 -0.080847
C4    C     C_R   0.543138 0.130179 0.547053 -0.067670
C5    C     C_R   0.454352 0.973927 0.476082 0.001497
C6    C     C_R   0.548604 0.025725 0.517239 0.010180
C7    C     C_R   0.953991 0.426305 0.399791 -0.380881
C8    C     C_R   0.046047 0.573417 0.600906 -0.391213
C9    C     C_R   0.839282 0.429010 0.410852 0.133740
C10   C     C_R   0.160851 0.570487 0.589552 0.130772
C11   C     C_R   0.858170 0.528541 0.546818 0.045643
C12   C     C_R   0.477453 0.299920 0.505574 0.978780
C13   C     C_R   0.141410 0.471965 0.453516 0.045509
C14   C     C_R   0.975625 0.525269 0.538038 0.060287
C15   C     C_R   0.024033 0.474457 0.462873 0.057778
C16   C     C_R   0.500459 0.497930 0.672440 0.955716
C17   C     C_R   0.499334 0.502001 0.327262 0.959617
C18   C     C_R   0.423913 0.438564 0.188984 -0.195890
C19   C     C_R   0.549230 0.583640 0.810723 -0.199528
C20   C     C_R   0.496644 0.509648 0.231730 -0.093416
C21   C     C_R   0.500013 0.496430 0.767885 -0.086624
C22   C     C_R   0.562390 0.587002 0.184387 -0.047538
C23   C     C_R   0.598350 0.679666 0.948135 -0.022754
C24   C     C_R   0.442019 0.414756 0.815140 -0.070216
C25   C     C_R   0.547077 0.597041 0.091762 -0.009383
C26   C     C_R   0.425008 0.426610 0.908753 -0.027777
C27   C     C_R   0.482282 0.516117 0.047099 0.026164
C28   C     C_R   0.484370 0.511513 0.953347 0.027467
C29   C     C_R   0.417526 0.438245 0.096393 0.079779
C30   C     C_R   0.546705 0.591100 0.903903 0.085296
C31   C     C_R   0.593796 0.685040 0.042535 -0.108985
C32   C     C_R   0.348402 0.358159 0.958566 -0.121018
C33   C     C_2   0.654835 0.647668 0.228875 0.429674
C34   C     C_R   0.347429 0.361963 0.052616 -0.025890
C35   C     C_2   0.413350 0.312607 0.768683 0.454946
C36   C     C_R   0.626866 0.786669 0.088821 0.073245
C37   C     C_R   0.547010 0.840360 0.139291 -0.091957
C38   C     C_R   0.577859 0.933373 0.185991 -0.112917
C39   C     C_R   0.688373 0.973630 0.182501 -0.090685
C40   C     C_R   0.768198 0.921206 0.131977 -0.128789
C41   C     C_R   0.737796 0.828127 0.085179 -0.171442
C42   C     C_R   0.255746 0.297032 0.914154 0.122956
C43   C     C_R   0.174862 0.350559 0.873233 -0.072503
C44   C     C_R   0.088743 0.294492 0.829761 -0.106205
C45   C     C_R   0.461513 0.187755 0.511879 -0.038615
C46   C     C_R   0.082547 0.184754 0.827012 -0.097794
C47   C     C_R   0.162705 0.130858 0.867408 -0.109052
C48   C     C_R   0.249132 0.186601 0.910850 -0.197264
C49   C     C_2   0.654793 0.768914 0.897221 0.351507
C50   C     C_2   0.270747 0.286698 0.103982 0.383507
C51   C     C_2   0.607961 0.170784 0.625411 0.402168
C52   C     C_2   0.396920 0.826005 0.369144 0.437447
C53   C     C_R   0.757506 0.022670 0.539488 0.077118
C54   C     C_R   0.824807 0.989850 0.606304 -0.189698
C55   C     C_R   0.931815 0.036853 0.615087 -0.118611
C56   C     C_R   0.539729 0.811690 0.485445 -0.021235
C57   C     C_R   0.972812 0.116556 0.557265 -0.085006
C58   C     C_R   0.907043 0.148965 0.490198 -0.120597
C59   C     C_R   0.799978 0.102224 0.481124 -0.112601
C60   C     C_R   0.245880 0.976949 0.452424 0.078708
C61   C     C_R   0.202727 0.896760 0.509928 -0.121714
C62   C     C_R   0.096175 0.849537 0.499281 -0.122698
C63   C     C_R   0.031630 0.882034 0.431433 -0.078059
C64   C     C_R   0.073394 0.962155 0.374282 -0.108406
C65   C     C_R   0.179809 0.009855 0.384817 -0.197144
C66   C     C_2   0.193600 0.419479 0.375658 0.460528
C67   C     C_R   0.644851 0.970695 0.527474 -0.012708
C68   C     C_2   0.805564 0.585872 0.622409 0.456375
C69   C     C_2   0.226386 0.622437 0.660656 0.458120
C70   C     C_2   0.774084 0.377058 0.339505 0.439101
C71   C     C_R   0.358173 0.029002 0.465723 -0.011389
C72   C     C_R   0.635276 0.862446 0.518732 -0.256572
H1    H     H_    0.377042 0.379466 0.228986 0.167250
H2    H     H_    0.516189 0.974031 0.225220 0.115235
H3    H     H_    0.712171 0.045371 0.219046 0.136078
H4    H     H_    0.853810 0.952359 0.129537 0.134956
H5    H     H_    0.800720 0.787324 0.047499 0.154625
H6    H     H_    0.179020 0.435624 0.874673 0.126733
H7    H     H_    0.026869 0.336128 0.798125 0.150583
H8    H     H_    0.015661 0.141547 0.793538 0.126700
H9    H     H_    0.158119 0.045869 0.864728 0.132533
H10   H     H_    0.311814 0.144031 0.940514 0.112857
H11   H     H_    0.633456 0.848609 0.912711 0.072089
H12   H     H_    0.588346 0.645630 0.769426 0.180674
H13   H     H_    0.277876 0.202884 0.095432 0.038564
H14   H     H_    0.647904 0.116628 0.665872 0.071819
H15   H     H_    0.351315 0.877235 0.330274 0.054777
H16   H     H_    0.794254 0.928385 0.651870 0.150392
H17   H     H_    0.983286 0.010852 0.666303 0.132449
H18   H     H_    0.055944 0.152362 0.563781 0.138204
H19   H     H_    0.939549 0.209422 0.444553 0.135013
H20   H     H_    0.750667 0.126828 0.427902 0.173486
H21   H     H_    0.251197 0.871799 0.563554 0.178535
H22   H     H_    0.063201 0.788444 0.544166 0.138223
H23   H     H_    0.987123 0.384108 0.342014 0.187703
H24   H     H_    0.948917 0.845775 0.423658 0.136432
H25   H     H_    0.023037 0.987720 0.322097 0.133457
H26   H     H_    0.211014 0.071719 0.339862 0.131534
H27   H     H_    0.246912 0.356521 0.384947 0.045744
H28   H     H_    0.750723 0.646421 0.609690 0.066209
H29   H     H_    0.206952 0.601946 0.730132 0.035074
H30   H     H_    0.794965 0.396404 0.269989 0.037492
H31   H     H_    0.013383 0.615803 0.658687 0.187054
H32   H     H_    0.298391 0.182030 0.460002 0.153410
H33   H     H_    0.703470 0.817618 0.536132 0.151967
H34   H     H_    0.736999 0.652869 0.196329 0.055032
H35   H     H_    0.435677 0.240448 0.797763 0.064785
H36   H     H_    0.461256 0.809451 0.143174 0.146557
N1    N     N_R   0.207800 0.519350 0.516680 -0.142938
N2    N     N_R   0.792200 0.480650 0.483320 -0.143670
O1    O     O_R   0.421700 0.658830 0.504450 -0.544786
O2    O     O_2   0.361372 0.307606 0.700490 -0.570389
O3    O     O_2   0.729573 0.754555 0.841503 -0.561047
O4    O     O_2   0.196637 0.318057 0.153393 -0.521344
O5    O     O_2   0.613495 0.262925 0.649238 -0.559388
O6    O     O_2   0.401189 0.735384 0.342266 -0.533934
O7    O     O_2   0.180297 0.449440 0.300150 -0.515667
O8    O     O_2   0.820266 0.563502 0.699855 -0.544986
O9    O     O_2   0.296255 0.693673 0.643928 -0.592068
O10   O     O_2   0.702925 0.306929 0.356113 -0.593200
O11   O     O_R   0.578300 0.341170 0.495550 -0.532421
O12   O     O_R   0.609310 0.646410 0.493750 -0.661507
O13   O     O_R   0.390690 0.353590 0.506250 -0.656189
O14   O     O_R   0.406180 0.506230 0.637500 -0.595622
O15   O     O_R   0.593820 0.493770 0.362500 -0.616997
O16   O     O_R   0.593800 0.493820 0.626800 -0.603194
O17   O     O_R   0.406200 0.506180 0.373200 -0.599677
O18   O     O_2   0.639349 0.695073 0.299769 -0.550131
Zn1   Zn    Zn3+2 0.374730 0.508290 0.507150 1.024859
Zn2   Zn    Zn3+2 0.625270 0.491710 0.492850 1.019672

loop_
_geom_bond_atom_site_label_1
_geom_bond_atom_site_label_2
_ccdc_geom_bond_type
C25   C31   A    
C49   O3    D    
C26   C32   A    
C16   C21   S    
C27   C29   A    
O11   Zn2   S    
C68   H28   S    
C53   C59   A    
C53   C54   A    
C43   H6    S    
C37   C38   A    
C36   C37   A    
C19   C21   A    
C1    C56   S    
C24   C26   A    
C65   H26   S    
C41   H5    S    
C5    C6    A    
C11   C14   A    
C61   H21   S    
C23   C49   S    
O16   Zn2   S    
C52   H15   S    
C17   C20   S    
C10   N1    A    
C67   C72   A    
C1    O12   A    
C13   N1    A    
C50   H13   S    
C68   O8    D    
C46   C47   A    
O15   Zn2   S    
O1    Zn1   S    
C12   O11   A    
C70   O10   D    
C56   C72   A    
C22   C25   A    
C39   H3    S    
C58   H19   S    
C13   C66   S    
C7    C15   A    
O13   Zn1   S    
C11   N2    A    
C36   C41   A    
C51   H14   S    
C44   C46   A    
C4    C45   A    
C52   O6    D    
C2    C45   A    
C34   C50   S    
C24   C35   S    
C57   H18   S    
C4    C51   S    
C23   C30   A    
C9    C70   S    
C37   H36   S    
C4    C6    A    
C39   C40   A    
C17   O17   A    
C60   C71   S    
C58   C59   A    
C63   H24   S    
C69   O9    D    
C33   O18   D    
C51   O5    D    
C40   H4    S    
C60   C61   A    
C50   O4    D    
C32   C34   A    
C66   H27   S    
C43   C44   A    
O17   Zn1   S    
C62   H22   S    
C62   C63   A    
C3    C56   A    
C47   C48   A    
C2    H32   S    
C18   C29   A    
C42   C48   A    
C8    C10   A    
C40   C41   A    
C20   C22   A    
C60   C65   A    
C18   H1    S    
C13   C15   A    
N1    Zn1   S    
C42   C43   A    
C2    C71   A    
C11   C68   S    
C38   H2    S    
C9    N2    A    
C7    C9    A    
C22   C33   S    
C54   C55   A    
C6    C67   A    
C8    C14   A    
C66   O7    D    
C31   C36   S    
C64   H25   S    
C44   H7    S    
C33   H34   S    
C12   C45   S    
C3    C5    A    
C3    C52   S    
C70   H30   S    
C69   H29   S    
C25   C27   A    
C7    H23   S    
C26   C28   A    
C64   C65   A    
C49   H11   S    
C55   C57   A    
C16   O14   A    
C5    C71   A    
C1    O1    A    
C54   H16   S    
C17   O15   A    
C57   C58   A    
C38   C39   A    
C12   O13   A    
C29   C34   A    
C28   C30   A    
C48   H10   S    
O14   Zn1   S    
N2    Zn2   S    
C18   C20   A    
C59   H20   S    
C47   H9    S    
C61   C62   A    
C53   C67   S    
C8    H31   S    
C35   H35   S    
C63   C64   A    
C10   C69   S    
C72   H33   S    
C55   H17   S    
C21   C24   A    
C27   C28   A    
C32   C42   S    
C14   C15   A    
C46   H8    S    
C19   C30   A    
C16   O16   A    
O12   Zn2   S    
C35   O2    D    
C19   H12   S    
C23   C31   A    
