data_mof_unit_9629.cif
_audit_creation_date              2012-12-11T16:58:20-0500
_audit_creation_method            fapswitch 2.2
_symmetry_space_group_name_H-M    P1
_symmetry_Int_Tables_number       1
_space_group_crystal_system       triclinic
_cell_length_a                    16.769424
_cell_length_b                    7.254297
_cell_length_c                    16.949299
_cell_angle_alpha                 89.973821
_cell_angle_beta                  100.177317
_cell_angle_gamma                 90.038964
_cell_volume                      2029.44560921

loop_
_atom_site_label
_atom_site_type_symbol
_atom_type_description
_atom_site_fract_x
_atom_site_fract_y
_atom_site_fract_z
_atom_type_partial_charge
O1    O     O_R   0.413450 0.494370 0.415710 -0.530691
O2    O     O_R   0.586550 0.994370 0.584290 -0.524696
O3    O     O_R   0.578420 0.819350 0.429360 -0.544012
O4    O     O_R   0.421580 0.319350 0.570640 -0.543885
C1    C     C_R   0.605301 0.656325 0.414480 0.727998
C2    C     C_R   0.394861 0.156206 0.585766 0.729931
O5    O     O_R   0.413570 0.823780 0.406240 -0.533407
O6    O     O_R   0.586430 0.323780 0.593760 -0.538499
O7    O     O_R   0.420530 0.998740 0.561000 -0.540008
O8    O     O_R   0.579470 0.498740 0.439000 -0.541271
C3    C     C_R   0.386509 0.654803 0.383580 0.703916
C4    C     C_R   0.613832 0.154839 0.616096 0.703751
O9    O     O_3   0.502480 0.662320 0.550800 -0.372901
O10   O     O_3   0.497520 0.162320 0.449200 -0.373376
V1    V     V_3+5 0.499540 0.935370 0.490580 1.450094
V2    V     V_3+5 0.500460 0.435370 0.509420 1.437712
C5    C     C_R   0.740321 0.001690 0.689975 0.054389
C6    C     C_R   0.259772 0.503335 0.309672 0.014582
C7    C     C_R   0.683321 0.144740 0.683448 -0.147137
C8    C     C_R   0.317582 0.644691 0.315730 -0.192285
C9    C     C_R   0.693600 0.279026 0.743642 -0.161387
C10   C     C_R   0.306451 0.781151 0.256115 -0.142191
H1    H     H_    0.647685 0.383242 0.742578 0.147446
H2    H     H_    0.350732 0.890259 0.257800 0.191656
C11   C     C_R   0.758779 0.273311 0.808511 0.325140
C12   C     C_R   0.241632 0.773468 0.190839 0.338153
C13   C     C_R   0.816043 0.126147 0.815711 -0.154412
C14   C     C_R   0.184194 0.626218 0.183918 -0.159467
C15   C     C_R   0.805138 0.993215 0.754657 -0.099578
C16   C     C_R   0.194314 0.495713 0.245943 -0.110211
C17   C     C_3   0.797000 0.790487 0.764136 -0.421618
C18   C     C_3   0.197406 0.290986 0.239743 -0.385536
C19   C     C_3   0.725422 0.798896 0.695062 0.655083
C20   C     C_3   0.270322 0.297814 0.307184 0.671034
H3    H     H_    0.780885 0.756407 0.822981 0.141911
H4    H     H_    0.211680 0.247022 0.181457 0.138104
H5    H     H_    0.850266 0.714684 0.749855 0.176179
H6    H     H_    0.143058 0.224245 0.256433 0.171880
C21   C     C_R   0.330013 0.153623 0.635031 -0.164152
C22   C     C_R   0.670341 0.653866 0.365547 -0.162954
C23   C     C_R   0.167176 0.118826 0.862270 -0.280736
C24   C     C_R   0.833767 0.617187 0.138797 -0.280329
C25   C     C_R   0.305806 0.043285 0.845050 0.276570
C26   C     C_R   0.695302 0.539668 0.156311 0.290362
C27   C     C_R   0.248084 0.073539 0.895630 0.269400
C28   C     C_R   0.753591 0.565664 0.106088 0.256147
C29   C     C_R   0.147129 0.159460 0.779570 0.326154
C30   C     C_R   0.853553 0.660669 0.221266 0.327277
C31   C     C_R   0.208908 0.163933 0.732456 -0.064710
C32   C     C_R   0.791675 0.664623 0.268367 -0.066904
C33   C     C_R   0.286774 0.093126 0.763509 0.006095
C34   C     C_R   0.713999 0.592261 0.237476 0.004927
C35   C     C_R   0.345240 0.079810 0.712868 -0.210527
C36   C     C_R   0.655364 0.579497 0.287901 -0.208422
C37   C     C_R   0.255732 0.244262 0.608282 0.386226
C38   C     C_R   0.744592 0.744482 0.392520 0.385988
C39   C     C_R   0.194477 0.239480 0.654919 -0.208571
C40   C     C_R   0.805849 0.740819 0.345822 -0.207388
H7    H     H_    0.404340 0.020837 0.734962 0.173726
H8    H     H_    0.596375 0.519793 0.265856 0.175800
H9    H     H_    0.136510 0.301626 0.630976 0.169912
H10   H     H_    0.863692 0.803640 0.369757 0.169366
O11   O     O_R   0.920630 0.775410 0.061150 -0.534302
O12   O     O_R   0.079370 0.275410 0.938850 -0.535300
O13   O     O_R   0.086500 0.441450 0.093690 -0.550274
O14   O     O_R   0.913500 0.941450 0.906310 -0.550028
C41   C     C_R   0.115319 0.610717 0.115091 0.711089
C42   C     C_R   0.884773 0.110734 0.884768 0.715350
O15   O     O_R   0.921670 0.445960 0.070740 -0.537285
O16   O     O_R   0.078330 0.945960 0.929260 -0.539079
O17   O     O_R   0.913380 0.271130 0.915780 -0.533323
O18   O     O_R   0.086620 0.771130 0.084220 -0.535255
C43   C     C_R   0.896715 0.613883 0.087015 0.791236
C44   C     C_R   0.103784 0.114066 0.913552 0.786024
O19   O     O_3   0.997500 0.603030 0.949220 -0.383104
O20   O     O_3   0.002500 0.103030 0.050780 -0.382546
V3    V     V_3+5 0.000470 0.329940 0.009420 1.429715
V4    V     V_3+5 0.999530 0.829940 0.990580 1.427074
O21   O     O_3   0.271371 0.057842 0.977908 -0.556641
C45   C     C_3   0.284683 0.236419 0.012030 0.110697
H11   H     H_    0.277590 0.226709 0.075546 0.154499
H12   H     H_    0.239353 0.340066 0.983811 0.102866
C46   C     C_3   0.370813 0.305506 0.010097 -0.347459
H13   H     H_    0.415517 0.203515 0.040237 0.220842
H14   H     H_    0.379601 0.321794 0.947060 0.208365
C47   C     C_3   0.386273 0.491630 0.052157 -0.769237
H15   H     H_    0.342818 0.596320 0.022233 0.248330
H16   H     H_    0.448739 0.538701 0.049396 0.248900
H17   H     H_    0.379810 0.479944 0.116049 0.224977
O22   O     O_3   0.730453 0.549553 0.023985 -0.556272
C48   C     C_3   0.711933 0.727266 0.990604 0.129729
H18   H     H_    0.758838 0.764404 0.954692 0.126211
H19   H     H_    0.711335 0.839949 0.035638 0.099676
C49   C     C_3   0.628841 0.723048 0.936296 -0.316335
H20   H     H_    0.627872 0.613821 0.890302 0.222478
H21   H     H_    0.581726 0.689487 0.972654 0.202094
C50   C     C_3   0.608565 0.908737 0.895101 -0.777530
H22   H     H_    0.603881 0.017176 0.940309 0.240165
H23   H     H_    0.549666 0.898951 0.853435 0.259651
H24   H     H_    0.656046 0.948917 0.860301 0.239554
O23   O     O_3   0.068220 0.204481 0.745354 -0.574007
C51   C     C_3   0.021980 0.041266 0.726962 0.078766
H25   H     H_    0.957890 0.076725 0.727865 0.142271
H26   H     H_    0.038421 0.929435 0.772008 0.116680
C52   C     C_3   0.027599 0.969509 0.642996 -0.350216
H27   H     H_    0.006854 0.078324 0.597867 0.199410
H28   H     H_    0.091335 0.934385 0.640096 0.202006
C53   C     C_3   0.976369 0.796177 0.622520 -0.800529
H29   H     H_    0.999831 0.682361 0.664061 0.239772
H30   H     H_    0.979146 0.752384 0.560276 0.230329
H31   H     H_    0.912208 0.822729 0.627064 0.256780
O24   O     O_3   0.932233 0.708178 0.255348 -0.573534
C54   C     C_3   0.979179 0.546386 0.274736 0.076315
H32   H     H_    0.043482 0.584872 0.276789 0.145602
H33   H     H_    0.965345 0.436151 0.228576 0.115674
C55   C     C_3   0.970524 0.470447 0.357374 -0.350632
H34   H     H_    0.988692 0.578097 0.403713 0.199152
H35   H     H_    0.906559 0.431857 0.357397 0.202117
C56   C     C_3   0.022462 0.298706 0.378797 -0.801355
H36   H     H_    0.002061 0.186238 0.335433 0.239901
H37   H     H_    0.016630 0.250944 0.439792 0.229989
H38   H     H_    0.087128 0.329082 0.378094 0.258468
O25   O     O_3   0.758471 0.400300 0.868430 -0.638290
H39   H     H_    0.809442 0.470820 0.872885 0.301618
O26   O     O_3   0.242535 0.898920 0.130409 -0.630517
H40   H     H_    0.191301 0.968558 0.124567 0.300391
O27   O     O_3   0.648880 0.761446 0.714891 -0.647222
H41   H     H_    0.656544 0.677856 0.761567 0.279768
O28   O     O_3   0.343409 0.240294 0.284562 -0.644756
H42   H     H_    0.350573 0.309353 0.235709 0.265513
O29   O     O_3   0.739509 0.701438 0.627458 -0.637478
H43   H     H_    0.689497 0.712452 0.586674 0.324873
O30   O     O_3   0.255529 0.208969 0.376567 -0.629730
H44   H     H_    0.307172 0.212673 0.415435 0.325816
O31   O     O_3   0.240959 0.331516 0.534635 -0.568599
C57   C     C_3   0.249212 0.525034 0.545259 0.105476
H45   H     H_    0.305904 0.568882 0.525276 0.143449
H46   H     H_    0.253043 0.572855 0.608569 0.101637
C58   C     C_3   0.177520 0.621937 0.493529 -0.351843
H47   H     H_    0.172019 0.575736 0.430466 0.219258
H48   H     H_    0.120856 0.584980 0.515361 0.198319
C59   C     C_3   0.188070 0.830864 0.496210 -0.762471
H49   H     H_    0.194729 0.880646 0.558888 0.222494
H50   H     H_    0.134104 0.897482 0.459988 0.245707
H51   H     H_    0.242586 0.870995 0.471311 0.248669
O32   O     O_3   0.759285 0.830377 0.466475 -0.569980
C60   C     C_3   0.751197 0.024073 0.456457 0.103849
H52   H     H_    0.695255 0.067753 0.477845 0.140693
H53   H     H_    0.745939 0.072883 0.393115 0.103138
C61   C     C_3   0.823891 0.120027 0.507057 -0.354451
H54   H     H_    0.830717 0.072804 0.570114 0.216640
H55   H     H_    0.879753 0.083231 0.483787 0.198351
C62   C     C_3   0.813673 0.329048 0.505121 -0.765890
H56   H     H_    0.805889 0.379864 0.442503 0.223898
H57   H     H_    0.868276 0.394929 0.540593 0.244467
H58   H     H_    0.759919 0.368983 0.531267 0.248582
O33   O     O_3   0.382454 0.976145 0.874704 -0.657180
H59   H     H_    0.384784 0.932712 0.930458 0.325325
O34   O     O_3   0.618478 0.473538 0.126569 -0.653799
H60   H     H_    0.616619 0.426245 0.071483 0.320117

loop_
_geom_bond_atom_site_label_1
_geom_bond_atom_site_label_2
_ccdc_geom_bond_type
C40   H10   S    
O14   C42   A    
O23   C51   S    
C29   O23   S    
C13   C15   A    
C5    C15   A    
O12   V3    S    
O15   V3    S    
C60   H52   S    
O1    C3    A    
O2    C4    A    
C2    O7    A    
C50   H22   S    
C35   H7    S    
O31   C57   S    
C29   C31   A    
C36   H8    S    
C55   H34   S    
O5    C3    A    
C52   H28   S    
O33   H59   S    
C18   H4    S    
C10   H2    S    
C60   H53   S    
C21   C35   A    
C54   H32   S    
C57   C58   S    
C58   C59   S    
C47   H16   S    
O16   V4    S    
C19   O27   S    
C31   C39   A    
C53   H29   S    
C51   C52   S    
C41   O18   A    
C24   C28   A    
C31   C33   A    
O18   V4    S    
C13   C42   S    
C23   C44   S    
C21   C37   A    
O34   H60   S    
C20   O28   S    
C53   H30   S    
C22   C38   A    
C61   C62   S    
O16   C44   A    
C32   C34   A    
C17   C19   S    
O15   C43   A    
C6    C16   A    
C18   H6    S    
C62   H57   S    
C54   C55   S    
C26   C34   A    
O5    V1    S    
O6    V2    S    
C38   O32   S    
C59   H51   S    
C49   H20   S    
C5    C19   S    
C45   C46   S    
O24   C54   S    
C50   H23   S    
C34   C36   A    
C56   H37   S    
O14   V4    S    
C52   C53   S    
C3    C8    S    
O13   V3    S    
C32   C40   A    
O25   H39   S    
C60   C61   S    
O20   V3    S    
O4    C2    A    
C48   H18   S    
C17   H3    S    
C47   H15   S    
C45   H11   S    
O11   C43   A    
C49   C50   S    
O13   C41   A    
C30   C32   A    
C17   H5    S    
C33   C35   A    
C12   O26   S    
C18   C20   S    
O4    V2    S    
C51   H26   S    
C48   H19   S    
C11   O25   S    
C46   H13   S    
O10   V1    S    
O6    C4    A    
C14   C41   S    
C23   C29   A    
C27   O21   S    
O1    V2    S    
C24   C30   A    
C62   H58   S    
C49   H21   S    
O2    V1    S    
C6    C20   S    
C55   H35   S    
C57   H46   S    
C30   O24   S    
C8    C10   A    
C22   C36   A    
C9    H1    S    
O26   H40   S    
C61   H55   S    
C1    C22   S    
O27   H41   S    
O17   V3    S    
C50   H24   S    
O3    V1    S    
C58   H47   S    
O32   C60   S    
C56   H38   S    
C9    C11   A    
C24   C43   S    
C23   C27   A    
C46   H14   S    
C61   H54   S    
C57   H45   S    
O3    C1    A    
C47   H17   S    
C56   H36   S    
C53   H31   S    
C39   H9    S    
C28   O22   S    
C11   C13   A    
C52   H27   S    
C12   C14   A    
C20   O30   S    
C55   C56   S    
C37   C39   A    
O28   H42   S    
C1    O8    A    
C15   C17   S    
O8    V2    S    
C48   C49   S    
C16   C18   S    
C58   H48   S    
C19   O29   S    
O22   C48   S    
O30   H44   S    
C25   C33   A    
C42   O17   A    
C37   O31   S    
C4    C7    S    
C14   C16   A    
C5    C7    A    
C45   H12   S    
C38   C40   A    
C6    C8    A    
C25   O33   S    
C51   H25   S    
O19   V4    S    
O21   C45   S    
C46   C47   S    
C10   C12   A    
O9    V2    S    
C59   H49   S    
C26   O34   S    
O12   C44   A    
C2    C21   S    
C54   H33   S    
C62   H56   S    
C25   C27   A    
C26   C28   A    
C59   H50   S    
O29   H43   S    
O7    V1    S    
C7    C9    A    
O11   V4    S    
