data_mof_unit_35492.cif
_audit_creation_date              2012-12-11T15:22:25-0500
_audit_creation_method            fapswitch 2.2
_symmetry_space_group_name_H-M    P1
_symmetry_Int_Tables_number       1
_space_group_crystal_system       triclinic
_cell_length_a                    22.459179
_cell_length_b                    12.974887
_cell_length_c                    26.988676
_cell_angle_alpha                 89.999657
_cell_angle_beta                  90.196667
_cell_angle_gamma                 90.000095
_cell_volume                      7864.59715591

loop_
_atom_site_label
_atom_site_type_symbol
_atom_type_description
_atom_site_fract_x
_atom_site_fract_y
_atom_site_fract_z
_atom_type_partial_charge
C1    C     C_R   0.720929 0.345252 0.178293 0.586994
C2    C     C_R   0.279071 0.345252 0.821707 0.586987
C3    C     C_R   0.220928 0.845252 0.178293 0.586989
C4    C     C_R   0.779071 0.845252 0.821707 0.586989
C5    C     C_R   0.476261 0.161063 0.871342 0.029437
C6    C     C_R   0.523739 0.161063 0.128658 0.029435
C7    C     C_R   0.976261 0.661063 0.871342 0.029436
C8    C     C_R   0.023739 0.661063 0.128658 0.029436
C9    C     C_R   0.519960 0.254849 0.102811 -0.177954
C10   C     C_R   0.480040 0.254849 0.897189 -0.177953
C11   C     C_R   0.019960 0.754849 0.102811 -0.177955
C12   C     C_R   0.980040 0.754849 0.897189 -0.177954
C13   C     C_R   0.508540 0.255679 0.051750 0.003298
C14   C     C_R   0.491460 0.255679 0.948250 0.003298
C15   C     C_R   0.008540 0.755679 0.051750 0.003298
C16   C     C_R   0.991460 0.755679 0.948250 0.003297
C17   C     C_R   0.503328 0.161426 0.025975 0.033245
C18   C     C_R   0.496671 0.161426 0.974025 0.033245
C19   C     C_R   0.003328 0.661426 0.025975 0.033245
C20   C     C_R   0.996672 0.661426 0.974025 0.033245
C21   C     C_R   0.504716 0.348970 0.025620 -0.121895
C22   C     C_R   0.495286 0.348970 0.974379 -0.121894
C23   C     C_R   0.004716 0.848970 0.025620 -0.121895
C24   C     C_R   0.995286 0.848970 0.974379 -0.121895
C25   C     C_R   0.740213 0.956720 0.129999 0.026003
C26   C     C_R   0.259787 0.956719 0.870000 0.026002
C27   C     C_R   0.240213 0.456720 0.130000 0.026002
C28   C     C_R   0.759787 0.456719 0.870000 0.026004
C29   C     C_R   0.794197 0.971431 0.104908 -0.131106
C30   C     C_R   0.205802 0.971430 0.895092 -0.131106
C31   C     C_R   0.294198 0.471431 0.104908 -0.131104
C32   C     C_R   0.705802 0.471430 0.895092 -0.131104
C33   C     C_R   0.797542 0.953283 0.054141 -0.068951
C34   C     C_R   0.202457 0.953281 0.945859 -0.068951
C35   C     C_R   0.297542 0.453282 0.054141 -0.068952
C36   C     C_R   0.702457 0.453281 0.945859 -0.068951
C37   C     C_R   0.746823 0.921416 0.027767 0.077297
C38   C     C_R   0.253176 0.921415 0.972233 0.077298
C39   C     C_R   0.246824 0.421416 0.027767 0.077297
C40   C     C_R   0.753176 0.421415 0.972233 0.077298
C41   C     C_R   0.694197 0.899320 0.053424 -0.129918
C42   C     C_R   0.305802 0.899318 0.946576 -0.129919
C43   C     C_R   0.194198 0.399319 0.053424 -0.129919
C44   C     C_R   0.805802 0.399318 0.946576 -0.129919
C45   C     C_R   0.553072 0.156993 0.177749 0.571435
C46   C     C_R   0.446927 0.156993 0.822251 0.571440
C47   C     C_R   0.053072 0.656993 0.177749 0.571438
C48   C     C_R   0.946927 0.656992 0.822251 0.571440
C49   C     C_R   0.691046 0.916070 0.104222 -0.126729
C50   C     C_R   0.308953 0.916068 0.895777 -0.126731
C51   C     C_R   0.191047 0.416069 0.104222 -0.126731
C52   C     C_R   0.808953 0.416068 0.895777 -0.126732
C53   C     C_R   0.725479 0.822547 0.951515 -0.180199
C54   C     C_R   0.274519 0.822547 0.048486 -0.180200
C55   C     C_R   0.225480 0.322546 0.951515 -0.180199
C56   C     C_R   0.774519 0.322547 0.048486 -0.180200
C57   C     C_R   0.730239 0.807492 0.900942 -0.181494
C58   C     C_R   0.269760 0.807492 0.099058 -0.181495
C59   C     C_R   0.230239 0.307491 0.900942 -0.181494
C60   C     C_R   0.769760 0.307492 0.099058 -0.181495
C61   C     C_R   0.782099 0.971374 0.892308 0.238292
C62   C     C_R   0.217902 0.971374 0.107691 0.238290
C63   C     C_R   0.282098 0.471374 0.892309 0.238290
C64   C     C_R   0.717902 0.471374 0.107691 0.238290
C65   C     C_R   0.773397 0.989888 0.943680 0.241557
C66   C     C_R   0.226604 0.989887 0.056319 0.241556
C67   C     C_R   0.273396 0.489887 0.943680 0.241557
C68   C     C_R   0.726604 0.489887 0.056319 0.241556
C69   C     C_R   0.748789 0.911391 0.973474 0.040188
C70   C     C_R   0.251210 0.911390 0.026525 0.040188
C71   C     C_R   0.248789 0.411390 0.973475 0.040188
C72   C     C_R   0.751210 0.411390 0.026525 0.040188
C73   C     C_R   0.760750 0.878872 0.871357 0.039526
C74   C     C_R   0.239249 0.878872 0.128643 0.039528
C75   C     C_R   0.260751 0.378872 0.871357 0.039526
C76   C     C_R   0.739249 0.378872 0.128643 0.039528
C77   C     C_R   0.527292 0.169249 0.370857 0.027165
C78   C     C_R   0.472720 0.169248 0.629147 0.027211
C79   C     C_R   0.027283 0.669249 0.370854 0.027188
C80   C     C_R   0.972717 0.669250 0.629146 0.027215
C81   C     C_R   0.536233 0.260526 0.397903 -0.115097
C82   C     C_R   0.463804 0.260536 0.602105 -0.115019
C83   C     C_R   0.036205 0.760536 0.397896 -0.115014
C84   C     C_R   0.963796 0.760538 0.602104 -0.114962
C85   C     C_R   0.525031 0.263131 0.448515 -0.102312
C86   C     C_R   0.475009 0.263142 0.551494 -0.102398
C87   C     C_R   0.025002 0.763143 0.448507 -0.102435
C88   C     C_R   0.974996 0.763143 0.551492 -0.102501
C89   C     C_R   0.731387 0.001848 0.179336 0.553821
C90   C     C_R   0.268612 0.001847 0.820663 0.553803
C91   C     C_R   0.231387 0.501848 0.179337 0.553834
C92   C     C_R   0.768612 0.501847 0.820663 0.553823
C93   C     C_R   0.503631 0.175122 0.472847 0.033410
C94   C     C_R   0.496389 0.175121 0.527158 0.033360
C95   C     C_R   0.003618 0.675125 0.472844 0.033364
C96   C     C_R   0.996380 0.675126 0.527156 0.033334
C97   C     C_R   0.490300 0.086389 0.445052 -0.120445
C98   C     C_R   0.509699 0.086376 0.554951 -0.120482
C99   C     C_R   0.990301 0.586383 0.445051 -0.120477
C100  C     C_R   0.009697 0.586385 0.554949 -0.120496
C101  C     C_R   0.502432 0.083224 0.394489 -0.124080
C102  C     C_R   0.497564 0.083211 0.605513 -0.124081
C103  C     C_R   0.002435 0.583216 0.394489 -0.124107
C104  C     C_R   0.997564 0.583218 0.605511 -0.124118
C105  C     C_R   0.738019 0.957806 0.372649 0.004348
C106  C     C_R   0.261967 0.957765 0.627359 0.004352
C107  C     C_R   0.238016 0.457786 0.372646 0.004340
C108  C     C_R   0.761976 0.457797 0.627354 0.004358
C109  C     C_R   0.685744 0.952908 0.401196 -0.148970
C110  C     C_R   0.314247 0.952731 0.598823 -0.148961
C111  C     C_R   0.185744 0.452944 0.401199 -0.148960
C112  C     C_R   0.814247 0.452898 0.598803 -0.148970
C113  C     C_R   0.688643 0.939361 0.451804 -0.129795
C114  C     C_R   0.311349 0.939186 0.548214 -0.129779
C115  C     C_R   0.188644 0.439375 0.451803 -0.129783
C116  C     C_R   0.811341 0.439338 0.548197 -0.129792
C117  C     C_R   0.743786 0.929211 0.475021 0.004465
C118  C     C_R   0.256204 0.929160 0.524986 0.004500
C119  C     C_R   0.243786 0.429161 0.475015 0.004448
C120  C     C_R   0.756196 0.429188 0.524985 0.004456
C121  C     C_R   0.796121 0.926079 0.446750 -0.121177
C122  C     C_R   0.203860 0.926141 0.553250 -0.121168
C123  C     C_R   0.296115 0.425954 0.446738 -0.121187
C124  C     C_R   0.703863 0.426065 0.553259 -0.121174
C125  C     C_R   0.794014 0.938997 0.395213 0.043002
C126  C     C_R   0.205965 0.939071 0.604785 0.043053
C127  C     C_R   0.294008 0.438878 0.395199 0.042915
C128  C     C_R   0.705977 0.438982 0.604796 0.043006
C129  C     C_R   0.707232 0.855461 0.553921 -0.117707
C130  C     C_R   0.292750 0.855396 0.446085 -0.117717
C131  C     C_R   0.207220 0.355467 0.553924 -0.117690
C132  C     C_R   0.792714 0.355333 0.446103 -0.117726
C133  C     C_R   0.721069 0.347722 0.321624 0.546987
C134  C     C_R   0.278931 0.347728 0.678377 0.546992
C135  C     C_R   0.221070 0.847727 0.321622 0.546985
C136  C     C_R   0.778930 0.847729 0.678378 0.546989
C137  C     C_R   0.713881 0.839410 0.604432 -0.123580
C138  C     C_R   0.286106 0.839362 0.395574 -0.123591
C139  C     C_R   0.213871 0.339428 0.604435 -0.123568
C140  C     C_R   0.786073 0.339284 0.395593 -0.123588
C141  C     C_R   0.796109 0.960941 0.606010 -0.121533
C142  C     C_R   0.203904 0.960944 0.393991 -0.121539
C143  C     C_R   0.296130 0.460896 0.605997 -0.121528
C144  C     C_R   0.703916 0.460964 0.393987 -0.121542
C145  C     C_R   0.789285 0.977180 0.555493 -0.120162
C146  C     C_R   0.210727 0.977175 0.444509 -0.120149
C147  C     C_R   0.289307 0.477118 0.555480 -0.120167
C148  C     C_R   0.710731 0.477199 0.444505 -0.120154
C149  C     C_R   0.746491 0.921201 0.528935 0.035670
C150  C     C_R   0.253504 0.921161 0.471070 0.035689
C151  C     C_R   0.246495 0.421164 0.528930 0.035662
C152  C     C_R   0.753488 0.421154 0.471074 0.035654
C153  C     C_R   0.760344 0.888077 0.630267 0.026420
C154  C     C_R   0.239656 0.888063 0.369735 0.026422
C155  C     C_R   0.260349 0.388070 0.630264 0.026412
C156  C     C_R   0.739650 0.388039 0.369741 0.026417
C157  C     C_R   0.554197 0.158953 0.321609 0.543940
C158  C     C_R   0.445805 0.158953 0.678392 0.543979
C159  C     C_R   0.054195 0.658953 0.321609 0.543957
C160  C     C_R   0.945804 0.658953 0.678392 0.543974
C161  C     C_R   0.731556 0.001541 0.322932 0.579304
C162  C     C_R   0.268443 0.001536 0.677069 0.579247
C163  C     C_R   0.231556 0.501535 0.322930 0.579373
C164  C     C_R   0.768443 0.501538 0.677069 0.579312
C165  C     C_R   0.511180 0.067502 0.103743 0.233160
C166  C     C_R   0.488818 0.067502 0.896257 0.233160
C167  C     C_R   0.011181 0.567502 0.103743 0.233160
C168  C     C_R   0.988818 0.567502 0.896257 0.233159
C169  C     C_R   0.504610 0.067045 0.052006 0.022858
C170  C     C_R   0.495388 0.067045 0.947995 0.022858
C171  C     C_R   0.004610 0.567045 0.052006 0.022858
C172  C     C_R   0.995388 0.567045 0.947995 0.022858
C173  C     C_R   0.499063 0.974001 0.974366 -0.138173
C174  C     C_R   0.500934 0.974001 0.025636 -0.138173
C175  C     C_R   0.999063 0.474001 0.974366 -0.138173
C176  C     C_R   0.000934 0.474001 0.025636 -0.138172
Cr1   Cr    Cr6+3 0.756570 0.170940 0.251190 1.051213
Cr2   Cr    Cr6+3 0.243430 0.170940 0.748810 1.051233
Cr3   Cr    Cr6+3 0.256570 0.670940 0.251190 1.051221
Cr4   Cr    Cr6+3 0.743430 0.670940 0.748810 1.051212
Cr5   Cr    Cr6+3 0.623740 0.299110 0.249580 1.045787
Cr6   Cr    Cr6+3 0.376260 0.299110 0.750420 1.045787
Cr7   Cr    Cr6+3 0.123740 0.799110 0.249580 1.045791
Cr8   Cr    Cr6+3 0.876260 0.799110 0.750420 1.045798
Cr9   Cr    Cr6+3 0.625990 0.036240 0.250480 1.048416
Cr10  Cr    Cr6+3 0.374010 0.036240 0.749520 1.048403
Cr11  Cr    Cr6+3 0.125990 0.536240 0.250480 1.048424
Cr12  Cr    Cr6+3 0.874010 0.536240 0.749520 1.048421
H1    H     H_    0.654683 0.873714 0.033852 0.110464
H2    H     H_    0.345316 0.873713 0.966148 0.110465
H3    H     H_    0.154684 0.373713 0.033853 0.110465
H4    H     H_    0.845316 0.373713 0.966147 0.110465
H5    H     H_    0.648830 0.903844 0.122549 0.131809
H6    H     H_    0.351169 0.903843 0.877451 0.131809
H7    H     H_    0.148830 0.403844 0.122549 0.131808
H8    H     H_    0.851169 0.403843 0.877451 0.131809
H9    H     H_    0.555857 0.327925 0.380798 0.132295
H10   H     H_    0.444195 0.327946 0.619213 0.132284
H11   H     H_    0.055816 0.827944 0.380788 0.132309
H12   H     H_    0.944184 0.827944 0.619212 0.132315
H13   H     H_    0.528069 0.018471 0.537383 0.102322
H14   H     H_    0.471915 0.018494 0.462619 0.102334
H15   H     H_    0.028072 0.518483 0.537381 0.102343
H16   H     H_    0.971928 0.518481 0.462620 0.102352
H17   H     H_    0.505074 0.012080 0.625590 0.131867
H18   H     H_    0.494903 0.012102 0.374409 0.131867
H19   H     H_    0.005080 0.512089 0.625589 0.131885
H20   H     H_    0.994920 0.512086 0.374412 0.131891
H21   H     H_    0.536002 0.332469 0.468916 0.118410
H22   H     H_    0.464056 0.332492 0.531094 0.118444
H23   H     H_    0.035961 0.832490 0.468906 0.118400
H24   H     H_    0.964036 0.832489 0.531093 0.118411
H25   H     H_    0.642267 0.967150 0.385058 0.147343
H26   H     H_    0.357730 0.966874 0.614968 0.147340
H27   H     H_    0.142269 0.467234 0.385065 0.147341
H28   H     H_    0.857725 0.467143 0.614938 0.147338
H29   H     H_    0.673673 0.812010 0.533959 0.110552
H30   H     H_    0.326294 0.811913 0.466048 0.110511
H31   H     H_    0.173646 0.312043 0.533967 0.110591
H32   H     H_    0.826241 0.311825 0.466076 0.110595
H33   H     H_    0.685587 0.783020 0.622287 0.140425
H34   H     H_    0.314390 0.782957 0.377721 0.140392
H35   H     H_    0.185565 0.283067 0.622297 0.140456
H36   H     H_    0.814337 0.282832 0.377751 0.140467
H37   H     H_    0.499077 0.899900 0.956052 0.126360
H38   H     H_    0.500919 0.899900 0.043950 0.126362
H39   H     H_    0.999077 0.399900 0.956052 0.126360
H40   H     H_    0.000919 0.399900 0.043950 0.126362
H41   H     H_    0.647829 0.941739 0.473077 0.114307
H42   H     H_    0.352172 0.941476 0.526951 0.114276
H43   H     H_    0.147832 0.441791 0.473078 0.114315
H44   H     H_    0.852153 0.441704 0.526921 0.114336
H45   H     H_    0.818750 0.030580 0.536837 0.113699
H46   H     H_    0.181273 0.030596 0.463163 0.113721
H47   H     H_    0.318784 0.530486 0.536815 0.113664
H48   H     H_    0.681293 0.530657 0.463154 0.113712
H49   H     H_    0.831853 0.000308 0.625293 0.135234
H50   H     H_    0.168172 0.000336 0.374706 0.135236
H51   H     H_    0.331885 0.500245 0.625274 0.135229
H52   H     H_    0.668204 0.500395 0.374693 0.135235
H53   H     H_    0.838435 0.912690 0.465083 0.150165
H54   H     H_    0.161538 0.912837 0.534914 0.150098
H55   H     H_    0.338425 0.412509 0.465068 0.150306
H56   H     H_    0.661546 0.412676 0.534928 0.150176
H57   H     H_    0.471260 0.326809 0.878095 0.139163
H58   H     H_    0.528741 0.326809 0.121904 0.139164
H59   H     H_    0.971260 0.826809 0.878095 0.139164
H60   H     H_    0.028741 0.826809 0.121904 0.139163
H61   H     H_    0.491357 0.421958 0.955131 0.113768
H62   H     H_    0.508646 0.421958 0.044868 0.113769
H63   H     H_    0.991357 0.921958 0.955131 0.113768
H64   H     H_    0.008646 0.921958 0.044868 0.113768
H65   H     H_    0.832884 0.002030 0.123930 0.133169
H66   H     H_    0.167115 0.002028 0.876069 0.133169
H67   H     H_    0.332884 0.502030 0.123930 0.133173
H68   H     H_    0.667115 0.502028 0.876069 0.133170
H69   H     H_    0.705419 0.762570 0.973828 0.164633
H70   H     H_    0.294579 0.762569 0.026172 0.164633
H71   H     H_    0.205420 0.262568 0.973828 0.164634
H72   H     H_    0.794579 0.262569 0.026172 0.164633
H73   H     H_    0.714180 0.735335 0.885720 0.157089
H74   H     H_    0.285819 0.735335 0.114280 0.157089
H75   H     H_    0.214180 0.235335 0.885721 0.157090
H76   H     H_    0.785819 0.235335 0.114280 0.157090
H77   H     H_    0.839204 0.967205 0.035166 0.144805
H78   H     H_    0.160796 0.967204 0.964834 0.144804
H79   H     H_    0.339204 0.467205 0.035166 0.144805
H80   H     H_    0.660796 0.467203 0.964834 0.144804
O1    O     O_R   0.769900 0.064540 0.196060 -0.511953
O2    O     O_R   0.230100 0.064540 0.803940 -0.511959
O3    O     O_R   0.269900 0.564540 0.196060 -0.511936
O4    O     O_R   0.730100 0.564540 0.803940 -0.511952
O5    O     O_R   0.574760 0.239320 0.300850 -0.503909
O6    O     O_R   0.425240 0.239320 0.699150 -0.503899
O7    O     O_R   0.074760 0.739320 0.300850 -0.503892
O8    O     O_R   0.925240 0.739320 0.699150 -0.503882
O9    O     O_R   0.566290 0.069580 0.305400 -0.520825
O10   O     O_R   0.433710 0.069580 0.694600 -0.520828
O11   O     O_R   0.066290 0.569580 0.305400 -0.520834
O12   O     O_R   0.933710 0.569580 0.694600 -0.520836
O13   O     O_R   0.680760 0.993330 0.302620 -0.511923
O14   O     O_R   0.319240 0.993330 0.697380 -0.511936
O15   O     O_R   0.180760 0.493330 0.302620 -0.511932
O16   O     O_R   0.819240 0.493330 0.697380 -0.511922
O17   O     O_3   0.668770 0.168760 0.250420 -0.265158
O18   O     O_3   0.331230 0.168760 0.749580 -0.265148
O19   O     O_3   0.168770 0.668760 0.250420 -0.265165
O20   O     O_3   0.831230 0.668760 0.749580 -0.265160
O21   O     O_R   0.750800 0.274080 0.199250 -0.518418
O22   O     O_R   0.249200 0.274080 0.800750 -0.518421
O23   O     O_R   0.250800 0.774080 0.199250 -0.518423
O24   O     O_R   0.749200 0.774080 0.800750 -0.518422
O25   O     O_R   0.669990 0.371670 0.194150 -0.459008
O26   O     O_R   0.330010 0.371670 0.805850 -0.459012
O27   O     O_R   0.169990 0.871670 0.194150 -0.459010
O28   O     O_R   0.830010 0.871670 0.805850 -0.459012
O29   O     O_R   0.574600 0.238480 0.197800 -0.515940
O30   O     O_R   0.425400 0.238480 0.802200 -0.515942
O31   O     O_R   0.074600 0.738480 0.197800 -0.515939
O32   O     O_R   0.925400 0.738480 0.802200 -0.515939
O33   O     O_R   0.566130 0.068680 0.194240 -0.457240
O34   O     O_R   0.433870 0.068680 0.805760 -0.457240
O35   O     O_R   0.066130 0.568680 0.194240 -0.457239
O36   O     O_R   0.933870 0.568680 0.805760 -0.457240
O37   O     O_R   0.680610 0.992490 0.199570 -0.503116
O38   O     O_R   0.319390 0.992490 0.800430 -0.503121
O39   O     O_R   0.180610 0.492490 0.199570 -0.503118
O40   O     O_R   0.819390 0.492490 0.800430 -0.503116
O41   O     O_R   0.770060 0.065440 0.307230 -0.478231
O42   O     O_R   0.229940 0.065440 0.692770 -0.478203
O43   O     O_R   0.270060 0.565440 0.307230 -0.478152
O44   O     O_R   0.729940 0.565440 0.692770 -0.478215
O45   O     O_R   0.750960 0.274920 0.302300 -0.505959
O46   O     O_R   0.249040 0.274920 0.697700 -0.505937
O47   O     O_R   0.250960 0.774920 0.302300 -0.505964
O48   O     O_R   0.749040 0.774920 0.697700 -0.505950
O49   O     O_R   0.670160 0.372580 0.305320 -0.519701
O50   O     O_R   0.329840 0.372580 0.694680 -0.519718
O51   O     O_R   0.170160 0.872580 0.305320 -0.519709
O52   O     O_R   0.829840 0.872580 0.694680 -0.519720
O53   O     O_3   0.493007 0.977007 0.869630 -0.669665
H81   H     H_    0.462902 0.928858 0.883123 0.308252
O54   O     O_3   0.506991 0.977007 0.130371 -0.669664
H82   H     H_    0.537095 0.928858 0.116879 0.308252
O55   O     O_3   0.993007 0.477007 0.869630 -0.669664
H83   H     H_    0.962902 0.428858 0.883123 0.308252
O56   O     O_3   0.006991 0.477007 0.130371 -0.669662
H84   H     H_    0.037095 0.428858 0.116879 0.308252
O57   O     O_3   0.812491 0.039689 0.862353 -0.687746
H85   H     H_    0.840772 0.079712 0.882975 0.325689
O58   O     O_3   0.187510 0.039689 0.137646 -0.687746
H86   H     H_    0.159229 0.079712 0.117024 0.325688
O59   O     O_3   0.312491 0.539689 0.862353 -0.687750
H87   H     H_    0.340772 0.579712 0.882975 0.325688
O60   O     O_3   0.687510 0.539689 0.137646 -0.687745
H88   H     H_    0.659229 0.579712 0.117024 0.325688
C177  C     C_2   0.850247 0.930106 0.366575 0.581626
O61   O     O_2   0.849056 0.906937 0.322659 -0.498093
O62   O     O_R   0.905042 0.944508 0.390403 -0.721529
H89   H     H_    0.940114 0.934735 0.367315 0.338385
C178  C     C_2   0.149716 0.930326 0.633413 0.581668
O63   O     O_2   0.150875 0.907053 0.677317 -0.498093
O64   O     O_R   0.094943 0.944997 0.609588 -0.721540
H90   H     H_    0.059854 0.935313 0.632667 0.338358
C179  C     C_2   0.350234 0.429849 0.366553 0.581564
O65   O     O_2   0.349011 0.406988 0.322600 -0.498062
O66   O     O_R   0.405055 0.443726 0.390412 -0.721543
H91   H     H_    0.440111 0.433866 0.367316 0.338420
C180  C     C_2   0.649748 0.430071 0.633440 0.581625
O67   O     O_2   0.650949 0.406929 0.677360 -0.498095
O68   O     O_R   0.594947 0.444426 0.609615 -0.721542
H92   H     H_    0.559880 0.434641 0.632707 0.338380
O69   O     O_3   0.787506 0.083067 0.965543 -0.741102
H93   H     H_    0.784428 0.138265 0.940322 0.331672
O70   O     O_3   0.212495 0.083067 0.034455 -0.741102
H94   H     H_    0.215573 0.138264 0.059677 0.331672
O71   O     O_3   0.287505 0.583067 0.965544 -0.741101
H95   H     H_    0.284428 0.638264 0.940322 0.331671
O72   O     O_3   0.712495 0.583066 0.034455 -0.741102
H96   H     H_    0.715573 0.638264 0.059676 0.331671

loop_
_geom_bond_atom_site_label_1
_geom_bond_atom_site_label_2
_ccdc_geom_bond_type
C99   C103  A    
C7    C168  A    
C146  H46   S    
O71   H95   S    
C55   C59   A    
C99   H16   S    
C142  C146  A    
C77   C101  A    
C19   C20   A    
C52   H8    S    
C97   H14   S    
C53   C69   A    
C38   C70   S    
C177  O61   D    
O59   H87   S    
C108  C164  S    
Cr9   O33   S    
C111  H27   S    
C82   H10   S    
Cr11  O35   S    
C26   C50   A    
C95   C99   A    
C78   C102  A    
C29   C33   A    
C100  C104  A    
C3    C74   S    
Cr6   O30   S    
C146  C150  A    
C131  C151  A    
C12   C16   A    
C56   C72   A    
C169  C174  A    
C133  O45   A    
C124  H56   S    
C134  O46   A    
C172  C175  A    
C141  C145  A    
C138  C154  A    
C6    C165  A    
C21   C22   A    
C36   H80   S    
C56   H72   S    
C41   C49   A    
C18   C170  A    
C25   C29   A    
C27   C31   A    
O54   H82   S    
C143  H51   S    
C28   C32   A    
Cr10  O18   S    
C62   C66   A    
C167  C171  A    
Cr4   O48   S    
C98   C102  A    
Cr5   O49   S    
C60   C76   A    
Cr9   O9    S    
Cr7   O51   S    
C23   H64   S    
C42   H2    S    
C134  C155  S    
C54   C70   A    
C16   C20   A    
C1    O21   A    
C9    H58   S    
C140  C156  A    
C135  O47   A    
C20   C172  A    
C119  C123  A    
C132  C152  A    
C130  C138  A    
C124  C128  A    
Cr12  O12   S    
C139  H35   S    
C24   H63   S    
C46   O30   A    
C85   H21   S    
Cr11  O11   S    
C26   C90   S    
C12   H59   S    
C5    C46   S    
Cr1   O21   S    
C166  O53   S    
C105  C125  A    
C7    C48   S    
C8    C47   S    
C107  C127  A    
C175  C176  A    
C51   H7    S    
C44   H4    S    
C79   C159  S    
C136  C153  S    
Cr1   O17   S    
C66   C70   A    
Cr3   O19   S    
C162  O42   A    
C158  O10   A    
C157  O9    A    
O60   H88   S    
C61   C65   A    
C129  C137  A    
O53   H81   S    
C88   H24   S    
O72   H96   S    
C39   C71   S    
C117  C149  S    
C35   H79   S    
C129  C149  A    
C48   O32   A    
C55   C71   A    
C2    C75   S    
C91   O39   A    
Cr12  O16   S    
C122  C126  A    
C180  O67   D    
C159  O11   A    
O68   H92   S    
C160  O12   A    
C43   C51   A    
C6    C9    A    
Cr5   O5    S    
C121  H53   S    
Cr4   O24   S    
Cr1   O41   S    
C64   C68   A    
C59   H75   S    
C110  H26   S    
Cr3   O43   S    
C100  H15   S    
C138  H34   S    
C144  H52   S    
C118  C122  A    
C104  H19   S    
C57   C73   A    
C130  H30   S    
C167  O56   S    
C9    C13   A    
C133  O49   A    
C85   C93   A    
C78   C158  S    
C87   C95   A    
C130  C150  A    
C23   C24   A    
C27   C91   S    
C45   O33   A    
Cr12  O40   S    
C110  C114  A    
C44   C52   A    
C173  C174  A    
C116  H44   S    
Cr9   O37   S    
C79   C103  A    
Cr10  O34   S    
C11   C15   A    
C27   C51   A    
C178  O64   S    
C7    C12   A    
C176  H40   S    
C30   C34   A    
C13   C21   A    
Cr1   O45   S    
C10   C14   A    
C21   H62   S    
C140  H36   S    
C108  C128  A    
C116  C120  A    
C132  H32   S    
C84   C88   A    
C144  C156  A    
C147  C151  A    
Cr8   O52   S    
C121  C125  A    
C37   C69   S    
C123  C127  A    
C139  C155  A    
C54   C58   A    
C17   C18   A    
C5    C166  A    
C142  C154  A    
C4    C73   S    
C42   C50   A    
C113  C117  A    
C107  C163  S    
C26   C30   A    
C115  C119  A    
C105  C161  S    
C180  O68   S    
C93   C97   A    
C112  C116  A    
C58   C74   A    
C105  C109  A    
C40   C72   S    
C1    C76   S    
C107  C111  A    
C148  C152  A    
Cr1   O1    S    
C32   C36   A    
C113  H41   S    
C164  O44   A    
Cr3   O3    S    
C171  C176  A    
C31   H67   S    
C2    O22   A    
C3    O27   A    
Cr8   O32   S    
C135  O51   A    
C63   C75   A    
C136  O52   A    
C96   C100  A    
C55   H71   S    
C112  H28   S    
C37   C41   A    
C131  C139  A    
C101  H18   S    
C40   C44   A    
Cr9   O13   S    
C81   C85   A    
Cr10  O10   S    
C66   O70   S    
C83   C87   A    
C88   C96   A    
C6    C45   S    
C145  H45   S    
Cr2   O22   S    
C133  C156  S    
C60   H76   S    
C98   H13   S    
Cr7   O27   S    
C80   C84   A    
O69   H93   S    
C90   O2    A    
Cr2   O18   S    
C15   C19   A    
C57   H73   S    
C135  C154  S    
C80   C104  A    
C11   H60   S    
C81   H9    S    
C92   O4    A    
C161  O13   A    
C80   C160  S    
C94   C98   A    
C137  H33   S    
C175  H39   S    
C63   O59   S    
Cr7   O31   S    
C118  C150  S    
C14   C18   A    
C129  H29   S    
Cr12  O20   S    
C30   H66   S    
C160  O8    A    
C179  O66   S    
Cr6   O50   S    
Cr5   O17   S    
Cr6   O6    S    
Cr7   O19   S    
C65   O69   S    
C58   H74   S    
C165  C169  A    
Cr8   O28   S    
Cr2   O42   S    
C87   H23   S    
Cr6   O26   S    
C123  H55   S    
C177  O62   S    
C53   H69   S    
C91   O3    A    
C29   H65   S    
O66   H91   S    
C53   C57   A    
C92   O40   A    
C61   C73   A    
C82   C86   A    
C33   C37   A    
C56   C60   A    
C33   H77   S    
C45   O29   A    
C128  C180  S    
C35   C39   A    
O58   H86   S    
C4    O24   A    
C8    C167  A    
C89   O37   A    
O62   H89   S    
C68   O72   S    
C77   C81   A    
C32   H68   S    
Cr10  O38   S    
C10   H57   S    
Cr4   O4    S    
Cr5   O29   S    
C31   C35   A    
C163  O43   A    
Cr2   O46   S    
C165  O54   S    
Cr5   O25   S    
C142  H50   S    
Cr11  O15   S    
C86   H22   S    
C126  C178  S    
C1    O25   A    
C132  C140  A    
C106  C126  A    
C25   C89   S    
C143  C155  A    
C174  H38   S    
O56   H84   S    
C79   C83   A    
C50   H6    S    
C14   C22   A    
C65   C69   A    
C67   C71   A    
C106  C162  S    
O55   H83   S    
C25   C49   A    
C13   C17   A    
C108  C112  A    
C168  C172  A    
C62   C74   A    
C145  C149  A    
Cr2   O2    S    
C170  C173  A    
C147  H47   S    
Cr8   O8    S    
O64   H90   S    
C93   C94   S    
O57   H85   S    
C2    O26   A    
C47   O31   A    
C95   C96   S    
C3    O23   A    
C144  C148  A    
C141  C153  A    
C134  O50   A    
C122  H54   S    
C178  O63   D    
C136  O48   A    
C143  C147  A    
C164  O16   A    
C89   O1    A    
C19   C171  A    
C38   C42   A    
C109  H25   S    
Cr12  O36   S    
C64   O60   S    
C17   C169  A    
C62   O58   S    
C67   O71   S    
C131  H31   S    
C78   C82   A    
C117  C121  A    
C86   C94   A    
Cr11  O19   S    
O70   H94   S    
Cr3   O23   S    
Cr10  O14   S    
C115  H43   S    
C68   C72   A    
C15   C23   A    
C43   H3    S    
Cr8   O20   S    
C158  O6    A    
C162  O14   A    
C119  C151  S    
C63   C67   A    
C120  C152  S    
C137  C153  A    
Cr4   O44   S    
C36   C40   A    
C103  H20   S    
C127  C179  S    
C22   H61   S    
C39   C43   A    
C157  O5    A    
C148  H48   S    
Cr4   O20   S    
C46   O34   A    
Cr6   O18   S    
Cr7   O7    S    
C64   C76   A    
C28   C92   S    
C114  C118  A    
C163  O15   A    
C161  O41   A    
C168  O55   S    
C83   H11   S    
C59   C75   A    
C106  C110  A    
C125  C177  S    
C141  H49   S    
C34   C38   A    
C34   H78   S    
C47   O35   A    
C4    O28   A    
C48   O36   A    
C114  H42   S    
C41   H1    S    
C90   O38   A    
C109  C113  A    
C159  O7    A    
Cr11  O39   S    
C5    C10   A    
C28   C52   A    
C49   H5    S    
C8    C11   A    
C54   H70   S    
C166  C170  A    
C84   H12   S    
C102  H17   S    
Cr3   O47   S    
C16   C24   A    
Cr9   O17   S    
C173  H37   S    
C111  C115  A    
C61   O57   S    
C179  O65   D    
C97   C101  A    
C120  C124  A    
C77   C157  S    
