data_mof_unit_33520.cif
_audit_creation_date              2012-12-10T17:47:38-0500
_audit_creation_method            fapswitch 2.2
_symmetry_space_group_name_H-M    P1
_symmetry_Int_Tables_number       1
_space_group_crystal_system       triclinic
_cell_length_a                    10.630829
_cell_length_b                    10.720014
_cell_length_c                    9.886538
_cell_angle_alpha                 88.951275
_cell_angle_beta                  90.00714
_cell_angle_gamma                 91.842523
_cell_volume                      1125.924642

loop_
_atom_site_label
_atom_site_type_symbol
_atom_type_description
_atom_site_fract_x
_atom_site_fract_y
_atom_site_fract_z
_atom_type_partial_charge
C1    C     C_R   0.506243 0.259607 0.502341 0.861405
C2    C     C_R   0.486917 0.056394 0.631368 0.101945
C3    C     C_R   0.508463 0.125327 0.508431 -0.124729
C4    C     C_R   0.257748 0.499446 0.500308 0.816917
C5    C     C_R   0.513162 0.064744 0.384532 -0.222798
C6    C     C_R   0.497727 0.937787 0.380552 -0.217805
C7    C     C_R   0.468281 0.870652 0.498989 -0.133406
C8    C     C_R   0.332392 0.338353 0.143101 -0.226870
C9    C     C_R   0.248757 0.259837 0.074423 -0.228346
C10   C     C_R   0.247954 0.259384 0.934080 0.124683
C11   C     C_R   0.332637 0.338475 0.862537 -0.221632
C12   C     C_3   0.878705 0.499108 0.501282 0.099695
C13   C     C_R   0.417331 0.420381 0.929148 0.125431
C14   C     C_R   0.417321 0.420385 0.073777 0.178630
C15   C     C_R   0.578869 0.576410 0.070072 -0.131879
C16   C     C_R   0.486416 0.738599 0.499233 0.881820
C17   C     C_R   0.578830 0.576378 0.926760 -0.118723
C18   C     C_R   0.742285 0.500016 0.500290 0.856627
C19   C     C_3   0.071308 0.498749 0.649227 -0.355160
C20   C     C_3   0.928523 0.498216 0.649131 -0.391051
C21   C     C_3   0.076311 0.616461 0.425822 -0.488045
C22   C     C_3   0.067908 0.379496 0.429124 0.274349
C23   C     C_3   0.932044 0.617253 0.426047 -0.421038
C24   C     C_3   0.121241 0.497926 0.501328 0.128548
C25   C     C_3   0.923096 0.380757 0.429850 -0.360054
C26   C     C_R   0.505605 0.104239 0.763222 -0.177892
C27   C     C_R   0.459545 0.038977 0.877143 -0.134294
C28   C     C_R   0.394708 0.925566 0.862241 -0.129060
C29   C     C_R   0.387692 0.871656 0.735301 -0.156177
C30   C     C_R   0.445282 0.931946 0.621381 0.100393
H1    H     H_    0.108048 0.583329 0.702056 0.166948
H2    H     H_    0.512059 0.892234 0.285060 0.168521
H3    H     H_    0.643220 0.638772 0.122841 0.141199
H4    H     H_    0.103121 0.415593 0.707216 0.201820
H5    H     H_    0.327632 0.331596 0.250344 0.210167
H6    H     H_    0.184690 0.198104 0.131135 0.162192
H7    H     H_    0.330861 0.332281 0.755435 0.216369
H8    H     H_    0.643135 0.638743 0.871479 0.147634
H9    H     H_    0.891685 0.413638 0.705240 0.182478
H10   H     H_    0.896633 0.581707 0.703474 0.176674
H11   H     H_    0.114816 0.701870 0.475638 0.180640
H12   H     H_    0.888154 0.379062 0.323677 0.136987
H13   H     H_    0.900132 0.702760 0.476444 0.177617
H14   H     H_    0.099680 0.381034 0.321397 0.086768
H15   H     H_    0.882927 0.295685 0.482365 0.188814
H16   H     H_    0.071499 0.206458 0.881430 0.179536
H17   H     H_    0.178214 0.180153 0.761080 0.216537
H18   H     H_    0.192551 0.252569 0.458554 0.314492
H19   H     H_    0.110727 0.618958 0.319394 0.186825
H20   H     H_    0.897401 0.620366 0.319761 0.182366
H21   H     H_    0.531396 0.115072 0.290114 0.172103
H22   H     H_    0.559967 0.188725 0.782206 0.171303
H23   H     H_    0.472225 0.077729 0.976790 0.142432
H24   H     H_    0.353977 0.877201 0.949624 0.136814
H25   H     H_    0.337600 0.782604 0.727167 0.151381
N1    N     N_R   0.498810 0.498800 0.142780 -0.115655
N2    N     N_R   0.498760 0.498720 0.857170 -0.120090
N3    N     N_3   0.162522 0.175618 0.865493 -0.447848
O1    O     O_R   0.500000 0.316780 0.614690 -0.649112
O2    O     O_R   0.499990 0.316750 0.385360 -0.637157
O3    O     O_R   0.314800 0.499990 0.614670 -0.645779
O4    O     O_R   0.314790 0.499970 0.385330 -0.652737
O5    O     O_R   0.500010 0.683250 0.614640 -0.620435
O6    O     O_R   0.500000 0.683220 0.385310 -0.617465
O7    O     O_R   0.685210 0.500030 0.614670 -0.625549
O8    O     O_R   0.685200 0.500010 0.385330 -0.621421
O9    O     O_3   0.107786 0.269858 0.494439 -0.795903
Zn1   Zn    Zn3+2 0.500010 0.500020 0.653130 0.916209
Zn2   Zn    Zn3+2 0.499990 0.499980 0.346870 0.922843

loop_
_geom_bond_atom_site_label_1
_geom_bond_atom_site_label_2
_ccdc_geom_bond_type
C25   H12   S    
C8    C9    A    
C9    H6    S    
C14   N1    A    
C27   H23   S    
C6    C7    A    
C16   O5    A    
C26   H22   S    
O1    Zn1   S    
C18   O8    A    
C16   O6    A    
C9    C10   A    
C8    H5    S    
C6    H2    S    
C19   C20   S    
C12   C23   S    
C20   H10   S    
C12   C25   S    
C2    C30   A    
O7    Zn1   S    
C19   H1    S    
C15   N1    A    
C12   C20   S    
C21   H19   S    
C19   C24   S    
C3    C5    A    
C2    C26   A    
C7    C30   A    
C13   C14   A    
H16   N3    S    
H17   N3    S    
C11   C13   A    
O3    Zn1   S    
C26   C27   A    
C29   C30   A    
O2    Zn2   S    
C21   H11   S    
C4    O4    A    
C7    C16   S    
C10   N3    S    
C2    C3    A    
C17   H8    S    
C1    O1    A    
C21   C23   S    
C5    C6    A    
C4    C24   S    
C22   C24   S    
C22   O9    S    
C21   C24   S    
O8    Zn2   S    
C13   N2    A    
C10   C11   A    
N2    Zn1   S    
C25   H15   S    
C23   H13   S    
C22   C25   S    
C11   H7    S    
N1    Zn2   S    
C1    O2    A    
C12   C18   S    
C27   C28   A    
C15   C17   A    
C20   H9    S    
C28   H24   S    
O5    Zn1   S    
C28   C29   A    
C23   H20   S    
C8    C14   A    
C29   H25   S    
H18   O9    S    
O6    Zn2   S    
C18   O7    A    
C4    O3    A    
C15   H3    S    
C22   H14   S    
O4    Zn2   S    
C17   N2    A    
C5    H21   S    
C1    C3    S    
C19   H4    S    
