data_mof_unit_29035.cif
_audit_creation_date              2012-12-11T15:55:41-0500
_audit_creation_method            fapswitch 2.2
_symmetry_space_group_name_H-M    P1
_symmetry_Int_Tables_number       1
_space_group_crystal_system       triclinic
_cell_length_a                    8.292849
_cell_length_b                    18.90994
_cell_length_c                    19.156947
_cell_angle_alpha                 100.088393
_cell_angle_beta                  95.13669
_cell_angle_gamma                 91.157544
_cell_volume                      2943.84083942

loop_
_atom_site_label
_atom_site_type_symbol
_atom_type_description
_atom_site_fract_x
_atom_site_fract_y
_atom_site_fract_z
_atom_type_partial_charge
Ba1   Ba    Ba6+2 0.152460 0.535140 0.468980 1.739204
Ba2   Ba    Ba6+2 0.657710 0.464850 0.530960 1.786491
C1    C     C_3   0.338056 0.720343 0.219631 -0.362818
C2    C     C_R   0.074083 0.906538 0.586356 -0.094463
C3    C     C_R   0.181183 0.058509 0.598546 -0.091112
C4    C     C_3   0.890677 0.736606 0.335400 0.347922
C5    C     C_R   0.034277 0.030212 0.559435 0.017678
C6    C     C_R   0.238579 0.128101 0.598280 -0.084076
C7    C     C_R   0.152244 0.173433 0.559503 -0.080777
C8    C     C_R   0.998342 0.149191 0.523180 -0.005706
C9    C     C_R   0.939731 0.077080 0.522953 0.036307
C10   C     C_R   0.220174 0.240149 0.551078 -0.043602
C11   C     C_R   0.135887 0.277195 0.503165 0.137683
C12   C     C_3   0.367106 0.695978 0.291051 0.364839
C13   C     C_R   0.969717 0.266905 0.482698 -0.015726
C14   C     C_R   0.906175 0.196277 0.485097 -0.091951
C15   C     C_R   0.829417 0.931854 0.517075 0.025735
C16   C     C_3   0.908930 0.812804 0.321073 -0.355257
C17   C     C_R   0.776688 0.857910 0.510926 0.001778
C18   C     C_R   0.877313 0.808103 0.540314 -0.039719
C19   C     C_R   0.022821 0.834719 0.579846 -0.032263
C20   C     C_R   0.762790 0.168222 0.444877 0.014308
C21   C     C_R   0.704631 0.098614 0.445442 -0.078149
C22   C     C_R   0.788795 0.051979 0.485077 0.004597
C23   C     C_3   0.514636 0.682693 0.645027 0.307956
C24   C     C_R   0.730030 0.980275 0.485175 0.016261
C25   C     C_R   0.573503 0.955230 0.454628 -0.101910
C26   C     C_R   0.622304 0.834034 0.475902 -0.031419
C27   C     C_R   0.521232 0.884149 0.450284 -0.091466
C28   C     C_3   0.848963 0.346638 0.288405 0.637311
C29   C     C_R   0.572819 0.760781 0.467891 -0.002259
C30   C     C_R   0.678386 0.711676 0.492189 -0.304580
C31   C     C_R   0.828529 0.733572 0.529371 0.028055
C32   C     C_R   0.591616 0.539781 0.303289 -0.198572
C33   C     C_R   0.453460 0.496327 0.276656 -0.021975
C34   C     C_3   0.528958 0.763922 0.667989 -0.391420
C35   C     C_R   0.398056 0.489737 0.204161 -0.143562
C36   C     C_R   0.488233 0.521310 0.157410 0.001072
C37   C     C_R   0.637076 0.557689 0.184541 -0.136340
C38   C     C_R   0.690157 0.565919 0.256920 0.053313
C39   C     C_R   0.462217 0.569752 0.042468 -0.078375
C40   C     C_3   0.974085 0.323812 0.235200 -0.221690
C41   C     C_R   0.416582 0.562036 0.969286 -0.072844
C42   C     C_R   0.340151 0.498004 0.931242 0.066527
C43   C     C_R   0.309307 0.442152 0.968734 -0.036710
C44   C     C_R   0.355634 0.449734 0.041911 -0.056552
C45   C     C_3   0.900750 0.269394 0.681060 0.359077
C46   C     C_R   0.433298 0.513596 0.079839 0.058259
C47   C     C_R   0.143076 0.454190 0.823638 -0.148290
C48   C     C_R   0.096926 0.446127 0.750482 0.016948
C49   C     C_R   0.341707 0.510961 0.734364 0.015675
C50   C     C_R   0.389459 0.518979 0.807630 -0.107918
C51   C     C_R   0.291421 0.489699 0.853109 -0.005945
C52   C     C_3   0.015563 0.621341 0.687946 0.308313
C53   C     C_R   0.198742 0.472371 0.706047 -0.271531
C54   C     C_3   0.041258 0.641642 0.768700 -0.396268
C55   C     C_3   0.444842 0.315228 0.289880 0.316338
C56   C     C_3   0.872966 0.197385 0.703951 -0.293873
C57   C     C_3   0.441707 0.304506 0.208830 -0.504238
C58   C     C_3   0.403513 0.319842 0.723518 0.472281
C59   C     C_3   0.393497 0.294450 0.794251 0.252641
C60   C     C_R   0.980898 0.956674 0.554768 0.010178
Cl1   Cl    Cl    0.588301 0.298475 0.842549 -0.652942
Cl2   Cl    Cl    0.854066 0.438681 0.321548 -0.715216
H1    H     H_    0.298643 0.644179 0.287724 0.081984
H2    H     H_    0.434856 0.260789 0.303499 0.114762
H3    H     H_    0.555835 0.340277 0.320324 0.024568
H4    H     H_    0.207098 0.728797 0.207617 0.150005
H5    H     H_    0.317653 0.288040 0.183682 0.134747
H6    H     H_    0.524838 0.261499 0.189811 0.109211
H7    H     H_    0.481053 0.354445 0.191684 0.100205
H8    H     H_    0.498783 0.688118 0.301257 -0.073831
H9    H     H_    0.378117 0.678718 0.176999 0.066214
H10   H     H_    0.634664 0.662959 0.630900 0.011422
H11   H     H_    0.424748 0.670292 0.597568 0.060947
H12   H     H_    0.916409 0.316610 0.179567 0.018524
H13   H     H_    0.620918 0.778344 0.714459 0.126837
H14   H     H_    0.566301 0.789418 0.623782 0.058581
H15   H     H_    0.410204 0.784919 0.682773 0.118901
H16   H     H_    0.407683 0.771391 0.220770 0.108363
H17   H     H_    0.868610 0.851564 0.366026 0.073175
H18   H     H_    0.829152 0.269158 0.629255 0.064886
H19   H     H_    0.031269 0.276192 0.674844 -0.073853
H20   H     H_    0.742606 0.188601 0.710085 0.172770
H21   H     H_    0.910850 0.153123 0.663586 0.052033
H22   H     H_    0.944786 0.196277 0.755520 0.122945
H23   H     H_    0.070293 0.365451 0.238266 0.141612
H24   H     H_    0.277952 0.326897 0.701429 -0.280138
H25   H     H_    0.471413 0.372339 0.732557 0.070836
H26   H     H_    0.312296 0.329075 0.826959 -0.004125
H27   H     H_    0.965612 0.733011 0.385616 0.084064
H28   H     H_    0.342776 0.238400 0.784739 0.047082
H29   H     H_    0.354780 0.144937 0.627170 0.099827
H30   H     H_    0.100568 0.800390 0.606187 0.102697
H31   H     H_    0.695541 0.198595 0.410185 0.114034
H32   H     H_    0.400006 0.869222 0.425940 0.112284
H33   H     H_    0.639737 0.655669 0.484952 0.065572
H34   H     H_    0.025855 0.271555 0.241352 0.136014
H35   H     H_    0.257281 0.027921 0.629698 0.069569
H36   H     H_    0.189953 0.920554 0.616124 0.062301
H37   H     H_    0.595333 0.081794 0.411277 0.062458
H38   H     H_    0.761211 0.725904 0.341863 -0.077567
H39   H     H_    0.486044 0.989901 0.434581 0.073256
H40   H     H_    0.501722 0.548287 0.828838 0.078799
H41   H     H_    0.439067 0.606810 0.942729 0.060940
H42   H     H_    0.519300 0.620184 0.069924 0.060870
H43   H     H_    0.286769 0.459028 0.184358 0.074308
H44   H     H_    0.251599 0.391873 0.941351 0.080438
H45   H     H_    0.128918 0.601023 0.667117 -0.000083
H46   H     H_    0.333750 0.404815 0.068343 0.065433
H47   H     H_    0.061648 0.434291 0.857505 0.096214
H48   H     H_    0.714766 0.577501 0.149165 0.071384
H49   H     H_    0.161452 0.466739 0.649677 0.056446
H50   H     H_    0.037683 0.825713 0.315192 0.146504
H51   H     H_    0.631982 0.546911 0.359470 0.082665
H52   H     H_    0.833697 0.818283 0.271486 0.109455
H53   H     H_    0.736864 0.338666 0.253220 -0.058687
H54   H     H_    0.143246 0.207556 0.356699 0.303083
H55   H     H_    0.917959 0.578964 0.673792 0.066949
H56   H     H_    0.146315 0.680279 0.784389 0.127097
H57   H     H_    0.064525 0.593444 0.792927 0.066679
H58   H     H_    0.931230 0.666704 0.789608 0.125358
O1    O     O_2   0.118870 0.674530 0.547560 -0.465042
O2    O     O_2   0.765692 0.455270 0.745702 -0.463206
O3    O     O_3   0.850906 0.323838 0.733320 -0.534483
O4    O     O_3   0.870460 0.585330 0.542110 -0.494065
O5    O     O_3   0.436130 0.464210 0.414140 -0.415876
O6    O     O_2   0.629420 0.533310 0.672080 -0.462192
O7    O     O_3   0.464526 0.652012 0.701504 -0.644467
O8    O     O_2   0.561929 0.237107 0.549184 -0.463094
O9    O     O_3   0.483892 0.268879 0.678122 -0.615020
O10   O     O_3   0.354280 0.631750 0.418430 -0.500919
O11   O     O_2   0.237795 0.756552 0.474328 -0.491854
O12   O     O_3   0.311371 0.352812 0.312617 -0.523200
O13   O     O_3   0.972850 0.682835 0.660649 -0.643385
O14   O     O_3   0.312911 0.748352 0.344343 -0.605020
O15   O     O_2   0.180880 0.466650 0.327890 -0.384273
O16   O     O_3   0.939000 0.596010 0.380670 -0.442174
O17   O     O_2   0.025482 0.554206 0.251128 -0.460286
O18   O     O_2   0.248165 0.376693 0.448529 -0.251231
O19   O     O_2   0.408371 0.268076 0.435701 -0.328796
O20   O     O_3   0.139997 0.260153 0.358275 -0.557509
O21   O     O_3   0.943344 0.688270 0.278269 -0.609493
O22   O     O_2   0.691430 0.325420 0.452420 -0.437478
O23   O     O_3   0.939830 0.414660 0.457830 -0.397184
O24   O     O_3   0.456020 0.368240 0.581510 -0.420711
O25   O     O_3   0.838901 0.300765 0.339151 -0.632132
O26   O     O_3   0.374170 0.535780 0.585810 -0.468336
O27   O     O_3   0.871300 0.403980 0.619270 -0.520617
P1    P     P_3+3 0.947550 0.663200 0.567530 0.971705
P2    P     P_3+3 0.354660 0.445020 0.336980 1.128711
P3    P     P_3+3 0.898436 0.600757 0.290555 1.005100
P4    P     P_3+3 0.862750 0.336790 0.432410 1.161166
P5    P     P_3+3 0.897187 0.407606 0.711855 0.983560
P6    P     P_3+3 0.370014 0.725010 0.427305 0.929570
P7    P     P_3+3 0.450559 0.558446 0.675496 0.945102
P8    P     P_3+3 0.428746 0.277550 0.589864 1.045495
S1    S     S_3+6 0.242055 0.296836 0.436094 -0.090625

loop_
_geom_bond_atom_site_label_1
_geom_bond_atom_site_label_2
_ccdc_geom_bond_type
C28   Cl2   S    
C25   C27   A    
Ba2   O22   S    
C20   H31   S    
O17   P3    D    
Ba1   O23   S    
C1    H4    S    
C55   H2    S    
O27   P5    S    
Ba1   O10   S    
C23   O7    S    
C16   H50   S    
C58   H24   S    
O10   P6    S    
C28   O25   S    
O24   P8    S    
C43   C44   A    
C50   C51   A    
Ba2   O23   S    
C5    C9    A    
C24   C25   A    
O8    P8    D    
C32   C38   A    
C15   C24   A    
C26   C27   A    
C33   C35   A    
O20   S1    S    
Ba1   Ba2   S    
O2    P5    D    
C34   H13   S    
C40   H34   S    
C36   C37   A    
C32   C33   A    
C55   C57   S    
C19   H30   S    
C52   O13   S    
Ba2   O26   S    
C13   C14   A    
C2    C60   A    
C9    C22   A    
C16   H17   S    
C30   H33   S    
C38   P3    S    
O9    P8    S    
C23   H10   S    
C41   H41   S    
C45   H18   S    
O22   P4    D    
C59   Cl1   S    
O18   S1    D    
C42   C51   S    
C39   C46   A    
C3    H35   S    
C6    C7    A    
O3    P5    S    
C21   C22   A    
C45   H19   S    
C10   P8    S    
C7    C8    A    
C36   C46   S    
C59   H28   S    
C47   H47   S    
O23   P4    S    
Ba2   O5    S    
Ba2   O27   S    
O1    P1    D    
C52   H55   S    
C39   C41   A    
C33   P2    S    
C55   H3    S    
C1    H9    S    
C1    H16   S    
C56   H22   S    
C58   O9    S    
C45   O3    S    
C44   C46   A    
C4    C16   S    
C52   C54   S    
C49   P7    S    
C42   C43   A    
C39   H42   S    
C49   C50   A    
Ba1   O4    S    
C16   H52   S    
C37   C38   A    
C3    C5    A    
O14   P6    S    
C53   H49   S    
O16   P3    S    
C32   H51   S    
C58   H25   S    
C52   H45   S    
C58   C59   S    
C23   H11   S    
C54   H58   S    
C41   C42   A    
Ba1   O1    S    
C5    C60   A    
C35   C36   A    
C56   H20   S    
C15   C60   A    
C3    C6    A    
O7    P7    S    
C29   C30   A    
O5    P2    S    
Ba1   P1    S    
C18   C19   A    
C17   C26   A    
C1    C12   S    
C57   H5    S    
C18   C31   A    
Ba2   O4    S    
C37   H48   S    
Ba2   P4    S    
C11   C13   A    
C55   O12   S    
C56   H21   S    
C11   S1    S    
Ba1   O15   S    
C59   H26   S    
C50   H40   S    
C14   C20   A    
C23   C34   S    
O11   P6    D    
C12   H8    S    
C26   C29   A    
O15   P2    D    
C6    H29   S    
Ba1   O5    S    
C22   C24   A    
H54   O20   S    
C34   H15   S    
C27   H32   S    
C29   P6    S    
C43   H44   S    
C35   H43   S    
C54   H56   S    
C28   H53   S    
Ba2   O24   S    
O13   P1    S    
C40   H12   S    
C48   C53   A    
C31   P1    S    
C54   H57   S    
C17   C18   A    
C2    H36   S    
C44   H46   S    
C8    C14   A    
C30   C31   A    
C45   C56   S    
C2    C19   A    
O4    P1    S    
C21   H37   S    
C12   O14   S    
C48   P5    S    
C47   C51   A    
O12   P2    S    
C25   H39   S    
C15   C17   A    
C12   H1    S    
Ba1   P2    S    
C49   C53   A    
C4    H38   S    
O25   P4    S    
C7    C10   A    
C13   P4    S    
C8    C9    A    
O6    P7    D    
C57   H6    S    
O19   S1    D    
C10   C11   A    
C47   C48   A    
C20   C21   A    
C28   C40   S    
Ba1   O26   S    
C34   H14   S    
C40   H23   S    
O26   P7    S    
C4    O21   S    
O21   P3    S    
Ba1   O16   S    
C4    H27   S    
C57   H7    S    
Ba2   O6    S    
