data_mof_unit_31670.cif
_audit_creation_date              2012-10-26T20:08:12-0400
_audit_creation_method            fapswitch 2.2
_symmetry_space_group_name_H-M    P1
_symmetry_Int_Tables_number       1
_space_group_crystal_system       triclinic
_cell_length_a                    10.890016
_cell_length_b                    10.836765
_cell_length_c                    9.54835
_cell_angle_alpha                 90.250878
_cell_angle_beta                  90.966569
_cell_angle_gamma                 90.423116
_cell_volume                      1126.62259027

loop_
_atom_site_label
_atom_site_type_symbol
_atom_type_description
_atom_site_fract_x
_atom_site_fract_y
_atom_site_fract_z
_atom_type_partial_charge
C1    C     C_R   0.500752 0.262211 0.499559 0.572482
C2    C     C_R   0.471709 0.065176 0.621668 -0.156943
C3    C     C_R   0.498976 0.871673 0.501131 -0.038245
C4    C     C_R   0.501025 0.128327 0.498870 -0.038245
C5    C     C_R   0.458349 0.399881 0.072908 0.035684
C6    C     C_R   0.541651 0.600118 0.927092 0.035687
C7    C     C_R   0.458484 0.399869 0.924513 0.011819
C8    C     C_R   0.541516 0.600131 0.075487 0.011821
C9    C     C_R   0.262232 0.501367 0.498503 0.544878
C10   C     C_R   0.737768 0.498633 0.501497 0.544877
C11   C     C_R   0.202744 0.695133 0.071397 -0.104541
C12   C     C_R   0.499249 0.737789 0.500440 0.572482
C13   C     C_R   0.797248 0.304873 0.928601 -0.104539
C14   C     C_R   0.153414 0.671593 0.202997 -0.075530
C15   C     C_R   0.846580 0.328411 0.797002 -0.075526
C16   C     C_R   0.112983 0.552197 0.236244 0.056311
C17   C     C_R   0.887017 0.447806 0.763756 0.056310
C18   C     C_R   0.122204 0.456923 0.137436 -0.074060
C19   C     C_R   0.877799 0.543079 0.862564 -0.074063
C20   C     C_R   0.172215 0.480583 0.006748 -0.118172
C21   C     C_R   0.827787 0.519421 0.993252 -0.118173
C22   C     C_R   0.211774 0.599752 0.973127 -0.095830
C23   C     C_R   0.871729 0.497993 0.504052 0.000044
C24   C     C_R   0.788222 0.400253 0.026872 -0.095831
C25   C     C_R   0.931558 0.523954 0.379222 -0.152215
C26   C     C_R   0.068442 0.476046 0.620778 -0.152215
C27   C     C_R   0.128271 0.502007 0.495948 0.000044
C28   C     C_R   0.941471 0.473686 0.626733 -0.032878
C29   C     C_R   0.058529 0.526315 0.373267 -0.032878
C30   C     C_R   0.529678 0.062453 0.376785 0.345373
C31   C     C_R   0.470324 0.937547 0.623216 0.345373
C32   C     C_R   0.528293 0.934823 0.378332 -0.156942
Cu1   Cu    Cu3+1 0.500000 0.500020 0.640660 0.967128
Cu2   Cu    Cu3+1 0.500000 0.499980 0.359340 0.967128
F1    F     F_    0.561083 0.120560 0.256696 -0.639384
F2    F     F_    0.438918 0.879440 0.743304 -0.639384
H1    H     H_    0.250449 0.617976 0.871592 0.162381
H2    H     H_    0.908641 0.635608 0.837918 0.111171
H3    H     H_    0.181660 0.405644 0.932821 0.097253
H4    H     H_    0.818344 0.594359 0.067180 0.097254
H5    H     H_    0.879209 0.544185 0.285380 0.128589
H6    H     H_    0.120791 0.455816 0.714620 0.128589
H7    H     H_    0.551539 0.885594 0.283528 0.157953
H8    H     H_    0.448463 0.114405 0.716472 0.157953
H9    H     H_    0.423298 0.319954 0.126913 0.160993
H10   H     H_    0.576702 0.680046 0.873087 0.160994
H11   H     H_    0.749545 0.382030 0.128406 0.162382
H12   H     H_    0.423527 0.319892 0.868428 0.113585
H13   H     H_    0.576473 0.680108 0.131572 0.113585
H14   H     H_    0.234158 0.787132 0.045676 0.138775
H15   H     H_    0.765828 0.212875 0.954320 0.138775
H16   H     H_    0.146572 0.745873 0.278651 0.107107
H17   H     H_    0.853418 0.254131 0.721346 0.107107
H18   H     H_    0.091366 0.364393 0.162083 0.111170
N1    N     N_R   0.500030 0.500030 0.852070 -0.234568
N2    N     N_R   0.499970 0.499970 0.147930 -0.234568
O1    O     O_R   0.499990 0.319660 0.618740 -0.533924
O2    O     O_R   0.500010 0.680340 0.381260 -0.533923
O3    O     O_R   0.499990 0.319630 0.381170 -0.442981
O4    O     O_R   0.500010 0.680370 0.618830 -0.442980
O5    O     O_R   0.319650 0.500020 0.618780 -0.520327
O6    O     O_R   0.680350 0.499980 0.381220 -0.520328
O7    O     O_R   0.319640 0.500000 0.381210 -0.491934
O8    O     O_R   0.680360 0.500000 0.618790 -0.491934

loop_
_geom_bond_atom_site_label_1
_geom_bond_atom_site_label_2
_ccdc_geom_bond_type
Cu1   N1    S    
C2    C4    A    
Cu2   N2    S    
C22   H1    S    
C19   H2    S    
C1    O1    A    
C10   C23   S    
C27   C29   A    
C5    C7    A    
C5    N2    A    
C26   C28   A    
C7    N1    A    
C6    N1    A    
C1    C4    S    
C12   O2    A    
C7    H12   S    
C8    N2    A    
C1    O3    A    
Cu1   Cu2   S    
C16   C29   S    
C4    C30   A    
Cu1   O1    S    
C11   H14   S    
C9    O7    A    
C23   C28   A    
C3    C31   A    
C17   C28   S    
C26   H6    S    
C26   C27   A    
C10   O6    A    
C21   H4    S    
C30   F1    S    
Cu1   O8    S    
C9    O5    A    
C15   H17   S    
Cu1   O5    S    
Cu2   O7    S    
C17   C19   A    
C32   H7    S    
C20   C22   A    
Cu1   O4    S    
C18   C20   A    
C13   C15   A    
C25   C29   A    
C3    C32   A    
C11   C14   A    
C14   H16   S    
Cu2   O3    S    
C18   H18   S    
C30   C32   A    
Cu2   O6    S    
C23   C25   A    
C9    C27   S    
C11   C22   A    
Cu2   O2    S    
C21   C24   A    
C25   H5    S    
C15   C17   A    
C20   H3    S    
C31   F2    S    
C6    C8    A    
C3    C12   S    
C6    H10   S    
C19   C21   A    
C14   C16   A    
C13   H15   S    
C24   H11   S    
C5    H9    S    
C8    H13   S    
C16   C18   A    
C10   O8    A    
C13   C24   A    
C2    H8    S    
C2    C31   A    
C12   O4    A    
