data_mof_unit_63664.cif
_audit_creation_date              2012-12-10T17:04:24-0500
_audit_creation_method            fapswitch 2.2
_symmetry_space_group_name_H-M    P1
_symmetry_Int_Tables_number       1
_space_group_crystal_system       triclinic
_cell_length_a                    15.120433
_cell_length_b                    15.113709
_cell_length_c                    16.022138
_cell_angle_alpha                 89.592227
_cell_angle_beta                  90.104496
_cell_angle_gamma                 90.162303
_cell_volume                      3661.35891897

loop_
_atom_site_label
_atom_site_type_symbol
_atom_type_description
_atom_site_fract_x
_atom_site_fract_y
_atom_site_fract_z
_atom_type_partial_charge
C1    C     C_R   0.259786 0.485315 0.488539 0.503711
C2    C     C_R   0.979674 0.458222 0.497530 0.011988
C3    C     C_R   0.019228 0.542123 0.511457 0.053270
C4    C     C_R   0.739779 0.514931 0.512238 0.502908
C5    C     C_R   0.111392 0.549851 0.507739 -0.089142
C6    C     C_R   0.123705 0.394576 0.472106 -0.122970
C7    C     C_R   0.032281 0.385216 0.477654 -0.126711
C8    C     C_R   0.522647 0.163603 0.513949 0.026891
C9    C     C_R   0.479553 0.835425 0.481403 0.035814
C10   C     C_R   0.389300 0.965805 0.461590 -0.124662
C11   C     C_R   0.398199 0.874195 0.461250 -0.113962
C12   C     C_1   0.477812 0.519759 0.886775 -0.034481
C13   C     C_R   0.552138 0.887962 0.503042 -0.115226
C14   C     C_R   0.542888 0.979793 0.506696 0.047098
C15   C     C_R   0.461051 0.019017 0.484825 0.043076
C16   C     C_R   0.513448 0.259784 0.512882 0.503835
C17   C     C_R   0.451977 0.110738 0.487463 -0.117514
C18   C     C_R   0.602924 0.124423 0.537818 -0.124276
C19   C     C_R   0.613340 0.032968 0.533352 -0.128997
C20   C     C_R   0.486418 0.739803 0.486279 0.500918
C21   C     C_R   0.512816 0.488580 0.277270 0.505664
C22   C     C_R   0.487240 0.511349 0.722738 0.506631
C23   C     C_1   0.522447 0.479930 0.113256 -0.036380
C24   C     C_1   0.518114 0.483821 0.188177 0.023864
C25   C     C_2   0.527313 0.475566 0.023722 -0.116299
C26   C     C_2   0.472965 0.524092 0.976311 -0.115868
C27   C     C_1   0.482079 0.515950 0.811847 0.025923
C28   C     C_R   0.163536 0.476540 0.488166 0.011704
C29   C     C_R   0.835300 0.522757 0.516727 -0.004641
C30   C     C_R   0.965320 0.615987 0.527920 0.231182
C31   C     C_R   0.873716 0.605902 0.529055 -0.080237
C32   C     C_R   0.887926 0.448869 0.502114 -0.132907
Cl1   Cl    Cl    0.008862 0.722682 0.545166 -0.611882
H1    H     H_    0.424410 0.567454 0.004503 0.142457
H2    H     H_    0.002698 0.321024 0.466236 0.118303
H3    H     H_    0.832174 0.663063 0.539620 0.151916
H4    H     H_    0.857123 0.385094 0.491024 0.117103
H5    H     H_    0.389674 0.140997 0.469749 0.123563
H6    H     H_    0.658246 0.164739 0.557893 0.136163
H7    H     H_    0.326103 0.994880 0.445260 0.120538
H8    H     H_    0.676157 0.003881 0.550922 0.122321
H9    H     H_    0.341712 0.833391 0.445226 0.132451
H10   H     H_    0.614336 0.857087 0.520129 0.113659
H11   H     H_    0.575871 0.432202 0.995537 0.142373
H12   H     H_    0.143366 0.612782 0.519231 0.188530
H13   H     H_    0.163478 0.337274 0.457422 0.136094
O1    O     O_3   0.500000 0.500000 0.500000 -0.444688
O2    O     O_R   0.461330 0.435620 0.316920 -0.534578
O3    O     O_R   0.434750 0.558200 0.677930 -0.530196
O4    O     O_R   0.559650 0.545720 0.316320 -0.531974
O5    O     O_R   0.544270 0.460460 0.688830 -0.534864
O6    O     O_R   0.559890 0.307360 0.561630 -0.542317
O7    O     O_R   0.434610 0.697530 0.534530 -0.533662
O8    O     O_R   0.307380 0.433810 0.444990 -0.542330
O9    O     O_R   0.698130 0.561300 0.458860 -0.535878
O10   O     O_R   0.296270 0.542620 0.535390 -0.538279
O11   O     O_R   0.698230 0.462280 0.560770 -0.536783
O12   O     O_R   0.461480 0.296280 0.460320 -0.544587
O13   O     O_R   0.544020 0.698820 0.443520 -0.537807
Zn1   Zn    Zn3+2 0.574310 0.433680 0.576480 0.946948
Zn2   Zn    Zn3+2 0.433700 0.417860 0.431740 0.944346
Zn3   Zn    Zn3+2 0.574160 0.575160 0.430870 0.952996
Zn4   Zn    Zn3+2 0.417840 0.573310 0.560900 0.959856

loop_
_geom_bond_atom_site_label_1
_geom_bond_atom_site_label_2
_ccdc_geom_bond_type
C4    O11   A    
O1    Zn2   S    
C1    C28   S    
C23   C24   T    
C6    C7    A    
O3    Zn4   S    
O8    Zn2   S    
C3    C30   A    
C5    C28   A    
C9    C11   A    
C9    C20   S    
C4    C29   S    
C30   Cl1   S    
C1    O8    A    
C21   O2    A    
O1    Zn3   S    
C2    C3    A    
O1    Zn1   S    
O10   Zn4   S    
C31   H3    S    
C29   C31   A    
C16   O12   A    
C13   C14   A    
C20   O13   A    
O7    Zn4   S    
O2    Zn2   S    
C30   C31   A    
C7    H2    S    
O6    Zn1   S    
O12   Zn2   S    
C22   O3    A    
C25   H11   S    
C10   H7    S    
C21   O4    A    
C1    O10   A    
C29   C32   A    
C10   C15   A    
C23   C25   S    
C4    O9    A    
O1    Zn4   S    
C22   C27   S    
O4    Zn3   S    
C8    C17   A    
C8    C18   A    
C10   C11   A    
C12   C27   T    
O9    Zn3   S    
C19   H8    S    
C13   H10   S    
C17   H5    S    
C11   H9    S    
C2    C32   A    
C18   C19   A    
C8    C16   S    
C21   C24   S    
C15   C17   A    
C18   H6    S    
C9    C13   A    
C14   C15   A    
C22   O5    A    
O11   Zn1   S    
O5    Zn1   S    
C6    H13   S    
C2    C7    A    
C3    C5    A    
C25   C26   D    
C32   H4    S    
C5    H12   S    
C14   C19   A    
C26   H1    S    
C6    C28   A    
C16   O6    A    
C12   C26   S    
C20   O7    A    
O13   Zn3   S    
