data_mof_unit_45270.cif
_audit_creation_date              2012-12-11T14:33:05-0500
_audit_creation_method            fapswitch 2.2
_symmetry_space_group_name_H-M    P1
_symmetry_Int_Tables_number       1
_space_group_crystal_system       triclinic
_cell_length_a                    7.000853
_cell_length_b                    13.836176
_cell_length_c                    17.769247
_cell_angle_alpha                 111.859356
_cell_angle_beta                  95.740106
_cell_angle_gamma                 89.876693
_cell_volume                      1588.30640845

loop_
_atom_site_label
_atom_site_type_symbol
_atom_type_description
_atom_site_fract_x
_atom_site_fract_y
_atom_site_fract_z
_atom_type_partial_charge
O1    O     O_R   0.484560 0.544530 0.414330 -0.537201
O2    O     O_R   0.197040 0.638810 0.585080 -0.537545
O3    O     O_R   0.026800 0.455470 0.585670 -0.539867
C1    C     C_R   0.373655 0.678833 0.609593 0.680539
O4    O     O_R   0.155000 0.556150 0.414940 -0.542397
O5    O     O_R   0.984450 0.372220 0.414320 -0.536455
C2    C     C_R   0.317443 0.565513 0.386815 0.756015
O6    O     O_R   0.526900 0.627780 0.585680 -0.541532
O7    O     O_3   0.339170 0.439750 0.499990 -0.372895
V1    V     V_3+5 0.064350 0.511180 0.500000 1.371019
O8    O     O_R   0.654880 0.361190 0.414920 -0.543040
C3    C     C_R   0.817460 0.324901 0.386547 0.754461
O9    O     O_R   0.696930 0.443850 0.585060 -0.535387
C4    C     C_R   0.873152 0.428259 0.609815 0.712262
V2    V     V_3+5 0.564340 0.488820 0.500000 1.372847
O10   O     O_3   0.839390 0.560250 0.500010 -0.380322
C5    C     C_R   0.038899 0.844617 0.812614 -0.065552
C6    C     C_R   0.906288 0.381919 0.673268 -0.118678
C7    C     C_R   0.906165 0.800620 0.671230 -0.114942
C8    C     C_R   0.959562 0.770895 0.737602 -0.150498
C9    C     C_R   0.062077 0.947850 0.820068 -0.170510
C10   C     C_R   0.011303 0.979176 0.753011 0.079943
C11   C     C_R   0.929275 0.904667 0.678580 0.102589
C12   C     C_R   0.034371 0.083674 0.759473 0.074709
C13   C     C_R   0.958267 0.118151 0.696166 0.095460
C14   C     C_R   0.878348 0.040857 0.622360 -0.190275
C15   C     C_R   0.867403 0.935670 0.613443 -0.216303
C16   C     C_R   0.145694 0.153434 0.825976 -0.179698
C17   C     C_R   0.161950 0.254982 0.835547 -0.222481
C18   C     C_R   0.047816 0.298915 0.789121 0.026446
C19   C     C_R   0.965036 0.228883 0.711262 0.061234
C20   C     C_R   0.027936 0.409869 0.814359 0.450118
C21   C     C_R   0.963109 0.448055 0.753891 -0.198502
C22   C     C_R   0.899456 0.272717 0.652832 -0.233234
H1    H     H_    0.803508 0.878629 0.556051 0.120013
H2    H     H_    0.849441 0.223719 0.590786 0.108175
H3    H     H_    0.957016 0.531600 0.770330 0.114268
H4    H     H_    0.275618 0.296544 0.878260 0.088516
H5    H     H_    0.843209 0.742697 0.614434 0.149140
H6    H     H_    0.935441 0.690666 0.730799 0.093541
H7    H     H_    0.108856 0.003059 0.880516 0.110377
H8    H     H_    0.820924 0.060054 0.571228 0.124251
H9    H     H_    0.112604 0.223753 0.307524 0.154761
H10   H     H_    0.836436 0.034329 0.195549 0.148371
C23   C     C_2   0.134033 0.037117 0.183373 -0.344499
C24   C     C_2   0.972973 0.077729 0.217355 -0.128200
H11   H     H_    0.677576 0.178565 0.295538 0.125957
C25   C     C_2   0.814279 0.221623 0.318676 -0.351370
C26   C     C_2   0.975647 0.180801 0.285050 -0.129922
H12   H     H_    0.270516 0.080447 0.206122 0.123168
C27   C     C_R   0.410522 0.783345 0.677391 -0.046965
C28   C     C_R   0.547731 0.468256 0.835338 -0.115578
C29   C     C_R   0.542022 0.877148 0.817434 -0.094443
C30   C     C_R   0.473086 0.785028 0.754821 -0.168381
C31   C     C_R   0.417079 0.878470 0.664078 -0.183467
C32   C     C_R   0.486594 0.975356 0.728297 0.032534
C33   C     C_R   0.553190 0.971572 0.805091 0.028941
C34   C     C_R   0.492297 0.075429 0.719630 0.074852
C35   C     C_R   0.569928 0.168795 0.786535 0.022518
C36   C     C_R   0.654467 0.154907 0.856672 -0.298466
C37   C     C_R   0.635090 0.061085 0.868789 0.368850
C38   C     C_R   0.418057 0.085294 0.646692 -0.158397
C39   C     C_R   0.406761 0.181538 0.639961 -0.183340
C40   C     C_R   0.463029 0.273530 0.706007 0.089295
C41   C     C_R   0.551044 0.271886 0.781451 0.025086
C42   C     C_R   0.423791 0.367212 0.695924 -0.150867
C43   C     C_R   0.461143 0.461954 0.759538 -0.225968
C44   C     C_R   0.597461 0.373393 0.848025 0.323352
H13   H     H_    0.422851 0.532065 0.748929 0.121020
H14   H     H_    0.343170 0.184290 0.582601 0.114568
H15   H     H_    0.590845 0.873466 0.875862 0.190399
H16   H     H_    0.474173 0.713594 0.766475 0.093683
H17   H     H_    0.373320 0.873557 0.602868 0.090722
H18   H     H_    0.740898 0.214563 0.903758 0.207533
H19   H     H_    0.361638 0.019670 0.593652 0.117831
H20   H     H_    0.356832 0.367255 0.638236 0.151096
H21   H     H_    0.613649 0.591664 0.309651 0.155528
C45   C     C_2   0.314686 0.604789 0.319739 -0.353891
C46   C     C_2   0.477105 0.614001 0.287289 -0.126977
H22   H     H_    0.772126 0.635097 0.207633 0.123194
C47   C     C_2   0.636240 0.658381 0.185560 -0.348757
C48   C     C_2   0.475847 0.653495 0.220651 -0.131619
H23   H     H_    0.178323 0.626266 0.296504 0.126001
O11   O     O_R   0.421600 0.630430 0.917010 -0.534794
O12   O     O_R   0.793840 0.702190 0.087630 -0.552982
O13   O     O_R   0.964010 0.886170 0.088190 -0.536741
C49   C     C_R   0.632038 0.694778 0.116884 0.724700
O14   O     O_R   0.751460 0.619510 0.917500 -0.504768
O15   O     O_R   0.921330 0.802900 0.916840 -0.531045
C50   C     C_R   0.576989 0.576828 0.898653 0.726674
O16   O     O_R   0.464290 0.713700 0.088350 -0.548599
O17   O     O_3   0.609200 0.818520 0.002630 -0.381571
V3    V     V_3+5 0.884140 0.747190 0.002530 1.440510
O18   O     O_R   0.251150 0.814630 0.917340 -0.549145
C51   C     C_R   0.073990 0.816732 0.885659 0.711137
O19   O     O_R   0.293530 0.897310 0.087470 -0.547639
C52   C     C_R   0.130911 0.933652 0.115750 0.761559
V4    V     V_3+5 0.384070 0.769710 0.002370 1.375695
O20   O     O_3   0.109180 0.698190 0.002460 -0.349492
O21   O     O_3   0.045263 0.485307 0.895090 -0.525477
C53   C     C_3   0.123468 0.451520 0.957237 0.160602
H24   H     H_    0.277442 0.449947 0.954549 0.064185
H25   H     H_    0.052942 0.378531 0.953646 0.165049
C54   C     C_3   0.097857 0.523636 0.043007 -0.651340
H26   H     H_    0.951441 0.551184 0.043886 0.259439
H27   H     H_    0.120677 0.480844 0.084928 0.133861
H28   H     H_    0.206986 0.587424 0.066355 0.216738
O22   O     O_3   0.714204 0.053399 0.941111 -0.561599
C55   C     C_3   0.631754 0.124579 0.008981 0.035111
H29   H     H_    0.528509 0.178344 0.994535 0.110205
H30   H     H_    0.749680 0.172515 0.053658 0.152802
C56   C     C_3   0.525420 0.065267 0.049566 -0.665074
H31   H     H_    0.626731 0.017274 0.071312 0.234187
H32   H     H_    0.460661 0.121040 0.102648 0.154614
H33   H     H_    0.409489 0.014509 0.005435 0.217394
O23   O     O_3   0.716885 0.381161 0.917799 -0.565543
C57   C     C_3   0.614177 0.401381 0.986504 0.064292
H34   H     H_    0.493018 0.344731 0.972371 0.101647
H35   H     H_    0.567723 0.482953 0.008762 0.111876
C58   C     C_3   0.736492 0.386123 0.057265 -0.772820
H36   H     H_    0.798946 0.461107 0.102054 0.203511
H37   H     H_    0.644643 0.355508 0.091497 0.180999
H38   H     H_    0.852320 0.330969 0.035603 0.221530
H39   H     H_    0.340512 0.679057 0.200319 0.147759
H40   H     H_    0.237466 0.130062 0.868174 0.115789

loop_
_geom_bond_atom_site_label_1
_geom_bond_atom_site_label_2
_ccdc_geom_bond_type
C34   C38   A    
C31   C32   A    
C13   C19   A    
C53   H24   S    
C49   O16   A    
C4    C6    S    
C28   C50   S    
C7    C8    A    
O21   C53   S    
C1    O6    A    
C56   H32   S    
C47   C48   D    
O17   V4    S    
C23   C24   D    
C32   C33   A    
C24   C26   S    
C14   C15   A    
C38   C39   A    
C9    C10   A    
C16   C17   A    
C57   H35   S    
O5    C3    A    
C18   C19   A    
C8    H6    S    
O18   V4    S    
V2    O10   S    
C5    C8    A    
O22   C55   S    
C37   O22   S    
O13   C52   A    
C54   H26   S    
O12   V3    S    
C45   H23   S    
H10   C24   S    
O19   V4    S    
C17   H4    S    
O1    V2    S    
C11   C15   A    
O7    V1    S    
V3    O20   S    
C27   C31   A    
C28   C44   A    
C58   H38   S    
C3    C25   S    
O12   C49   A    
C42   C43   A    
C35   C36   A    
C53   H25   S    
O9    C4    A    
O15   V3    S    
O11   C50   A    
C48   H39   S    
C56   H31   S    
C58   H37   S    
H21   C46   S    
C1    C27   S    
C12   C13   A    
C55   C56   S    
O4    C2    A    
C29   C33   A    
C45   C46   D    
H9    C26   S    
C15   H1    S    
C34   C35   A    
C29   C30   A    
C21   H3    S    
C20   O21   S    
C36   C37   A    
C43   H13   S    
C40   C42   A    
O15   C51   A    
O2    C1    A    
C17   C18   A    
O13   V3    S    
H11   C25   S    
C39   H14   S    
C41   C44   A    
C42   H20   S    
O19   C52   A    
C58   H36   S    
C19   C22   A    
C6    C22   A    
C47   C49   S    
C28   C43   A    
C7    H5    S    
C44   O23   S    
C2    C45   S    
C9    H7    S    
C25   C26   D    
O14   C50   A    
C53   C54   S    
O8    V2    S    
O9    V2    S    
C10   C12   A    
C38   H19   S    
C57   C58   S    
C29   H15   S    
C16   H40   S    
C14   H8    S    
O14   V3    S    
O1    C2    A    
C5    C51   S    
C12   C16   A    
H22   C47   S    
O5    V1    S    
C46   C48   S    
O8    C3    A    
C33   C37   A    
C54   H27   S    
O3    C4    A    
O6    V2    S    
C27   C30   A    
O11   V4    S    
C20   C21   A    
C55   H30   S    
C13   C14   A    
O4    V1    S    
O3    V1    S    
V1    O10   S    
C57   H34   S    
C35   C41   A    
C18   C20   A    
C23   H12   S    
C40   C41   A    
C36   H18   S    
O17   V3    S    
C32   C34   A    
O23   C57   S    
C22   H2    S    
C54   H28   S    
O16   V4    S    
O7    V2    S    
O18   C51   A    
C6    C21   A    
C5    C9    A    
C39   C40   A    
C31   H17   S    
C7    C11   A    
C30   H16   S    
V4    O20   S    
C10   C11   A    
C23   C52   S    
C55   H29   S    
C56   H33   S    
O2    V1    S    
