data_mof_unit_62847.cif
_audit_creation_date              2012-10-26T18:46:10-0400
_audit_creation_method            fapswitch 2.2
_symmetry_space_group_name_H-M    P1
_symmetry_Int_Tables_number       1
_space_group_crystal_system       triclinic
_cell_length_a                    13.900158
_cell_length_b                    16.446045
_cell_length_c                    17.745727
_cell_angle_alpha                 89.796144
_cell_angle_beta                  90.162326
_cell_angle_gamma                 84.868105
_cell_volume                      4040.41229601

loop_
_atom_site_label
_atom_site_type_symbol
_atom_type_description
_atom_site_fract_x
_atom_site_fract_y
_atom_site_fract_z
_atom_type_partial_charge
C1    C     C_R   0.500105 0.499811 0.644758 0.549582
C2    C     C_R   0.560468 0.824142 0.548703 -0.136031
C3    C     C_R   0.440600 0.261596 0.452151 0.048416
C4    C     C_R   0.559400 0.738404 0.547849 0.048416
C5    C     C_R   0.559456 0.252263 0.547920 0.049039
C6    C     C_R   0.440544 0.747737 0.452080 0.049039
C7    C     C_R   0.560514 0.166345 0.548797 -0.134220
C8    C     C_R   0.439486 0.833655 0.451203 -0.134220
C9    C     C_R   0.500021 0.126926 0.500046 0.024804
C10   C     C_R   0.499979 0.873074 0.499954 0.024804
C11   C     C_1   0.500012 0.037294 0.500019 -0.018047
C12   C     C_R   0.499895 0.500189 0.355242 0.549582
C13   C     C_1   0.499988 0.962706 0.499980 -0.018047
C14   C     C_R   0.683371 0.486927 0.500039 0.554437
C15   C     C_R   0.316629 0.513073 0.499961 0.554436
C16   C     C_1   0.213592 0.521033 0.499885 -0.015644
C17   C     C_1   0.786408 0.478967 0.500115 -0.015643
C18   C     C_2   0.023322 0.533700 0.499734 -0.117335
C19   C     C_2   0.976678 0.466300 0.500266 -0.117335
C20   C     C_1   0.873157 0.472633 0.500186 -0.046729
C21   C     C_1   0.126843 0.527367 0.499814 -0.046729
C22   C     C_R   0.500443 0.428017 0.153725 -0.121800
C23   C     C_R   0.499003 0.575963 0.154027 0.002220
C24   C     C_R   0.499557 0.571983 0.846275 -0.121800
C25   C     C_R   0.500425 0.427320 0.232216 -0.133953
C26   C     C_R   0.499575 0.572680 0.767783 -0.133953
C27   C     C_R   0.499771 0.500773 0.272379 -0.003004
C28   C     C_R   0.500229 0.499227 0.727621 -0.003004
C29   C     C_R   0.499002 0.574996 0.232762 -0.132073
C30   C     C_R   0.500998 0.425004 0.767238 -0.132073
C31   C     C_1   0.498197 0.653300 0.115035 0.193240
C32   C     C_1   0.501803 0.346700 0.884965 0.193240
C33   C     C_R   0.500997 0.424036 0.845973 0.002220
C34   C     C_R   0.499771 0.501938 0.114480 0.024213
C35   C     C_R   0.500229 0.498062 0.885520 0.024213
C36   C     C_1   0.499926 0.500528 0.033777 -0.003164
C37   C     C_1   0.500074 0.499472 0.966223 -0.003164
C38   C     C_R   0.439532 0.175858 0.451297 -0.136031
Cu1   Cu    Cu3+1 0.500000 0.419580 0.500020 0.944611
Cu2   Cu    Cu3+1 0.500000 0.580420 0.499980 0.944612
H1    H     H_    0.015931 0.406111 0.500764 0.137503
H2    H     H_    0.608296 0.851945 0.587243 0.102158
H3    H     H_    0.393582 0.298394 0.414236 0.121985
H4    H     H_    0.606418 0.701606 0.585764 0.121985
H5    H     H_    0.606471 0.281689 0.585817 0.122290
H6    H     H_    0.393529 0.718311 0.414183 0.122290
H7    H     H_    0.608334 0.131018 0.587345 0.103738
H8    H     H_    0.391666 0.868982 0.412655 0.103738
H9    H     H_    0.984069 0.593889 0.499236 0.137503
H10   H     H_    0.501008 0.370786 0.123554 0.133660
H11   H     H_    0.498992 0.629214 0.876445 0.133659
H12   H     H_    0.500969 0.369309 0.261374 0.132765
H13   H     H_    0.499031 0.630691 0.738626 0.132765
H14   H     H_    0.498386 0.632219 0.263003 0.131572
H15   H     H_    0.501614 0.367781 0.736997 0.131572
H16   H     H_    0.391704 0.148055 0.412757 0.102158
N1    N     N_R   0.500030 0.298780 0.500030 -0.217783
N2    N     N_R   0.499970 0.701220 0.499970 -0.217783
N3    N     N_1   0.497538 0.715229 0.083776 -0.294812
N4    N     N_1   0.502462 0.284771 0.916224 -0.294812
O1    O     O_R   0.500010 0.432070 0.608760 -0.505447
O2    O     O_R   0.499990 0.567930 0.391240 -0.505447
O3    O     O_R   0.500000 0.567880 0.608730 -0.505018
O4    O     O_R   0.500000 0.432120 0.391270 -0.505018
O5    O     O_R   0.637850 0.422490 0.500000 -0.495417
O6    O     O_R   0.362150 0.577510 0.500000 -0.495417
O7    O     O_R   0.637840 0.558310 0.499970 -0.495754
O8    O     O_R   0.362160 0.441690 0.500030 -0.495754

loop_
_geom_bond_atom_site_label_1
_geom_bond_atom_site_label_2
_ccdc_geom_bond_type
C1    C28   S    
C2    C4    A    
C14   O7    A    
C8    H8    S    
C16   C21   T    
C25   C27   A    
C18   C21   S    
Cu1   O5    S    
Cu1   O8    S    
C6    N2    A    
C26   C28   A    
C19   C20   S    
C12   O2    A    
C5    N1    A    
C22   H10   S    
C23   C34   A    
C32   C33   S    
C24   H11   S    
C28   C30   A    
C25   H12   S    
Cu2   O2    S    
Cu2   O7    S    
Cu2   O6    S    
Cu1   O4    S    
C9    C11   S    
C14   C17   S    
C3    H3    S    
Cu2   O3    S    
C4    H4    S    
C2    H2    S    
Cu1   O1    S    
C15   O8    A    
C23   C29   A    
C36   C37   T    
C33   C35   A    
C14   O5    A    
C24   C26   A    
C34   C36   S    
C22   C34   A    
C23   C31   S    
C24   C35   A    
Cu2   N2    S    
C29   H14   S    
C32   N4    T    
C12   C27   S    
C4    N2    A    
C15   C16   S    
Cu1   N1    S    
C26   H13   S    
C1    O3    A    
C11   C13   T    
C17   C20   T    
C38   H16   S    
C27   C29   A    
C3    C38   A    
C8    C10   A    
C18   C19   D    
C30   H15   S    
C31   N3    T    
Cu1   Cu2   S    
C7    C9    A    
C12   O4    A    
C5    C7    A    
C9    C38   A    
C6    C8    A    
C6    H6    S    
C30   C33   A    
C35   C37   S    
C15   O6    A    
C5    H5    S    
C22   C25   A    
C2    C10   A    
C19   H1    S    
C18   H9    S    
C1    O1    A    
C3    N1    A    
C10   C13   S    
C7    H7    S    
