data_mof_unit_35506.cif
_audit_creation_date              2012-12-11T14:17:45-0500
_audit_creation_method            fapswitch 2.2
_symmetry_space_group_name_H-M    P1
_symmetry_Int_Tables_number       1
_space_group_crystal_system       triclinic
_cell_length_a                    6.942742
_cell_length_b                    13.638705
_cell_length_c                    20.445614
_cell_angle_alpha                 102.18219
_cell_angle_beta                  89.641165
_cell_angle_gamma                 90.621576
_cell_volume                      1892.27275669

loop_
_atom_site_label
_atom_site_type_symbol
_atom_type_description
_atom_site_fract_x
_atom_site_fract_y
_atom_site_fract_z
_atom_type_partial_charge
O1    O     O_R   0.506860 0.599390 0.449240 -0.542886
O2    O     O_R   0.180220 0.594600 0.586780 -0.519314
O3    O     O_R   0.004500 0.400610 0.550760 -0.537559
C1    C     C_R   0.347720 0.617794 0.612972 0.810246
O4    O     O_R   0.177490 0.611290 0.451970 -0.541745
O5    O     O_R   0.001750 0.417420 0.414990 -0.546434
C2    C     C_R   0.347140 0.637710 0.435036 0.685075
O6    O     O_R   0.509610 0.582580 0.585010 -0.520185
O7    O     O_3   0.337420 0.436370 0.488020 -0.382250
V1    V     V_3+5 0.064680 0.511800 0.502220 1.497002
O8    O     O_R   0.671710 0.405400 0.413220 -0.552604
C3    C     C_R   0.840116 0.384095 0.386540 0.718728
O9    O     O_R   0.674440 0.388710 0.548030 -0.532702
C4    C     C_R   0.842343 0.363376 0.565790 0.751848
V2    V     V_3+5 0.564010 0.488200 0.497780 1.476541
O10   O     O_3   0.841140 0.563630 0.511980 -0.352015
C5    C     C_R   0.906184 0.116474 0.614571 -0.146867
H1    H     H_    0.925345 0.169501 0.523379 0.112607
H2    H     H_    0.933573 0.039587 0.589475 0.130837
C6    C     C_R   0.850512 0.288127 0.607103 -0.061721
C7    C     C_R   0.886804 0.315636 0.929332 -0.172863
C8    C     C_R   0.910112 0.390854 0.893434 -0.110539
C9    C     C_R   0.905236 0.367579 0.823768 -0.108071
C10   C     C_R   0.866773 0.268873 0.788231 0.087135
C11   C     C_R   0.862131 0.190942 0.824891 0.062904
C12   C     C_R   0.854696 0.243881 0.716972 0.041776
C13   C     C_R   0.882113 0.142183 0.684125 0.115641
C14   C     C_R   0.884272 0.066754 0.720890 -0.177709
C15   C     C_R   0.865645 0.090293 0.790057 -0.186814
C16   C     C_R   0.815732 0.314699 0.676619 0.065068
C17   C     C_R   0.899676 0.189978 0.576843 -0.209592
C18   C     C_R   0.866298 0.215629 0.895727 -0.073830
H3    H     H_    0.894213 0.334805 0.983473 0.103644
H4    H     H_    0.937579 0.467307 0.919664 0.125821
H5    H     H_    0.864753 0.028971 0.816154 0.122894
C19   C     C_2   0.005634 0.288680 0.284658 -0.135655
C20   C     C_2   0.842698 0.315777 0.319785 -0.305225
H6    H     H_    0.142998 0.317073 0.306266 0.131590
C21   C     C_2   0.013308 0.220635 0.217041 -0.132321
C22   C     C_2   0.857925 0.183201 0.180399 -0.307384
H7    H     H_    0.156153 0.201471 0.196680 0.132180
H8    H     H_    0.713712 0.201507 0.199139 0.125477
C23   C     C_2   0.207788 0.800476 0.780927 -0.147336
C24   C     C_2   0.365932 0.819013 0.819081 -0.330583
H9    H     H_    0.073343 0.834419 0.801154 0.159487
H10   H     H_    0.504314 0.789476 0.800243 0.153827
C25   C     C_2   0.202147 0.739247 0.711233 0.183887
C26   C     C_2   0.353784 0.684740 0.680465 -0.300270
H11   H     H_    0.489740 0.686146 0.706159 0.157642
C27   C     C_R   0.408620 0.886894 0.386847 -0.159708
H12   H     H_    0.405714 0.836602 0.479451 0.116146
H13   H     H_    0.436139 0.011460 0.303721 0.121863
H14   H     H_    0.433840 0.964351 0.411657 0.115266
C28   C     C_R   0.359407 0.714401 0.394864 -0.028850
C29   C     C_R   0.321795 0.685999 0.071854 -0.164307
C30   C     C_R   0.304383 0.610351 0.107616 -0.117993
C31   C     C_R   0.317223 0.632515 0.177182 -0.157988
C32   C     C_R   0.348385 0.732205 0.213125 0.077790
C33   C     C_R   0.367297 0.809429 0.175982 0.066858
C34   C     C_R   0.361191 0.757853 0.284523 0.072872
C35   C     C_R   0.393680 0.859679 0.316870 0.140442
C36   C     C_R   0.411603 0.933739 0.279324 -0.201502
C37   C     C_R   0.398444 0.909251 0.210082 -0.195045
C38   C     C_R   0.343443 0.686123 0.325218 -0.216698
C39   C     C_R   0.392377 0.814559 0.425557 -0.164387
C40   C     C_R   0.353492 0.785201 0.105229 -0.075524
H15   H     H_    0.318756 0.607578 0.304638 0.092559
H16   H     H_    0.310142 0.667170 0.017803 0.108626
H17   H     H_    0.301914 0.569719 0.201116 0.107063
H18   H     H_    0.280049 0.533687 0.081197 0.119752
H19   H     H_    0.413227 0.969638 0.183442 0.117509
O11   O     O_R   0.203230 0.917310 0.915020 -0.539636
O12   O     O_R   0.535500 0.888690 0.048040 -0.540818
O13   O     O_R   0.711080 0.082610 0.085000 -0.546001
C41   C     C_R   0.365900 0.862475 0.065166 0.688274
O14   O     O_R   0.532630 0.905370 0.913230 -0.544582
O15   O     O_R   0.708190 0.099410 0.949230 -0.539102
C42   C     C_R   0.365130 0.884757 0.886435 0.761206
O16   O     O_R   0.206120 0.900510 0.050790 -0.538857
O17   O     O_3   0.375360 0.063570 0.011990 -0.374939
V3    V     V_3+5 0.648170 0.988200 0.997780 1.428998
O18   O     O_R   0.038240 0.111390 0.951940 -0.541504
C43   C     C_R   0.870400 0.137980 0.935334 0.687959
O19   O     O_R   0.041120 0.094710 0.086750 -0.543107
C44   C     C_R   0.872165 0.115701 0.113535 0.740587
V4    V     V_3+5 0.148810 0.011930 0.002180 1.427204
O20   O     O_3   0.871750 0.936430 0.988010 -0.370438
H20   H     H_    0.703946 0.287853 0.299756 0.126106
I1    I     I_    0.929494 0.750067 0.665359 -0.450981
H21   H     H_    0.898480 0.988848 0.695876 0.157831
I2    I     I_    0.652792 0.448936 0.712681 -0.435601
H22   H     H_    0.943828 0.426612 0.798287 0.155281

loop_
_geom_bond_atom_site_label_1
_geom_bond_atom_site_label_2
_ccdc_geom_bond_type
C29   C30   A    
O12   C41   A    
C20   H20   S    
C1    O6    A    
C29   H16   S    
C21   H7    S    
C28   C39   A    
C6    C16   A    
C12   C13   A    
C19   C20   D    
O14   C42   A    
C33   C40   A    
O5    C3    A    
C7    H3    S    
O15   C43   A    
C32   C34   A    
V2    O10   S    
C30   C31   A    
H12   C39   S    
C3    C20   S    
O11   C42   A    
O8    V2    S    
O17   V4    S    
C9    C10   A    
O1    V2    S    
O7    V1    S    
C11   C18   A    
C22   H8    S    
O9    C4    A    
C25   I1    S    
O12   V3    S    
C24   H10   S    
C8    C9    A    
C11   C15   A    
C8    H4    S    
C7    C18   A    
C27   H14   S    
C5    C13   A    
C38   H15   S    
C4    C6    S    
C10   C11   A    
C21   C22   D    
O4    C2    A    
V4    O20   S    
C16   I2    S    
C32   C33   A    
O18   V4    S    
C34   C35   A    
C22   C44   S    
O2    C1    A    
C23   C24   D    
C36   C37   A    
C25   C26   D    
O15   V3    S    
O19   C44   A    
C23   H9    S    
V3    O20   S    
O3    C4    A    
C14   H21   S    
C26   H11   S    
C37   H19   S    
C12   C16   A    
O6    V2    S    
C30   H18   S    
O9    V2    S    
C5    C17   A    
C41   O16   A    
O13   V3    S    
O2    V1    S    
C29   C40   A    
C1    C26   S    
C18   C43   S    
C14   C15   A    
O1    C2    A    
C19   C21   S    
C10   C12   A    
O17   V3    S    
O14   V3    S    
O5    V1    S    
O11   V4    S    
O8    C3    A    
C15   H5    S    
C33   C37   A    
C34   C38   A    
C24   C42   S    
O7    V2    S    
O4    V1    S    
O3    V1    S    
H13   C36   S    
C31   C32   A    
C28   C38   A    
C40   C41   S    
C19   H6    S    
C5    H2    S    
O13   C44   A    
C35   C36   A    
C27   C39   A    
O18   C43   A    
C13   C14   A    
C27   C35   A    
C9    H22   S    
O19   V4    S    
V1    O10   S    
H1    C17   S    
C2    C28   S    
C31   H17   S    
C7    C8    A    
C23   C25   S    
O16   V4    S    
C6    C17   A    
