data_mof_unit_57862.cif
_audit_creation_date              2012-12-11T14:50:47-0500
_audit_creation_method            fapswitch 2.2
_symmetry_space_group_name_H-M    P1
_symmetry_Int_Tables_number       1
_space_group_crystal_system       triclinic
_cell_length_a                    10.907158
_cell_length_b                    11.172556
_cell_length_c                    18.810161
_cell_angle_alpha                 89.982279
_cell_angle_beta                  89.879279
_cell_angle_gamma                 60.772854
_cell_volume                      2000.39592894

loop_
_atom_site_label
_atom_site_type_symbol
_atom_type_description
_atom_site_fract_x
_atom_site_fract_y
_atom_site_fract_z
_atom_type_partial_charge
C1    C     C_R   0.226424 0.649074 0.605952 0.522863
C2    C     C_R   0.603972 0.117192 0.774186 -0.062143
C3    C     C_R   0.615244 0.106556 0.702208 -0.180775
C4    C     C_R   0.653393 0.619523 0.601278 0.533561
C5    C     C_R   0.699107 0.146390 0.667406 -0.009160
C6    C     C_R   0.161492 0.563701 0.715031 -0.143947
C7    C     C_R   0.143711 0.576192 0.789525 -0.025844
C8    C     C_R   0.100947 0.706913 0.821414 0.020404
C9    C     C_R   0.070521 0.818118 0.777456 -0.154103
C10   C     C_R   0.091609 0.802295 0.704550 -0.149940
C11   C     C_R   0.150380 0.673329 0.674035 0.002930
C12   C     C_3   0.643468 0.567503 0.807547 -0.086839
C13   C     C_R   0.701076 0.524938 0.268958 -0.101003
C14   C     C_R   0.695111 0.540612 0.195278 0.011076
C15   C     C_R   0.641324 0.673647 0.166704 0.021617
C16   C     C_R   0.635135 0.221954 0.600541 0.530856
C17   C     C_R   0.563218 0.788491 0.211760 -0.048812
C18   C     C_R   0.567588 0.770583 0.285195 -0.160643
C19   C     C_R   0.643807 0.639634 0.314120 0.001442
C20   C     C_R   0.517253 0.245099 0.278389 -0.133076
C21   C     C_R   0.530193 0.220930 0.206622 -0.138448
C22   C     C_R   0.663123 0.141374 0.178103 0.014830
C23   C     C_3   0.691370 0.675110 0.813375 0.025172
C24   C     C_R   0.783960 0.085498 0.221295 -0.147266
C25   C     C_R   0.771821 0.110930 0.293441 -0.048108
C26   C     C_R   0.637362 0.189789 0.322043 0.019402
C27   C     C_R   0.234410 0.730488 0.282871 -0.128085
C28   C     C_R   0.227166 0.646796 0.400089 0.553605
C29   C     C_R   0.220221 0.730939 0.210871 -0.162353
C30   C     C_R   0.158031 0.660414 0.180514 -0.010688
C31   C     C_R   0.127937 0.571902 0.222296 -0.048648
C32   C     C_R   0.136049 0.576690 0.296217 -0.057859
C33   C     C_R   0.188147 0.658165 0.326314 0.014933
C34   C     C_3   0.665937 0.643022 0.677505 0.036831
C35   C     C_R   0.705925 0.096065 0.893587 0.517713
C36   C     C_R   0.724597 0.690756 0.887947 0.519173
C37   C     C_R   0.062105 0.737321 0.897063 0.545961
C38   C     C_R   0.678240 0.100179 0.105339 0.544033
C39   C     C_R   0.693219 0.691071 0.097010 0.536753
C40   C     C_R   0.638702 0.616862 0.390137 0.551830
C41   C     C_R   0.094654 0.707966 0.111576 0.546604
C42   C     C_R   0.615521 0.231729 0.394895 0.548631
C43   C     C_3   0.578561 0.812222 0.778128 -0.096564
C44   C     C_3   0.568292 0.794191 0.697805 -0.234730
C45   C     C_3   0.816829 0.610910 0.692459 -0.268547
C46   C     C_3   0.831453 0.625823 0.771674 -0.263736
C47   C     C_3   0.920617 0.171103 0.658317 -0.270111
C48   C     C_3   0.071805 0.127643 0.682291 -0.463009
C49   C     C_3   0.913536 0.191546 0.819156 -0.265177
C50   C     C_3   0.901462 0.234657 0.897165 -0.402459
C51   C     C_1   0.473684 0.129383 0.799857 0.189439
C52   C     C_3   0.174412 0.447339 0.831202 -0.253630
C53   C     C_3   0.294884 0.400626 0.885429 -0.362974
C54   C     C_1   0.435446 0.870494 0.808616 0.217564
C55   C     C_3   0.734311 0.416582 0.148484 -0.253227
C56   C     C_3   0.630185 0.546426 0.725168 -0.089535
C57   C     C_3   0.609190 0.437966 0.102985 -0.443888
C58   C     C_1   0.469871 0.924007 0.184792 0.224428
C59   C     C_1   0.896957 0.054708 0.336707 0.204927
C60   C     C_1   0.091362 0.474880 0.190872 0.239305
C61   C     C_1   0.088450 0.500706 0.340472 0.217473
C62   C     C_3   0.517356 0.601204 0.860556 -0.262951
C63   C     C_3   0.548977 0.490543 0.915386 -0.481399
C64   C     C_3   0.492728 0.551444 0.702889 -0.259500
C65   C     C_3   0.475467 0.438945 0.737585 -0.450886
C66   C     C_R   0.812560 0.152064 0.704486 -0.009049
C67   C     C_R   0.811289 0.152288 0.781662 -0.009976
C68   C     C_R   0.704933 0.130561 0.816907 -0.013283
Cr1   Cr    Cr6+3 0.392930 0.397900 0.502230 1.026756
Cr2   Cr    Cr6+3 0.398240 0.708600 0.501260 1.016469
Cr3   Cr    Cr6+3 0.708800 0.393470 0.496460 1.026108
Cr4   Cr    Cr6+3 0.937620 0.938540 0.007640 0.999492
Cr5   Cr    Cr6+3 0.625150 0.937450 0.994520 1.055213
Cr6   Cr    Cr6+3 0.937990 0.625080 0.001190 1.001377
H1    H     H_    0.618954 0.883654 0.785694 0.132463
H2    H     H_    0.510229 0.858419 0.319796 0.138921
H3    H     H_    0.412780 0.310212 0.299513 0.153283
H4    H     H_    0.437092 0.263759 0.173561 0.151488
H5    H     H_    0.887640 0.020463 0.199107 0.158936
H6    H     H_    0.282982 0.787252 0.304264 0.165469
H7    H     H_    0.458102 0.827721 0.681354 0.150347
H8    H     H_    0.250243 0.793721 0.179252 0.150372
H9    H     H_    0.600102 0.860659 0.668044 0.101639
H10   H     H_    0.869452 0.700446 0.779965 0.136162
H11   H     H_    0.842559 0.681732 0.662352 0.133836
H12   H     H_    0.713741 0.440745 0.712894 0.129924
H13   H     H_    0.731782 0.470900 0.826990 0.143694
H14   H     H_    0.077027 0.210865 0.711900 0.138576
H15   H     H_    0.122374 0.032129 0.713391 0.166336
H16   H     H_    0.138325 0.109751 0.634362 0.149042
H17   H     H_    0.934898 0.112225 0.608425 0.168973
H18   H     H_    0.874754 0.280139 0.643516 0.187409
H19   H     H_    0.795373 0.274626 0.917966 0.157107
H20   H     H_    0.976149 0.147358 0.930544 0.186011
H21   H     H_    0.931937 0.315572 0.903301 0.134602
H22   H     H_    0.022562 0.108526 0.813928 0.173674
H23   H     H_    0.909309 0.523139 0.790825 0.124170
H24   H     H_    0.906749 0.279858 0.789390 0.126388
H25   H     H_    0.398065 0.347639 0.860067 0.141671
H26   H     H_    0.294785 0.485593 0.914584 0.169549
H27   H     H_    0.288037 0.329919 0.924739 0.169455
H28   H     H_    0.080958 0.460493 0.860345 0.184304
H29   H     H_    0.195494 0.364023 0.793408 0.148149
H30   H     H_    0.521864 0.447885 0.137360 0.154112
H31   H     H_    0.570075 0.532220 0.070436 0.145863
H32   H     H_    0.641179 0.350105 0.066252 0.146330
H33   H     H_    0.825699 0.392738 0.114037 0.199724
H34   H     H_    0.893940 0.504548 0.675739 0.134297
H35   H     H_    0.767065 0.323928 0.181467 0.146981
H36   H     H_    0.570210 0.393729 0.889472 0.145084
H37   H     H_    0.639528 0.477164 0.947819 0.156172
H38   H     H_    0.459661 0.524413 0.952859 0.143566
H39   H     H_    0.495821 0.688591 0.895654 0.185677
H40   H     H_    0.415017 0.635675 0.834901 0.175145
H41   H     H_    0.572915 0.364687 0.762551 0.164777
H42   H     H_    0.399327 0.481834 0.779983 0.163419
H43   H     H_    0.439159 0.387862 0.699484 0.176677
H44   H     H_    0.401997 0.653834 0.714393 0.166533
H45   H     H_    0.536064 0.094986 0.672642 0.137080
H46   H     H_    0.495609 0.531442 0.645291 0.200704
H47   H     H_    0.198272 0.464485 0.690199 0.129536
H48   H     H_    0.029312 0.917378 0.800414 0.148965
H49   H     H_    0.067402 0.888776 0.671135 0.148093
H50   H     H_    0.745049 0.422680 0.291192 0.146794
N1    N     N_1   0.369708 0.138541 0.820447 -0.313345
N2    N     N_1   0.322930 0.914993 0.831652 -0.314150
N3    N     N_1   0.392777 0.032383 0.163623 -0.268840
N4    N     N_1   0.996941 0.010359 0.371506 -0.276597
N5    N     N_1   0.063534 0.396279 0.166254 -0.280361
N6    N     N_1   0.050480 0.440090 0.375610 -0.262728
O1    O     O_R   0.507430 0.255570 0.581420 -0.525804
O2    O     O_R   0.837200 0.593290 0.915250 -0.556957
O3    O     O_R   0.065330 0.635370 0.931590 -0.521766
O4    O     O_R   0.280190 0.527390 0.578910 -0.512445
O5    O     O_R   0.068300 0.828790 0.091860 -0.521693
O6    O     O_R   0.798730 0.057480 0.079370 -0.520915
O7    O     O_R   0.584680 0.080480 0.076790 -0.493292
O8    O     O_R   0.626790 0.809640 0.067050 -0.493425
O9    O     O_R   0.816010 0.596460 0.076500 -0.504469
O10   O     O_R   0.045680 0.638310 0.081070 -0.487281
O11   O     O_3   0.833590 0.833690 0.001120 -0.278422
O12   O     O_R   0.524460 0.695920 0.424060 -0.506698
O13   O     O_R   0.260310 0.739740 0.584580 -0.528007
O14   O     O_R   0.532250 0.695150 0.573830 -0.515571
O15   O     O_R   0.744930 0.503430 0.576380 -0.538524
O16   O     O_R   0.699250 0.276390 0.571950 -0.525515
O17   O     O_R   0.499020 0.256400 0.419850 -0.519250
O18   O     O_R   0.272400 0.528160 0.429140 -0.500177
O19   O     O_R   0.251910 0.740570 0.423020 -0.500156
O20   O     O_R   0.736530 0.504260 0.414810 -0.491340
O21   O     O_R   0.691460 0.277160 0.422180 -0.497646
O22   O     O_3   0.499990 0.499990 0.499980 -0.278847
O23   O     O_R   0.089490 0.825610 0.930610 -0.508690
O24   O     O_R   0.818370 0.054540 0.929880 -0.521632
O25   O     O_R   0.605870 0.077310 0.915530 -0.505813
O26   O     O_R   0.646440 0.806700 0.917570 -0.503530

loop_
_geom_bond_atom_site_label_1
_geom_bond_atom_site_label_2
_ccdc_geom_bond_type
C57   H31   S    
C52   H29   S    
C34   C56   S    
Cr1   O4    S    
Cr6   O2    S    
C27   C29   A    
C47   H18   S    
C1    C11   S    
C35   O24   A    
C44   H9    S    
C14   C55   S    
C23   C43   S    
C7    C8    A    
Cr5   O11   S    
C45   C46   S    
C53   H25   S    
C54   N2    T    
C12   C23   S    
C52   H28   S    
Cr2   O13   S    
C29   C30   A    
Cr5   O7    S    
C20   H3    S    
C35   O25   A    
C32   C61   S    
C62   H40   S    
C2    C68   A    
C36   O2    A    
C30   C31   A    
C50   H21   S    
Cr4   O6    S    
Cr3   O20   S    
Cr5   O8    S    
C22   C38   S    
Cr6   O3    S    
C64   H44   S    
C16   O16   A    
C18   C19   A    
C63   H38   S    
C57   H30   S    
C16   O1    A    
C41   O10   A    
C43   C54   S    
C49   H24   S    
Cr3   O21   S    
C47   C48   S    
C53   H27   S    
C8    C9    A    
C5    C16   S    
C21   H4    S    
C48   H14   S    
C30   C41   S    
C38   O6    A    
C9    C10   A    
C47   C66   S    
C45   H34   S    
C17   C58   S    
C57   H32   S    
C39   O8    A    
C58   N3    T    
C49   H22   S    
C23   C46   S    
C48   H16   S    
C13   C14   A    
C55   H35   S    
C65   H41   S    
Cr2   O19   S    
C42   O17   A    
C9    H48   S    
C39   O9    A    
C53   H26   S    
C43   H1    S    
Cr4   O11   S    
C4    C34   S    
Cr2   O12   S    
C28   O18   A    
C13   C19   A    
C67   C68   A    
C51   N1    T    
C37   O23   A    
Cr2   O22   S    
C24   C25   A    
C62   H39   S    
C27   H6    S    
C10   C11   A    
C6    C11   A    
C13   H50   S    
C50   H20   S    
C40   O12   A    
C3    C5    A    
C25   C26   A    
Cr6   O10   S    
C27   C33   A    
C55   H33   S    
C31   C60   S    
C45   H11   S    
C43   C44   S    
C4    O14   A    
C62   C63   S    
C1    O13   A    
C44   H7    S    
C12   C62   S    
C24   H5    S    
C56   H12   S    
Cr3   O22   S    
Cr1   O1    S    
Cr5   O25   S    
C56   C64   S    
C17   C18   A    
C40   O20   A    
C34   C45   S    
C42   O21   A    
C15   C39   S    
C12   C56   S    
C3    H45   S    
C61   N6    T    
C46   H10   S    
Cr3   O15   S    
C46   H23   S    
C28   C33   S    
C10   H49   S    
C48   H15   S    
C55   C57   S    
Cr1   O17   S    
C65   H42   S    
C37   O3    A    
C8    C37   S    
C1    O4    A    
C41   O5    A    
C52   C53   S    
C36   O26   A    
C15   C17   A    
C34   C44   S    
C18   H2    S    
Cr4   O23   S    
C49   C67   S    
C12   H13   S    
Cr1   O22   S    
C47   H17   S    
Cr6   O11   S    
C31   C32   A    
C5    C66   A    
Cr4   O5    S    
C60   N5    T    
C7    C52   S    
C50   H19   S    
C6    C7    A    
C23   C36   S    
Cr4   O24   S    
Cr6   O9    S    
Cr2   O14   S    
C2    C51   S    
C64   H46   S    
C64   C65   S    
C63   H36   S    
C2    C3    A    
C59   N4    T    
C29   H8    S    
C32   C33   A    
C20   C26   A    
C35   C68   S    
C4    O15   A    
Cr5   O26   S    
C38   O7    A    
C66   C67   A    
C22   C24   A    
C26   C42   S    
C63   H37   S    
C19   C40   S    
C28   O19   A    
Cr3   O16   S    
C20   C21   A    
C49   C50   S    
Cr1   O18   S    
C65   H43   S    
C14   C15   A    
C25   C59   S    
C6    H47   S    
C21   C22   A    
