data_mof_unit_55519.cif
_audit_creation_date              2012-12-10T18:11:39-0500
_audit_creation_method            fapswitch 2.2
_symmetry_space_group_name_H-M    P1
_symmetry_Int_Tables_number       1
_space_group_crystal_system       triclinic
_cell_length_a                    10.494243
_cell_length_b                    12.603543
_cell_length_c                    13.109849
_cell_angle_alpha                 83.509929
_cell_angle_beta                  90.113063
_cell_angle_gamma                 101.771791
_cell_volume                      1686.22569413

loop_
_atom_site_label
_atom_site_type_symbol
_atom_type_description
_atom_site_fract_x
_atom_site_fract_y
_atom_site_fract_z
_atom_type_partial_charge
C1    C     C_R   0.490963 0.439531 0.691746 0.878892
C2    C     C_3   0.065118 0.598754 0.520355 -0.153760
C3    C     C_3   0.963511 0.521300 0.593733 -0.200861
C4    C     C_3   0.877465 0.499308 0.501306 0.021532
C5    C     C_R   0.643796 0.725003 0.056377 -0.169088
C6    C     C_R   0.572035 0.591040 0.203184 -0.189414
C7    C     C_R   0.421358 0.299676 0.844395 0.262838
C8    C     C_R   0.409901 0.273699 0.950343 -0.151531
C9    C     C_R   0.466882 0.348608 0.015076 -0.165873
C10   C     C_R   0.545330 0.449258 0.975326 0.121330
C11   C     C_R   0.566391 0.473792 0.868555 0.051961
C12   C     C_R   0.742188 0.499738 0.500959 0.888221
C13   C     C_R   0.592441 0.531164 0.038718 -0.001540
C14   C     C_R   0.638026 0.639742 0.995152 0.121164
C15   C     C_R   0.678053 0.658664 0.892390 -0.196878
C16   C     C_R   0.652417 0.572712 0.832079 -0.160139
C17   C     C_R   0.592410 0.508992 0.144571 0.352632
C18   C     C_R   0.600186 0.700420 0.158909 -0.230018
C19   C     C_R   0.496572 0.402042 0.802000 -0.201313
C20   C     C_R   0.313275 0.086737 0.349892 0.172258
C21   C     C_R   0.660784 0.803195 0.623831 0.026580
C22   C     C_R   0.693590 0.908457 0.650912 -0.238366
C23   C     C_R   0.526404 0.559418 0.309493 0.899790
C24   C     C_R   0.630832 0.988026 0.605055 -0.160837
C25   C     C_R   0.535690 0.962755 0.530125 0.041150
C26   C     C_R   0.505329 0.853734 0.505855 0.242121
C27   C     C_R   0.471161 0.041225 0.477663 -0.050853
C28   C     C_R   0.377641 0.009484 0.401997 0.110874
C29   C     C_R   0.351156 0.901740 0.379492 -0.226315
C30   C     C_R   0.414506 0.825843 0.430073 -0.232596
C31   C     C_R   0.496388 0.150920 0.496742 0.012286
C32   C     C_R   0.342755 0.193322 0.373585 0.044242
C33   C     C_R   0.257775 0.499923 0.500288 0.869545
C34   C     C_3   0.934998 0.400908 0.482085 -0.087958
C35   C     C_3   0.023784 0.423063 0.574509 -0.180979
C36   C     C_3   0.122580 0.500321 0.501047 -0.010032
C37   C     C_3   0.036497 0.478381 0.408708 -0.129668
C38   C     C_3   0.976363 0.576620 0.427948 -0.122835
H1    H     H_    0.047987 0.360692 0.634003 0.171177
H2    H     H_    0.442978 0.329037 0.095969 0.193689
H3    H     H_    0.349612 0.197180 0.983078 0.204501
H4    H     H_    0.695618 0.585602 0.756062 0.147882
H5    H     H_    0.294730 0.254257 0.334814 0.150571
H6    H     H_    0.281792 0.874749 0.321931 0.203026
H7    H     H_    0.565263 0.182619 0.552244 0.131599
H8    H     H_    0.712296 0.742472 0.656733 0.122741
H9    H     H_    0.878070 0.320169 0.466428 0.170276
H10   H     H_    0.660284 0.068290 0.628868 0.144490
H11   H     H_    0.768261 0.928553 0.706722 0.158998
H12   H     H_    0.391474 0.745916 0.406817 0.214294
H13   H     H_    0.070806 0.460916 0.333508 0.156897
H14   H     H_    0.952307 0.639019 0.368410 0.167664
H15   H     H_    0.122089 0.679556 0.535801 0.167217
H16   H     H_    0.928857 0.538741 0.668840 0.145652
H17   H     H_    0.593258 0.765985 0.204006 0.189747
H18   H     H_    0.728997 0.738671 0.859223 0.139432
H19   H     H_    0.674235 0.809340 0.023816 0.162660
N1    N     N_R   0.432930 0.222190 0.444670 -0.105556
N2    N     N_R   0.566370 0.776980 0.554790 -0.127652
O1    O     O_R   0.467970 0.366730 0.627150 -0.574341
O2    O     O_R   0.510820 0.544830 0.662520 -0.622189
O3    O     O_R   0.664630 0.410960 0.482340 -0.588419
O4    O     O_R   0.707470 0.589060 0.517710 -0.641963
O5    O     O_R   0.489180 0.455170 0.337480 -0.567415
O6    O     O_R   0.532030 0.633270 0.372850 -0.643313
O7    O     O_R   0.292530 0.410940 0.482290 -0.614587
O8    O     O_R   0.335370 0.589040 0.517660 -0.641365
Zn1   Zn    Zn3+2 0.471390 0.381080 0.476380 1.024705
Zn2   Zn    Zn3+2 0.528610 0.618920 0.523620 0.936500
S1    S     S_3+6 0.678739 0.407214 0.195390 0.018764
O9    O     O_2   0.773223 0.453224 0.273072 -0.333205
O10   O     O_2   0.587229 0.307571 0.245488 -0.313898
O11   O     O_3   0.762480 0.370875 0.100380 -0.545542
H20   H     H_    0.809101 0.316221 0.134553 0.388080
Br1   Br    Br    0.320246 0.193855 0.765324 -0.508370
Br2   Br    Br    0.186152 0.053237 0.246263 -0.539312

loop_
_geom_bond_atom_site_label_1
_geom_bond_atom_site_label_2
_ccdc_geom_bond_type
O7    Zn1   S    
C34   C37   S    
O11   H20   S    
C35   C36   S    
C32   N1    A    
C7    C8    A    
C11   C19   A    
C37   C38   S    
O5    Zn1   S    
C31   N1    A    
C28   C29   A    
C21   N2    A    
C37   H13   S    
C3    H16   S    
C38   H14   S    
O2    Zn2   S    
C15   C16   A    
C33   C36   S    
C20   Br2   S    
C34   C35   S    
O4    Zn2   S    
C8    C9    A    
S1    O9    D    
C4    C12   S    
C9    C10   A    
C30   H12   S    
C17   S1    S    
C21   C22   A    
C33   O7    A    
C6    C18   A    
C4    C34   S    
C1    C19   S    
C27   C31   A    
C24   H10   S    
C8    H3    S    
C1    O1    A    
C12   O4    A    
C7    Br1   S    
C5    C18   A    
C20   C28   A    
C25   C26   A    
C2    H15   S    
C9    H2    S    
O8    Zn2   S    
C35   H1    S    
C29   C30   A    
C12   O3    A    
C11   C16   A    
C2    C38   S    
C3    C35   S    
S1    O11   S    
C24   C25   A    
C5    C14   A    
C18   H17   S    
N2    Zn2   S    
C22   H11   S    
N1    Zn1   S    
C23   O5    A    
C4    C38   S    
C26   C30   A    
C7    C19   A    
C29   H6    S    
C22   C24   A    
C3    C4    S    
C16   H4    S    
C33   O8    A    
C21   H8    S    
C20   C32   A    
C2    C36   S    
C6    C17   A    
C36   C37   S    
C5    H19   S    
C10   C13   A    
C1    O2    A    
O3    Zn1   S    
C25   C27   A    
C13   C17   A    
C15   H18   S    
C23   O6    A    
C2    C3    S    
O6    Zn2   S    
C6    C23   S    
C32   H5    S    
C10   C11   A    
O1    Zn1   S    
C31   H7    S    
C27   C28   A    
C14   C15   A    
C26   N2    A    
S1    O10   D    
C34   H9    S    
C13   C14   A    
