data_mof_unit_25572.cif
_audit_creation_date              2012-12-10T17:31:50-0500
_audit_creation_method            fapswitch 2.2
_symmetry_space_group_name_H-M    P1
_symmetry_Int_Tables_number       1
_space_group_crystal_system       triclinic
_cell_length_a                    12.144662
_cell_length_b                    11.515761
_cell_length_c                    12.713156
_cell_angle_alpha                 92.12999
_cell_angle_beta                  96.30597
_cell_angle_gamma                 86.083124
_cell_volume                      1762.32402962

loop_
_atom_site_label
_atom_site_type_symbol
_atom_type_description
_atom_site_fract_x
_atom_site_fract_y
_atom_site_fract_z
_atom_type_partial_charge
C1    C     C_R   0.475002 0.511027 0.299236 0.908480
C2    C     C_R   0.975267 0.554725 0.514481 -0.004425
C3    C     C_R   0.500058 0.282326 0.499694 0.895957
C4    C     C_R   0.499942 0.717673 0.500307 0.897912
C5    C     C_1   0.500227 0.161722 0.499826 -0.161501
C6    C     C_1   0.499777 0.838279 0.500197 -0.162032
C7    C     C_1   0.500117 0.059397 0.499949 0.012124
C8    C     C_1   0.499887 0.940605 0.500086 0.011749
C9    C     C_R   0.545730 0.466656 0.814044 -0.106796
C10   C     C_R   0.454253 0.530962 0.185478 -0.105775
C11   C     C_R   0.348596 0.489464 0.017178 0.002142
C12   C     C_R   0.524980 0.488546 0.700651 0.911099
C13   C     C_R   0.651691 0.503846 0.982841 -0.001205
C14   C     C_R   0.350480 0.516191 0.126270 0.046137
C15   C     C_R   0.649704 0.479668 0.873427 0.044944
C16   C     C_R   0.544701 0.557196 0.133542 0.146097
C17   C     C_R   0.455451 0.438800 0.865547 0.148504
C18   C     C_R   0.549709 0.515524 0.029035 -0.013971
C19   C     C_R   0.450389 0.478853 0.970595 -0.010379
C20   C     C_3   0.378649 0.349739 0.813155 -0.802814
C21   C     C_3   0.622163 0.646427 0.184584 -0.804145
C22   C     C_3   0.757731 0.455520 0.824141 -0.763341
C23   C     C_R   0.044760 0.648784 0.536887 0.017860
C24   C     C_3   0.242227 0.541364 0.174992 -0.776024
C25   C     C_2   0.239727 0.481918 0.952237 0.909390
C26   C     C_2   0.760608 0.508137 0.048267 0.913031
C27   C     C_3   0.811259 0.656935 0.596441 -0.801313
C28   C     C_3   0.188833 0.342886 0.403825 -0.796258
C29   C     C_2   0.770372 0.290905 0.382463 1.001232
C30   C     C_2   0.229587 0.709883 0.616378 0.996059
C31   C     C_3   0.000579 0.774475 0.525158 -0.824359
C32   C     C_3   0.999065 0.225384 0.474184 -0.829491
C33   C     C_R   0.955137 0.351189 0.462879 0.027679
C34   C     C_R   0.160533 0.624185 0.555571 0.039281
C35   C     C_R   0.839401 0.375975 0.444108 0.051458
C36   C     C_R   0.141335 0.435438 0.476173 0.248671
C37   C     C_R   0.858705 0.564427 0.524004 0.249848
C38   C     C_R   0.024744 0.445136 0.485619 -0.001453
H1    H     H_    0.422393 0.291627 0.757181 0.214400
H2    H     H_    0.177922 0.585437 0.118637 0.234612
H3    H     H_    0.210671 0.459071 0.198157 0.251651
H4    H     H_    0.250923 0.604288 0.243009 0.248041
H5    H     H_    0.133834 0.545579 0.831578 0.341460
H6    H     H_    0.907728 0.581230 0.074909 0.349824
H7    H     H_    0.746548 0.622990 0.638210 0.269467
H8    H     H_    0.875018 0.684049 0.660219 0.221058
H9    H     H_    0.775015 0.733753 0.551910 0.243960
H10   H     H_    0.253690 0.376760 0.362195 0.269129
H11   H     H_    0.224869 0.266018 0.448404 0.242274
H12   H     H_    0.352717 0.292390 0.873016 0.235975
H13   H     H_    0.125184 0.315914 0.339892 0.225709
H14   H     H_    0.714412 0.129406 0.369259 0.340652
H15   H     H_    0.284724 0.871764 0.628499 0.341208
H16   H     H_    0.054002 0.821380 0.478029 0.276497
H17   H     H_    0.918679 0.782015 0.477581 0.241489
H18   H     H_    0.997389 0.818933 0.603847 0.251310
H19   H     H_    0.945235 0.178250 0.520705 0.276086
H20   H     H_    0.002581 0.181351 0.395351 0.253511
H21   H     H_    0.080764 0.217534 0.522099 0.241655
H22   H     H_    0.304509 0.392441 0.768024 0.276538
H23   H     H_    0.578500 0.706470 0.239147 0.215105
H24   H     H_    0.695701 0.603943 0.230855 0.279059
H25   H     H_    0.649331 0.701684 0.123753 0.235998
H26   H     H_    0.822738 0.411607 0.879868 0.243799
H27   H     H_    0.748795 0.392875 0.755905 0.245087
H28   H     H_    0.788501 0.538205 0.800975 0.252241
N1    N     N_R   0.792200 0.479100 0.480660 -0.158780
N2    N     N_R   0.207800 0.520900 0.519340 -0.157541
O1    O     O_R   0.578300 0.494420 0.341180 -0.562516
O2    O     O_R   0.209785 0.558894 0.870046 -0.756043
O3    O     O_2   0.784630 0.440682 0.120449 -0.581909
O4    O     O_R   0.836256 0.587465 0.025517 -0.803386
O5    O     O_2   0.720591 0.318125 0.297351 -0.569873
O6    O     O_R   0.763681 0.179039 0.419480 -0.825293
O7    O     O_2   0.280591 0.683133 0.701064 -0.572671
O8    O     O_R   0.235253 0.821717 0.578886 -0.823211
O9    O     O_R   0.421700 0.505580 0.658820 -0.559984
O10   O     O_R   0.390690 0.507830 0.353590 -0.644099
O11   O     O_R   0.609310 0.492170 0.646410 -0.645349
O12   O     O_R   0.593810 0.327740 0.493800 -0.600436
O13   O     O_R   0.406190 0.672260 0.506200 -0.598835
O14   O     O_R   0.406190 0.341150 0.506220 -0.630659
O15   O     O_R   0.593810 0.658850 0.493780 -0.630007
O16   O     O_2   0.175871 0.410049 0.972069 -0.626092
Zn1   Zn    Zn3+2 0.625270 0.491050 0.491710 0.957176
Zn2   Zn    Zn3+2 0.374730 0.508950 0.508290 0.957342

loop_
_geom_bond_atom_site_label_1
_geom_bond_atom_site_label_2
_ccdc_geom_bond_type
C16   C21   S    
C26   O3    D    
C24   H4    S    
C32   H20   S    
C7    C8    S    
C11   C19   A    
C13   C18   A    
H14   O6    S    
C33   C35   A    
C28   H13   S    
C29   O5    D    
C11   C25   S    
C12   O11   A    
C17   C20   S    
C26   O4    S    
C18   C19   A    
C14   C24   S    
C22   H28   S    
C20   H12   S    
C17   C19   A    
C15   C22   S    
C4    O13   A    
C25   O16   D    
C31   H18   S    
C20   H22   S    
C21   H23   S    
O13   Zn2   S    
C27   H7    S    
C1    O10   A    
C24   H3    S    
C32   H19   S    
C3    O12   A    
N1    Zn1   S    
C30   C34   S    
C4    C6    S    
C10   C14   A    
C34   N2    A    
C11   C14   A    
C5    C7    T    
C20   H1    S    
C6    C8    T    
C29   O6    S    
O14   Zn2   S    
C1    O1    A    
C23   C31   S    
C22   H27   S    
O12   Zn1   S    
C30   O8    S    
C28   H11   S    
C2    C38   A    
C35   N1    A    
C23   C34   A    
C12   O9    A    
C3    O14   A    
C21   H24   S    
N2    Zn2   S    
C27   H8    S    
C9    C17   A    
O15   Zn1   S    
O9    Zn2   S    
H5    O2    S    
C13   C15   A    
C13   C26   S    
H15   O8    S    
O11   Zn1   S    
O1    Zn1   S    
C27   H9    S    
C28   H10   S    
C1    C10   S    
C3    C5    S    
C36   N2    A    
C29   C35   S    
C33   C38   A    
C32   C33   S    
C36   C38   A    
C9    C15   A    
C10   C16   A    
C30   O7    D    
C2    C37   A    
O10   Zn2   S    
C4    O15   A    
C27   C37   S    
C37   N1    A    
C24   H2    S    
H6    O4    S    
C31   H16   S    
C9    C12   S    
C21   H25   S    
C22   H26   S    
C28   C36   S    
C16   C18   A    
C2    C23   A    
C25   O2    S    
C32   H21   S    
C31   H17   S    
