data_mof_unit_16278.cif
_audit_creation_date              2012-12-10T18:00:45-0500
_audit_creation_method            fapswitch 2.2
_symmetry_space_group_name_H-M    P1
_symmetry_Int_Tables_number       1
_space_group_crystal_system       triclinic
_cell_length_a                    15.862032
_cell_length_b                    10.831265
_cell_length_c                    9.591556
_cell_angle_alpha                 89.626791
_cell_angle_beta                  88.486482
_cell_angle_gamma                 91.075825
_cell_volume                      1646.97984178

loop_
_atom_site_label
_atom_site_type_symbol
_atom_type_description
_atom_site_fract_x
_atom_site_fract_y
_atom_site_fract_z
_atom_type_partial_charge
C1    C     C_R   0.499871 0.262281 0.500228 0.782052
C2    C     C_R   0.500129 0.737719 0.499772 0.782053
C3    C     C_R   0.501298 0.936933 0.373130 -0.187422
C4    C     C_R   0.498701 0.063067 0.626870 -0.187422
C5    C     C_R   0.500128 0.871689 0.499696 -0.018511
C6    C     C_R   0.499871 0.128311 0.500304 -0.018510
C7    C     C_R   0.440434 0.435047 0.079389 -0.055545
C8    C     C_R   0.559566 0.564952 0.920611 -0.055543
C9    C     C_R   0.439379 0.434572 0.931494 0.263165
C10   C     C_R   0.560621 0.565428 0.068505 0.263171
C11   C     C_R   0.339963 0.500121 0.501552 0.821334
C12   C     C_R   0.660037 0.499878 0.498447 0.821336
C13   C     C_3   0.968599 0.423738 0.604579 -0.455949
C14   C     C_3   0.031401 0.576261 0.395420 -0.455963
C15   C     C_3   0.027620 0.386087 0.481493 0.453418
C16   C     C_3   0.972380 0.613912 0.518507 0.453411
C17   C     C_1   0.250287 0.501143 0.504738 -0.177060
C18   C     C_1   0.749713 0.498857 0.495261 -0.177061
C19   C     C_3   0.024065 0.541334 0.623322 0.451037
C20   C     C_3   0.975935 0.458666 0.376677 0.451031
C21   C     C_3   0.083191 0.502289 0.502192 -0.065684
C22   C     C_3   0.916809 0.497710 0.497807 -0.065686
C23   C     C_1   0.174773 0.501974 0.504928 0.085024
C24   C     C_1   0.825227 0.498025 0.495072 0.085022
C25   C     C_R   0.501140 0.064679 0.373424 -0.173492
C26   C     C_R   0.498859 0.935321 0.626576 -0.173493
Cu1   Cu    Cu3+1 0.500000 0.500020 0.640660 0.946951
Cu2   Cu    Cu3+1 0.500000 0.499980 0.359340 0.946952
H1    H     H_    0.941733 0.362326 0.688207 0.168878
H2    H     H_    0.058268 0.637675 0.311793 0.168877
H3    H     H_    0.502070 0.113299 0.274331 0.153339
H4    H     H_    0.497930 0.886700 0.725669 0.153339
H5    H     H_    0.502351 0.889591 0.273980 0.152197
H6    H     H_    0.497648 0.110409 0.726020 0.152199
H7    H     H_    0.392868 0.383928 0.140070 0.142618
H8    H     H_    0.607132 0.616072 0.859929 0.142618
N1    N     N_R   0.500020 0.500030 0.852070 -0.175149
N2    N     N_R   0.499980 0.499970 0.147930 -0.175149
O1    O     O_R   0.500000 0.319660 0.618740 -0.592230
O2    O     O_R   0.500000 0.680340 0.381260 -0.592227
O3    O     O_R   0.499990 0.319630 0.381170 -0.584293
O4    O     O_R   0.500010 0.680370 0.618830 -0.584292
O5    O     O_R   0.379080 0.500000 0.618760 -0.571927
O6    O     O_R   0.620920 0.500000 0.381240 -0.571924
O7    O     O_R   0.379080 0.499970 0.381190 -0.578371
O8    O     O_R   0.620920 0.500030 0.618810 -0.578372
O9    O     O_3   0.063701 0.269637 0.459002 -0.574224
C27   C     C_3   0.999670 0.177833 0.462263 -0.306091
H9    H     H_    0.948380 0.198814 0.389349 0.193939
H10   H     H_    0.973522 0.164273 0.570032 0.161275
H11   H     H_    0.027687 0.089594 0.428411 0.176187
O10   O     O_3   0.936299 0.730363 0.541000 -0.574227
C28   C     C_3   0.000330 0.822169 0.537721 -0.306118
H12   H     H_    0.026461 0.835737 0.429943 0.161285
H13   H     H_    0.051632 0.801184 0.610611 0.193922
H14   H     H_    0.972316 0.910405 0.571597 0.176193
O11   O     O_3   0.943929 0.413305 0.250663 -0.577639
C29   C     C_3   0.011202 0.394490 0.154838 -0.294019
H15   H     H_    0.057128 0.327855 0.195510 0.197465
H16   H     H_    0.043675 0.483117 0.125859 0.162985
H17   H     H_    0.985350 0.354527 0.058393 0.181515
O12   O     O_3   0.056074 0.586688 0.749338 -0.577631
C30   C     C_3   0.988798 0.605541 0.845150 -0.294023
H18   H     H_    0.956287 0.516932 0.874105 0.162982
H19   H     H_    0.942902 0.672225 0.804482 0.197480
H20   H     H_    0.014656 0.645465 0.941610 0.181500
C31   C     C_3   0.367244 0.364461 0.867982 -0.785711
H21   H     H_    0.387966 0.306723 0.780065 0.255711
H22   H     H_    0.336278 0.299737 0.944644 0.177196
H23   H     H_    0.318084 0.429645 0.836465 0.247060
C32   C     C_3   0.632753 0.635545 0.132016 -0.785721
H24   H     H_    0.612029 0.693293 0.219923 0.255704
H25   H     H_    0.681913 0.570367 0.163545 0.247064
H26   H     H_    0.663723 0.700262 0.055352 0.177194

loop_
_geom_bond_atom_site_label_1
_geom_bond_atom_site_label_2
_ccdc_geom_bond_type
C25   H3    S    
C30   H19   S    
C26   H4    S    
C15   O9    S    
C28   H12   S    
C17   C23   T    
C18   C24   T    
C14   C21   S    
C13   H1    S    
C19   C21   S    
Cu1   N1    S    
C6    C25   A    
C3    H5    S    
C19   O12   S    
C29   H16   S    
Cu2   O3    S    
C8    H8    S    
C27   H11   S    
Cu1   O1    S    
C11   O5    A    
C10   C32   S    
C29   H17   S    
C27   H10   S    
C30   H20   S    
C14   H2    S    
C28   H13   S    
C15   C20   S    
C4    H6    S    
Cu2   O7    S    
C13   C19   S    
C31   H21   S    
C14   C20   S    
C3    C25   A    
C4    C6    A    
C32   H25   S    
C29   H15   S    
Cu2   O6    S    
C1    C6    S    
C31   H22   S    
C12   O8    A    
C9    C31   S    
O12   C30   S    
Cu1   O5    S    
O9    C27   S    
Cu2   N2    S    
C9    N1    A    
Cu1   O8    S    
C1    O3    A    
C27   H9    S    
C20   C22   S    
C13   C15   S    
C14   C16   S    
C11   O7    A    
C2    C5    S    
C8    N1    A    
O10   C28   S    
C28   H14   S    
C7    C9    A    
C11   C17   S    
C16   C22   S    
C7    H7    S    
C16   O10   S    
C30   H18   S    
C3    C5    A    
C32   H26   S    
C4    C26   A    
C10   N2    A    
C31   H23   S    
C21   C23   S    
C32   H24   S    
C12   O6    A    
Cu1   O4    S    
O11   C29   S    
C2    O4    A    
C16   C19   S    
C7    N2    A    
C13   C22   S    
C22   C24   S    
C1    O1    A    
C5    C26   A    
C2    O2    A    
C15   C21   S    
C8    C10   A    
C12   C18   S    
Cu1   Cu2   S    
Cu2   O2    S    
C20   O11   S    
