data_mof_unit_8779.cif
_audit_creation_date              2012-12-10T16:51:11-0500
_audit_creation_method            fapswitch 2.2
_symmetry_space_group_name_H-M    P1
_symmetry_Int_Tables_number       1
_space_group_crystal_system       triclinic
_cell_length_a                    27.825065
_cell_length_b                    8.647937
_cell_length_c                    7.433342
_cell_angle_alpha                 103.300467
_cell_angle_beta                  93.217261
_cell_angle_gamma                 92.541942
_cell_volume                      1734.93868813

loop_
_atom_site_label
_atom_site_type_symbol
_atom_type_description
_atom_site_fract_x
_atom_site_fract_y
_atom_site_fract_z
_atom_type_partial_charge
C1    C     C_R   0.498535 0.199554 0.452931 0.883035
C2    C     C_R   0.501465 0.800446 0.547069 0.881451
C3    C     C_R   0.101825 0.504471 0.497339 -0.053594
C4    C     C_R   0.898289 0.504296 0.493922 -0.049002
C5    C     C_R   0.124221 0.369315 0.402704 -0.006565
C6    C     C_R   0.875828 0.648631 0.552061 -0.015690
C7    C     C_R   0.095979 0.236950 0.304185 -0.204258
C8    C     C_R   0.903623 0.791694 0.595041 -0.205621
C9    C     C_R   0.130748 0.637902 0.594662 -0.096785
C10   C     C_R   0.869556 0.361707 0.440447 -0.090325
C11   C     C_R   0.354351 0.496935 0.511284 -0.162531
C12   C     C_R   0.645772 0.505675 0.488994 -0.156374
C13   C     C_R   0.971333 0.357450 0.422094 -0.055585
C14   C     C_R   0.028726 0.647776 0.577697 -0.041883
C15   C     C_R   0.977550 0.648808 0.556465 0.045279
C16   C     C_R   0.022321 0.363902 0.407716 0.069823
C17   C     C_R   0.949292 0.503037 0.491338 0.004780
C18   C     C_R   0.050739 0.505435 0.495124 0.004265
C19   C     C_R   0.941294 0.212355 0.371870 0.390892
C20   C     C_R   0.058837 0.782419 0.679033 0.429568
C21   C     C_R   0.891331 0.218035 0.387118 -0.245307
C22   C     C_R   0.109143 0.771914 0.689482 -0.258920
C23   C     C_R   0.407410 0.497504 0.503856 0.856637
C24   C     C_R   0.592620 0.502823 0.496127 0.855478
C25   C     C_R   0.046227 0.235112 0.305093 -0.169855
C26   C     C_R   0.953289 0.791621 0.591897 -0.136480
C27   C     C_2   0.497849 0.031306 0.426586 -0.342099
C28   C     C_2   0.502151 0.968694 0.573414 -0.341543
C29   C     C_R   0.174657 0.370508 0.406625 0.508081
C30   C     C_R   0.825623 0.646991 0.559410 0.527182
C31   C     C_R   0.181199 0.633784 0.597079 0.630389
C32   C     C_R   0.819170 0.365711 0.443420 0.615738
C33   C     C_R   0.277358 0.534718 0.360588 -0.167454
C34   C     C_R   0.722914 0.473102 0.642050 -0.174607
C35   C     C_R   0.327305 0.534801 0.363345 -0.208153
C36   C     C_R   0.672955 0.470157 0.637902 -0.211014
C37   C     C_R   0.329872 0.459370 0.659782 0.149383
C38   C     C_R   0.670169 0.543157 0.340081 0.143015
C39   C     C_R   0.279319 0.461328 0.656968 0.449157
C40   C     C_R   0.720945 0.545531 0.344777 0.442216
C41   C     C_R   0.253366 0.499509 0.507201 0.219731
C42   C     C_R   0.746928 0.509609 0.496219 0.229954
Cu1   Cu    Cu3+1 0.505380 0.517380 0.684380 1.011919
Cu2   Cu    Cu3+1 0.494620 0.482620 0.315620 1.012460
H1    H     H_    0.465731 0.367785 0.947637 0.258071
H2    H     H_    0.534189 0.632421 0.052376 0.258149
H3    H     H_    0.112204 0.133694 0.224535 0.187869
H4    H     H_    0.887057 0.905005 0.627409 0.193271
H5    H     H_    0.655452 0.437082 0.750896 0.231076
H6    H     H_    0.344880 0.566620 0.249686 0.229372
H7    H     H_    0.743094 0.444612 0.757890 0.198444
H8    H     H_    0.257200 0.563963 0.245154 0.199451
H9    H     H_    0.869286 0.108009 0.361498 0.184351
H10   H     H_    0.131699 0.869646 0.774269 0.177724
H11   H     H_    0.027647 0.133337 0.215106 0.208590
H12   H     H_    0.971541 0.905902 0.607281 0.237868
H13   H     H_    0.493817 0.958782 0.285526 0.182347
H14   H     H_    0.506182 0.041218 0.714475 0.182717
N1    N     N_R   0.201930 0.501486 0.503347 -0.437991
N2    N     N_R   0.798376 0.507323 0.500446 -0.436043
N3    N     N_2   0.486510 0.456430 0.038510 -0.193425
N4    N     N_2   0.513490 0.543570 0.961490 -0.192873
O1    O     O_R   0.503500 0.286120 0.619780 -0.586917
O2    O     O_R   0.496500 0.713880 0.380220 -0.587786
O3    O     O_R   0.494410 0.256780 0.308360 -0.583090
O4    O     O_R   0.505590 0.743220 0.691640 -0.583722
O5    O     O_R   0.434810 0.514700 0.655690 -0.550036
O6    O     O_R   0.565190 0.485300 0.344310 -0.547884
O7    O     O_R   0.425720 0.485350 0.344280 -0.565883
O8    O     O_R   0.574280 0.514650 0.655720 -0.565681
O9    O     O_2   0.196345 0.241338 0.316427 -0.562791
O10   O     O_2   0.804199 0.783644 0.625361 -0.563713
O11   O     O_2   0.791135 0.229587 0.388580 -0.537141
O12   O     O_2   0.209355 0.761108 0.691089 -0.532264
Br1   Br    Br    0.362597 0.397022 0.864459 -0.534820
Br2   Br    Br    0.636544 0.593781 0.129697 -0.549020
O13   O     O_3   0.255163 0.438411 0.807268 -0.568863
C43   C     C_3   0.240738 0.275518 0.782622 0.114083
H15   H     H_    0.266999 0.219423 0.862169 0.210509
H16   H     H_    0.238247 0.206307 0.635479 0.168274
C44   C     C_3   0.191507 0.261987 0.858751 -0.741042
H17   H     H_    0.163647 0.305200 0.772473 0.220443
H18   H     H_    0.181970 0.135832 0.857890 0.217687
H19   H     H_    0.192074 0.334769 0.002796 0.275115
O14   O     O_3   0.745346 0.564338 0.192967 -0.575912
C45   C     C_3   0.753484 0.727928 0.197044 0.110825
H20   H     H_    0.754630 0.807260 0.338679 0.187521
H21   H     H_    0.724537 0.765874 0.110634 0.204742
C46   C     C_3   0.801209 0.752816 0.114074 -0.737190
H22   H     H_    0.800528 0.679739 0.969940 0.258366
H23   H     H_    0.807473 0.880172 0.112327 0.227445
H24   H     H_    0.831341 0.717692 0.197599 0.231914
O15   O     O_3   0.960855 0.064046 0.339171 -0.618996
C47   C     C_3   0.942749 0.968251 0.164826 0.030949
H25   H     H_    0.945111 0.034621 0.053288 0.158142
H26   H     H_    0.904798 0.924817 0.169186 0.155918
C48   C     C_3   0.972106 0.821729 0.114163 -0.721670
H27   H     H_    0.967452 0.746010 0.214291 0.237285
H28   H     H_    0.959485 0.750568 0.974048 0.224545
H29   H     H_    0.010965 0.856598 0.114619 0.263308
O16   O     O_3   0.038938 0.914321 0.788063 -0.614376
C49   C     C_3   0.061869 0.059778 0.770736 0.031645
H30   H     H_    0.092360 0.094902 0.877452 0.158395
H31   H     H_    0.075382 0.052211 0.630547 0.167795
C50   C     C_3   0.026675 0.191816 0.804164 -0.777459
H32   H     H_    0.009374 0.197927 0.935816 0.237871
H33   H     H_    0.046142 0.308044 0.810255 0.216666
H34   H     H_    0.998112 0.170452 0.690223 0.261055

loop_
_geom_bond_atom_site_label_1
_geom_bond_atom_site_label_2
_ccdc_geom_bond_type
C38   C40   A    
O15   C47   S    
C8    C26   A    
C23   O7    A    
C34   C42   A    
C44   H19   S    
C48   H27   S    
C24   O8    A    
C39   C41   A    
C38   Br2   S    
O13   C43   S    
Cu2   O2    S    
C33   H8    S    
C50   H33   S    
C34   H7    S    
O16   C49   S    
H2    N4    S    
C39   O13   S    
C19   C21   A    
C43   H16   S    
C9    C22   A    
C31   N1    A    
C49   C50   S    
C23   O5    A    
C11   C37   A    
C14   C18   A    
C44   H18   S    
C47   H25   S    
C29   N1    A    
C30   N2    A    
C1    O3    A    
C12   C36   A    
C19   O15   S    
H1    N3    S    
C40   C42   A    
C37   Br1   S    
C22   H10   S    
Cu2   O3    S    
C49   H30   S    
C1    O1    A    
C3    C18   A    
C48   H28   S    
C2    O2    A    
C44   H17   S    
C5    C29   A    
C10   C21   A    
C50   H34   S    
C13   C19   A    
C45   H21   S    
Cu1   O1    S    
C14   C20   A    
C41   N1    S    
C4    C6    A    
C27   H13   S    
C42   N2    S    
C32   O11   S    
C5    C7    A    
C9    C31   A    
C45   H20   S    
C15   C26   A    
C6    C8    A    
C20   O16   S    
C47   C48   S    
C3    C5    A    
O14   C45   S    
C7    H3    S    
C40   O14   S    
C49   H31   S    
Cu1   Cu2   S    
C8    H4    S    
C3    C9    A    
C35   H6    S    
Cu2   O7    S    
C46   H24   S    
C47   H26   S    
C4    C17   A    
C16   C18   A    
C6    C30   A    
C20   C22   A    
Cu1   O8    S    
Cu2   O6    S    
C46   H23   S    
C32   N2    A    
C4    C10   A    
C48   H29   S    
C16   C25   A    
C15   C17   A    
C43   H15   S    
C25   H11   S    
C2    O4    A    
C45   C46   S    
C26   H12   S    
C30   O10   S    
C28   H14   S    
Cu2   N3    S    
C50   H32   S    
C12   C24   S    
C7    C25   A    
C13   C17   A    
C33   C41   A    
C11   C35   A    
C37   C39   A    
C21   H9    S    
C43   C44   S    
Cu1   O4    S    
C11   C23   S    
C33   C35   A    
C34   C36   A    
C12   C38   A    
N3    N4    D    
C31   O12   S    
C24   O6    A    
C10   C32   A    
Cu1   O5    S    
C13   C16   A    
C27   C28   D    
C1    C27   S    
C14   C15   A    
C2    C28   S    
C46   H22   S    
C36   H5    S    
Cu1   N4    S    
C29   O9    S    
