data_mof_unit_16969.cif
_audit_creation_date              2012-12-10T16:50:03-0500
_audit_creation_method            fapswitch 2.2
_symmetry_space_group_name_H-M    P1
_symmetry_Int_Tables_number       1
_space_group_crystal_system       triclinic
_cell_length_a                    7.90944
_cell_length_b                    8.539412
_cell_length_c                    10.586404
_cell_angle_alpha                 91.739218
_cell_angle_beta                  84.762724
_cell_angle_gamma                 93.692743
_cell_volume                      710.347645399

loop_
_atom_site_label
_atom_site_type_symbol
_atom_type_description
_atom_site_fract_x
_atom_site_fract_y
_atom_site_fract_z
_atom_type_partial_charge
C1    C     C_R   0.545258 0.794098 0.496206 0.921624
C2    C     C_R   0.454685 0.205865 0.502791 0.971664
C3    C     C_R   0.501642 0.510997 0.260862 0.881843
C4    C     C_R   0.225781 0.701137 0.912248 0.173442
C5    C     C_R   0.163588 0.831156 0.982081 -0.269794
C6    C     C_R   0.205562 0.862090 0.106121 0.256178
C7    C     C_R   0.305727 0.758143 0.160557 -0.240867
C8    C     C_R   0.385318 0.640195 0.085005 0.038465
C9    C     C_3   0.720324 0.828907 0.836019 -0.805963
C10   C     C_3   0.052322 0.474143 0.847635 -0.661210
C11   C     C_3   0.185968 0.144181 0.128750 -0.780362
C12   C     C_R   0.363023 0.625417 0.954805 0.045147
C13   C     C_R   0.497892 0.557195 0.875469 -0.142972
C14   C     C_R   0.654105 0.564572 0.926055 0.214639
C15   C     C_R   0.648717 0.513438 0.048908 -0.320614
C16   C     C_R   0.507246 0.548614 0.130152 -0.114113
C17   C     C_2   0.568715 0.957983 0.494021 -0.370896
C18   C     C_2   0.431131 0.041879 0.503650 -0.394653
C19   C     C_R   0.500108 0.516534 0.740474 0.866532
H1    H     H_    0.988899 0.628584 0.585884 0.192681
H2    H     H_    0.624218 0.884858 0.902871 0.249552
H3    H     H_    0.666795 0.800028 0.744579 0.246783
H4    H     H_    0.053203 0.705208 0.776522 0.224470
H5    H     H_    0.151162 0.387480 0.845518 0.231801
H6    H     H_    0.961221 0.435357 0.777588 0.242629
H7    H     H_    0.987113 0.472218 0.944338 0.202386
H8    H     H_    0.148697 0.985944 0.275108 0.220380
H9    H     H_    0.124565 0.235142 0.191057 0.237073
H10   H     H_    0.143759 0.154020 0.032282 0.237786
H11   H     H_    0.326237 0.167275 0.125291 0.237329
H12   H     H_    0.072216 0.901182 0.943738 0.147034
H13   H     H_    0.335205 0.780741 0.257449 0.162609
H14   H     H_    0.763637 0.481316 0.086918 0.171085
H15   H     H_    0.698739 0.008984 0.485086 0.184051
H16   H     H_    0.301111 0.990833 0.512454 0.173735
H17   H     H_    0.010648 0.374740 0.409454 0.188522
H18   H     H_    0.853160 0.719805 0.962506 0.245417
H19   H     H_    0.830323 0.914794 0.816445 0.220830
N1    N     N_2   0.950330 0.457950 0.466250 -0.179765
N2    N     N_2   0.049670 0.542050 0.533750 -0.175467
N3    N     N_2   0.776499 0.689518 0.891120 -0.302593
N4    N     N_2   0.126887 0.630938 0.818732 -0.265421
N5    N     N_2   0.137380 0.990272 0.178949 -0.301247
O1    O     O_R   0.389250 0.738570 0.508280 -0.621906
O2    O     O_R   0.678390 0.711630 0.486650 -0.629058
O3    O     O_R   0.355400 0.513470 0.694050 -0.587688
O4    O     O_R   0.644540 0.486530 0.672420 -0.609251
O5    O     O_R   0.321610 0.288370 0.513350 -0.625941
O6    O     O_R   0.610750 0.261430 0.491720 -0.607808
O7    O     O_R   0.355460 0.513470 0.327580 -0.628555
O8    O     O_R   0.644600 0.486530 0.305950 -0.616331
Zn1   Zn    Zn3+2 0.306930 0.517990 0.514440 0.929517
Zn2   Zn    Zn3+2 0.693070 0.482010 0.485560 0.937273

loop_
_geom_bond_atom_site_label_1
_geom_bond_atom_site_label_2
_ccdc_geom_bond_type
O7    Zn1   S    
C11   N5    S    
C6    C7    A    
C2    O6    A    
H8    N5    S    
C10   N4    S    
C18   H16   S    
C1    O1    A    
C9    N3    S    
C8    C12   A    
O4    Zn2   S    
C1    O2    A    
O1    Zn1   S    
C17   C18   D    
C19   O3    A    
O2    Zn2   S    
C7    C8    A    
C8    C16   A    
C13   C14   A    
C10   H7    S    
N1    Zn2   S    
H4    N4    S    
C4    N4    S    
C11   H9    S    
C14   N3    S    
O6    Zn2   S    
C10   H6    S    
C9    H19   S    
C2    O5    A    
C3    O7    A    
C6    N5    S    
H18   N3    S    
C5    C6    A    
H1    N2    S    
C19   O4    A    
C9    H3    S    
C4    C12   A    
C17   H15   S    
C13   C19   S    
C15   C16   A    
C9    H2    S    
O3    Zn1   S    
O5    Zn1   S    
C12   C13   A    
C11   H10   S    
N1    N2    D    
C3    O8    A    
C14   C15   A    
C4    C5    A    
C5    H12   S    
C7    H13   S    
C10   H5    S    
N2    Zn1   S    
C1    C17   S    
C15   H14   S    
H17   N1    S    
C3    C16   S    
C11   H11   S    
C2    C18   S    
O8    Zn2   S    
