data_mof_unit_5666.cif
_audit_creation_date              2012-12-11T14:21:09-0500
_audit_creation_method            fapswitch 2.2
_symmetry_space_group_name_H-M    P1
_symmetry_Int_Tables_number       1
_space_group_crystal_system       triclinic
_cell_length_a                    21.942202
_cell_length_b                    7.203955
_cell_length_c                    14.870554
_cell_angle_alpha                 90.044921
_cell_angle_beta                  106.747945
_cell_angle_gamma                 89.97904
_cell_volume                      2250.88883425

loop_
_atom_site_label
_atom_site_type_symbol
_atom_type_description
_atom_site_fract_x
_atom_site_fract_y
_atom_site_fract_z
_atom_type_partial_charge
O1    O     O_R   0.584770 0.505770 0.002090 -0.538443
O2    O     O_R   0.415230 0.005770 0.997910 -0.556801
O3    O     O_R   0.467060 0.173340 0.861950 -0.546659
O4    O     O_R   0.532940 0.673340 0.138050 -0.532148
C1    C     C_R   0.455436 0.344386 0.825747 0.720193
C2    C     C_R   0.544416 0.844349 0.174183 0.733092
O5    O     O_R   0.587510 0.175890 0.993210 -0.525190
O6    O     O_R   0.412490 0.675890 0.006790 -0.510778
O7    O     O_R   0.536540 0.008150 0.130100 -0.545003
O8    O     O_R   0.463460 0.508150 0.869900 -0.539764
C3    C     C_R   0.613009 0.344054 0.996604 0.756876
C4    C     C_R   0.387023 0.844213 0.003048 0.766223
O9    O     O_3   0.483140 0.340040 0.044760 -0.378765
O10   O     O_3   0.516860 0.840040 0.955240 -0.378587
V1    V     V_3+5 0.503130 0.064190 0.991700 1.418365
V2    V     V_3+5 0.496870 0.564190 0.008300 1.462695
C5    C     C_2   0.216866 0.733312 0.022111 -0.204229
C6    C     C_2   0.786407 0.226990 0.994866 -0.168107
C7    C     C_2   0.181201 0.888456 0.001172 -0.351503
C8    C     C_2   0.818154 0.387561 0.995796 -0.371969
H1    H     H_    0.202155 0.019067 0.989627 0.128700
H2    H     H_    0.793173 0.519018 0.986743 0.133401
C9    C     C_2   0.286266 0.719016 0.029402 0.313299
C10   C     C_2   0.715633 0.211008 0.978492 0.333265
C11   C     C_2   0.318730 0.855048 0.999583 -0.334674
C12   C     C_2   0.681548 0.353731 0.000275 -0.374634
C13   C     C_R   0.926469 0.886517 0.723945 -0.018445
C14   C     C_R   0.072780 0.387594 0.276286 -0.019445
C15   C     C_R   0.571847 0.851967 0.276244 -0.063815
C16   C     C_R   0.427318 0.353765 0.723741 -0.059424
C17   C     C_R   0.937376 0.883464 0.567428 -0.139420
C18   C     C_R   0.061698 0.399469 0.432727 -0.138980
C19   C     C_R   0.964910 0.884246 0.664132 -0.200601
C20   C     C_R   0.034387 0.402289 0.335924 -0.200081
C21   C     C_R   0.860293 0.884094 0.687333 -0.186766
C22   C     C_R   0.138757 0.374740 0.313243 -0.188614
C23   C     C_R   0.830661 0.879692 0.589148 0.027814
C24   C     C_R   0.168276 0.379626 0.411414 0.028012
C25   C     C_R   0.870605 0.884259 0.528777 0.100759
C26   C     C_R   0.128291 0.386052 0.471646 0.100569
C27   C     C_R   0.762998 0.870592 0.549553 0.052191
C28   C     C_R   0.235940 0.379868 0.451057 0.052788
C29   C     C_R   0.735994 0.873735 0.449860 0.032748
C30   C     C_R   0.262848 0.373374 0.550693 0.032742
C31   C     C_R   0.777528 0.881723 0.392907 -0.261403
C32   C     C_R   0.221300 0.376257 0.607674 -0.262134
C33   C     C_R   0.843513 0.887357 0.430899 0.265229
C34   C     C_R   0.155291 0.382745 0.569596 0.266594
C35   C     C_R   0.721458 0.854097 0.606389 -0.166436
C36   C     C_R   0.277614 0.392504 0.394293 -0.168774
C37   C     C_R   0.656105 0.840336 0.567541 -0.193481
C38   C     C_R   0.343098 0.396030 0.433134 -0.193901
C39   C     C_R   0.629039 0.844221 0.470666 0.104549
C40   C     C_R   0.370069 0.384184 0.529839 0.102851
C41   C     C_R   0.668226 0.864571 0.410273 0.108362
C42   C     C_R   0.330647 0.369131 0.590175 0.110064
C43   C     C_R   0.562795 0.825390 0.433888 -0.243551
C44   C     C_R   0.436541 0.388511 0.566488 -0.240801
C45   C     C_R   0.533845 0.827720 0.336886 0.284846
C46   C     C_R   0.465481 0.373833 0.663114 0.282554
C47   C     C_R   0.637790 0.872339 0.312496 -0.283669
C48   C     C_R   0.360941 0.350778 0.687669 -0.285722
H3    H     H_    0.663680 0.891510 0.261735 0.116201
H4    H     H_    0.334636 0.332716 0.738031 0.106024
H5    H     H_    0.626406 0.825209 0.614120 0.118572
H6    H     H_    0.373003 0.408186 0.386687 0.117503
H7    H     H_    0.968848 0.882017 0.523168 0.158430
H8    H     H_    0.030266 0.410016 0.476830 0.158876
H9    H     H_    0.016268 0.884161 0.692399 0.109457
H10   H     H_    0.983225 0.415117 0.307471 0.109510
H11   H     H_    0.833701 0.888472 0.737879 0.089756
H12   H     H_    0.165365 0.361122 0.263005 0.091315
H13   H     H_    0.760500 0.882143 0.317479 0.129499
H14   H     H_    0.238496 0.377302 0.683136 0.126090
H15   H     H_    0.737723 0.846878 0.681793 0.117650
H16   H     H_    0.261366 0.405600 0.319072 0.115025
H17   H     H_    0.533384 0.807666 0.480710 0.116384
H18   H     H_    0.466268 0.402549 0.519876 0.120188
O11   O     O_R   0.036450 0.233070 0.130130 -0.538806
O12   O     O_R   0.963550 0.733070 0.869870 -0.536623
O13   O     O_R   0.912470 0.560570 0.006790 -0.544631
O14   O     O_R   0.087530 0.060570 0.993210 -0.545521
C49   C     C_R   0.886776 0.392249 0.001594 0.753424
C50   C     C_R   0.113222 0.892335 0.998639 0.753074
O15   O     O_R   0.032920 0.562940 0.138050 -0.538034
O16   O     O_R   0.967080 0.062940 0.861950 -0.539838
O17   O     O_R   0.084790 0.730500 0.002090 -0.536747
O18   O     O_R   0.915210 0.230500 0.997910 -0.538300
C51   C     C_R   0.044693 0.394532 0.174595 0.681500
C52   C     C_R   0.955000 0.894412 0.825485 0.683191
O19   O     O_3   0.016820 0.396170 0.955260 -0.377627
O20   O     O_3   0.983180 0.896170 0.044740 -0.379140
V3    V     V_3+5 0.996880 0.672090 0.008300 1.413393
V4    V     V_3+5 0.003120 0.172090 0.991700 1.408020
H19   H     H_    0.194702 0.607545 0.038000 0.151068
H20   H     H_    0.813527 0.099413 0.002097 0.156909
N1    N     N_2   0.318692 0.555946 0.072134 -0.488458
H21   H     H_    0.310621 0.526291 0.135598 0.240048
C53   C     C_3   0.308277 0.395180 0.011231 -0.499330
H22   H     H_    0.339225 0.280077 0.047738 0.197357
H23   H     H_    0.320471 0.426672 0.945327 0.197256
H24   H     H_    0.257837 0.349572 0.993759 0.155348
N2    N     N_2   0.683386 0.043078 0.939366 -0.482285
H25   H     H_    0.643862 0.063215 0.882773 0.258224
C54   C     C_3   0.719489 0.879217 0.930875 -0.578808
H26   H     H_    0.686313 0.762100 0.904032 0.202261
H27   H     H_    0.751220 0.838697 0.000750 0.194414
H28   H     H_    0.747490 0.904305 0.880573 0.184054
H29   H     H_    0.294640 0.981417 0.969786 0.087775
H30   H     H_    0.705317 0.482558 0.027417 0.110557
N3    N     N_2   0.882593 0.893895 0.369213 -0.527870
H31   H     H_    0.864972 0.817933 0.308387 0.255837
C55   C     C_3   0.900921 0.079405 0.350241 -0.565156
H32   H     H_    0.858280 0.160440 0.311699 0.196243
H33   H     H_    0.934117 0.071291 0.306380 0.203811
H34   H     H_    0.925537 0.152260 0.416655 0.205316
N4    N     N_2   0.116175 0.388801 0.631217 -0.527182
H35   H     H_    0.135558 0.464235 0.691738 0.257034
C56   C     C_3   0.093562 0.209112 0.650926 -0.568589
H36   H     H_    0.134201 0.121123 0.689963 0.192859
H37   H     H_    0.067380 0.137908 0.584782 0.205530
H38   H     H_    0.060574 0.227358 0.694577 0.205709
N5    N     N_2   0.466915 0.800623 0.300761 -0.527127
H39   H     H_    0.448129 0.716595 0.342284 0.254012
C57   C     C_3   0.430597 0.969783 0.274444 -0.556717
H40   H     H_    0.435148 0.058200 0.337359 0.194259
H41   H     H_    0.379605 0.934863 0.242711 0.197935
H42   H     H_    0.447117 0.048598 0.221775 0.206668
N6    N     N_2   0.532908 0.381315 0.698892 -0.534548
H43   H     H_    0.553054 0.479947 0.665995 0.255217
C58   C     C_3   0.563560 0.202802 0.701899 -0.578900
H44   H     H_    0.554203 0.144882 0.629851 0.200017
H45   H     H_    0.545943 0.104311 0.746172 0.207851
H46   H     H_    0.615757 0.219399 0.732423 0.197521

loop_
_geom_bond_atom_site_label_1
_geom_bond_atom_site_label_2
_ccdc_geom_bond_type
O14   V4    S    
C6    H20   S    
N3    H31   S    
O1    C3    A    
C50   O17   A    
C58   H46   S    
O2    C4    A    
C2    O7    A    
N1    H21   S    
C38   H6    S    
N5    H39   S    
C9    C11   D    
C13   C19   A    
O5    C3    A    
C54   H27   S    
C5    C9    S    
C6    C10   S    
C7    H1    S    
C10   C12   D    
C24   C28   A    
N4    C56   S    
C43   C45   A    
C44   C46   A    
O17   V3    S    
C7    C50   S    
C13   C52   S    
C31   H13   S    
C37   H5    S    
C47   H3    S    
C48   H4    S    
O16   V4    S    
N1    C53   S    
O15   V3    S    
N2    C54   S    
C15   C45   A    
C30   C32   A    
C35   C37   A    
C16   C46   A    
C57   H42   S    
C36   C38   A    
C17   C19   A    
C14   C51   S    
C5    H19   S    
C20   H10   S    
C11   H29   S    
C18   H8    S    
C55   H34   S    
C31   C33   A    
C49   O18   A    
C21   H11   S    
O6    V2    S    
C15   C47   A    
O12   C52   A    
C27   C29   A    
C28   C30   A    
C27   C35   A    
O13   C49   A    
C38   C40   A    
O18   V4    S    
C39   C41   A    
C45   N5    S    
C54   H28   S    
C40   C42   A    
C43   H17   S    
O11   V4    S    
O4    C2    A    
O16   C52   A    
O15   C51   A    
N6    H43   S    
C3    C12   S    
C13   C21   A    
C37   C39   A    
C18   C20   A    
O4    V2    S    
C17   H7    S    
C36   H16   S    
O13   V3    S    
C30   C42   A    
C53   H22   S    
O6    C4    A    
C53   H24   S    
C35   H15   S    
N3    C55   S    
O1    V2    S    
O2    V1    S    
C29   C31   A    
C56   H37   S    
C28   C36   A    
C29   C41   A    
C9    N1    S    
C8    H2    S    
O14   C50   A    
C16   C48   A    
C57   H40   S    
C42   C48   A    
C8    C49   S    
C58   H44   S    
O3    C1    A    
C32   H14   S    
O3    V1    S    
C25   C33   A    
C55   H32   S    
C40   C44   A    
C56   H38   S    
C26   C34   A    
C12   H30   S    
C39   C43   A    
C21   C23   A    
C58   H45   S    
C46   N6    S    
C56   H36   S    
C34   N4    S    
C19   H9    S    
C54   H26   S    
C4    C11   S    
C10   N2    S    
C22   C24   A    
O7    V1    S    
C1    O8    A    
C23   C25   A    
O8    V2    S    
N4    H35   S    
O19   V4    S    
C24   C26   A    
C33   N3    S    
C41   C47   A    
O5    V1    S    
O20   V3    S    
C5    C7    D    
C17   C25   A    
C6    C8    D    
C18   C26   A    
C23   C27   A    
O11   C51   A    
N5    C57   S    
C44   H18   S    
C14   C20   A    
C32   C34   A    
C2    C15   S    
C14   C22   A    
C1    C16   S    
O9    V2    S    
N2    H25   S    
C57   H41   S    
O10   V1    S    
C55   H33   S    
O12   V3    S    
C53   H23   S    
C22   H12   S    
N6    C58   S    
