data_mof_unit_21484.cif
_audit_creation_date              2012-12-11T17:47:32-0500
_audit_creation_method            fapswitch 2.2
_symmetry_space_group_name_H-M    P1
_symmetry_Int_Tables_number       1
_space_group_crystal_system       triclinic
_cell_length_a                    14.920649
_cell_length_b                    14.939305
_cell_length_c                    15.149212
_cell_angle_alpha                 110.191609
_cell_angle_beta                  108.782239
_cell_angle_gamma                 108.829873
_cell_volume                      2618.47781138

loop_
_atom_site_label
_atom_site_type_symbol
_atom_type_description
_atom_site_fract_x
_atom_site_fract_y
_atom_site_fract_z
_atom_type_partial_charge
C1    C     C_R   0.905821 0.193033 0.989674 0.068712
C2    C     C_R   0.018354 0.739997 0.929169 -0.108886
C3    C     C_R   0.292679 0.869658 0.293708 -0.149291
C4    C     C_R   0.675233 0.196139 0.676117 -0.042447
C5    C     C_R   0.327043 0.499364 0.047712 -0.130577
C6    C     C_R   0.706505 0.497893 0.081570 -0.124829
C7    C     C_R   0.037679 0.500338 0.324433 -0.129813
C8    C     C_R   0.081603 0.503427 0.709605 0.034175
C9    C     C_R   0.946578 0.864688 0.842892 -0.165755
C10   C     C_R   0.842082 0.961375 0.926848 -0.112205
C11   C     C_R   0.071217 0.013883 0.669230 -0.093660
C12   C     C_R   0.599649 0.798585 0.982144 -0.086387
C13   C     C_R   0.999441 0.986567 0.708089 -0.161364
C14   C     C_R   0.705709 0.848865 0.000826 -0.094871
C15   C     C_R   0.700793 0.296477 0.216408 -0.287795
C16   C     C_R   0.381132 0.863185 0.868338 -0.427854
C17   C     C_R   0.802801 0.369967 0.307418 0.528280
C18   C     C_R   0.330152 0.768185 0.767254 0.531551
C19   C     C_R   0.876613 0.331826 0.338640 -0.054141
C20   C     C_R   0.216427 0.710791 0.707007 0.122352
C21   C     C_R   0.840872 0.219157 0.285730 -0.204084
C22   C     C_R   0.157019 0.760563 0.734979 -0.356273
C23   C     C_R   0.293293 0.806118 0.203857 -0.113399
C24   C     C_R   0.684954 0.235219 0.777670 -0.222667
C25   C     C_R   0.739682 0.147450 0.193559 -0.116080
C26   C     C_R   0.208271 0.855385 0.834136 -0.170673
C27   C     C_R   0.670959 0.186201 0.155991 0.509272
C28   C     C_R   0.318462 0.902596 0.904476 0.665009
C29   C     C_R   0.019920 0.406436 0.518915 -0.244001
C30   C     C_R   0.149042 0.588400 0.519192 -0.176280
C31   C     C_R   0.094948 0.503421 0.617339 0.053967
C32   C     C_R   0.062254 0.496734 0.423197 0.053796
C33   C     C_R   0.157940 0.598051 0.616342 0.100432
C34   C     C_R   0.991307 0.408630 0.424665 0.016177
C35   C     C_R   0.038443 0.010399 0.815355 -0.032662
C36   C     C_R   0.736244 0.797394 0.928072 0.031062
C37   C     C_R   0.222754 0.083525 0.843291 0.620857
C38   C     C_R   0.554546 0.639913 0.821731 0.568441
C39   C     C_R   0.200126 0.090576 0.237455 0.547744
C40   C     C_R   0.648545 0.866255 0.662040 0.418187
C41   C     C_R   0.283510 0.072564 0.287929 -0.280957
C42   C     C_R   0.623671 0.944149 0.647090 -0.301312
C43   C     C_R   0.318541 0.092298 0.394029 -0.157132
C44   C     C_R   0.632643 0.967716 0.567509 -0.134529
C45   C     C_R   0.225421 0.408224 0.970078 0.514091
C46   C     C_R   0.794886 0.589128 0.105550 0.458163
C47   C     C_R   0.269602 0.133998 0.451897 0.539432
C48   C     C_R   0.677677 0.919769 0.508749 0.509536
C49   C     C_R   0.188490 0.155232 0.402281 -0.335245
C50   C     C_R   0.706740 0.845440 0.527320 -0.257076
C51   C     C_R   0.151770 0.132494 0.294959 0.341604
C52   C     C_R   0.692662 0.817379 0.602606 0.350769
C53   C     C_R   0.499207 0.143139 0.536379 -0.251883
C54   C     C_R   0.469320 0.933737 0.427473 -0.218638
C55   C     C_R   0.577126 0.114578 0.578167 0.101604
C56   C     C_R   0.390441 0.960119 0.386761 0.051902
C57   C     C_R   0.562492 0.009379 0.523451 0.103247
C58   C     C_R   0.403263 0.064865 0.439800 0.077199
C59   C     C_R   0.182490 0.060879 0.735922 -0.249156
C60   C     C_R   0.523860 0.695044 0.892495 -0.196275
C61   C     C_R   0.831455 0.863830 0.923854 0.057829
C62   C     C_R   0.962436 0.964508 0.850794 0.076286
C63   C     C_R   0.150715 0.062137 0.883494 -0.139775
C64   C     C_R   0.661515 0.690395 0.841901 -0.261959
C65   C     C_R   0.896912 0.823719 0.894810 0.013098
C66   C     C_R   0.914296 0.017791 0.900143 0.027449
C67   C     C_R   0.054016 0.591968 0.314085 -0.122942
C68   C     C_R   0.014747 0.411993 0.707275 -0.173879
C69   C     C_3   0.494537 0.407060 0.000852 0.335002
C70   C     C_3   0.546511 0.588891 0.169767 0.345234
C71   C     C_3   0.466917 0.495202 0.995493 0.287367
C72   C     C_3   0.576621 0.500978 0.176196 0.326114
C73   C     C_3   0.429974 0.498978 0.079911 -0.273477
C74   C     C_3   0.611761 0.496980 0.090278 -0.306672
C75   C     C_3   0.459887 0.410821 0.086508 0.338311
C76   C     C_3   0.581086 0.584841 0.084335 0.257539
C77   C     C_R   0.315175 0.591039 0.061037 0.555859
C78   C     C_R   0.705204 0.408445 0.012283 0.443301
C79   C     C_R   0.975519 0.410197 0.222207 0.536829
C80   C     C_R   0.111485 0.591347 0.803822 0.445107
C81   C     C_R   0.204846 0.804789 0.296227 0.536713
C82   C     C_R   0.777417 0.230588 0.686617 0.515599
C83   C     C_R   0.999272 0.196987 0.902866 -0.051598
C84   C     C_R   0.927574 0.744018 0.021546 -0.086121
C85   C     C_R   0.941081 0.131940 0.931509 -0.044976
C86   C     C_R   0.939356 0.764815 0.941604 0.058629
N1    N     N_R   0.947560 0.293820 0.002910 -0.050224
N2    N     N_R   0.052440 0.706180 0.997090 -0.063234
N3    N     N_R   0.208960 0.706170 0.152110 -0.083925
N4    N     N_R   0.791040 0.293830 0.847890 -0.061194
N5    N     N_R   0.154330 0.443160 0.946140 -0.112859
N6    N     N_R   0.845670 0.556840 0.053860 -0.118428
N7    N     N_R   0.002190 0.556820 0.208880 -0.065732
N8    N     N_R   0.997810 0.443180 0.791120 -0.072189
N9    N     N_R   0.210550 0.556810 0.002910 -0.114211
N10   N     N_R   0.789450 0.443190 0.997090 -0.111072
N11   N     N_R   0.945970 0.443180 0.152110 -0.083364
N12   N     N_R   0.054030 0.556820 0.847890 -0.107661
N13   N     N_R   0.151530 0.706170 0.208880 -0.082318
N14   N     N_R   0.848470 0.293830 0.791120 -0.115234
N15   N     N_R   0.004980 0.293810 0.946140 -0.068470
N16   N     N_R   0.995020 0.706190 0.053860 -0.038188
Ni1   Ni    Ni4+2 0.869690 0.369690 0.000000 0.259404
Ni2   Ni    Ni4+2 0.130310 0.630310 0.000000 0.219347
Ni3   Ni    Ni4+2 0.001390 0.369680 0.869810 0.205166
Ni4   Ni    Ni4+2 0.998610 0.630320 0.130190 0.291691
H1    H     H_    0.842454 0.162299 0.008294 0.142210
H2    H     H_    0.046996 0.742522 0.873000 0.096628
H3    H     H_    0.040279 0.995508 0.586358 0.162501
H4    H     H_    0.575787 0.840344 0.036504 0.153004
O1    O     O_3   0.330742 0.121577 0.909056 -0.669384
H5    H     H_    0.367095 0.116112 0.864495 0.339779
O2    O     O_3   0.480924 0.540073 0.729342 -0.744225
H6    H     H_    0.407420 0.520535 0.721122 0.343773
O3    O     O_3   0.576534 0.115190 0.059322 -0.764829
H7    H     H_    0.534308 0.153084 0.046673 0.369018
O4    O     O_3   0.360567 0.982282 0.008976 -0.713347
H8    H     H_    0.425901 0.983087 0.054685 0.338136
H9    H     H_    0.645190 0.325885 0.192139 0.199201
H10   H     H_    0.467881 0.903231 0.919944 0.177330
O5    O     O_3   0.827078 0.477444 0.361810 -0.690755
H11   H     H_    0.891418 0.516045 0.433825 0.316506
O6    O     O_3   0.388552 0.728435 0.727656 -0.761359
H12   H     H_    0.466030 0.785071 0.773118 0.350368
H13   H     H_    0.894133 0.187907 0.311792 0.150179
H14   H     H_    0.069685 0.719929 0.685659 0.162354
H15   H     H_    0.715425 0.061835 0.149744 0.128208
H16   H     H_    0.160635 0.886056 0.861240 0.138889
H17   H     H_    0.966093 0.334110 0.514054 0.155358
H18   H     H_    0.200195 0.658504 0.518481 0.141842
H19   H     H_    0.913696 0.945808 0.654511 0.145330
H20   H     H_    0.762537 0.930741 0.068478 0.124102
O7    O     O_3   0.398676 0.320404 0.090308 -0.665216
H21   H     H_    0.382863 0.350244 0.149313 0.323533
O8    O     O_3   0.642686 0.677609 0.084542 -0.711642
H22   H     H_    0.655474 0.649700 0.022890 0.319861
H23   H     H_    0.345894 0.835527 0.173605 0.192846
H24   H     H_    0.620411 0.217065 0.797567 0.197090
H25   H     H_    0.181781 0.078043 0.965553 0.207271
H26   H     H_    0.682861 0.650179 0.783928 0.154346
O9    O     O_3   0.068718 0.149452 0.244944 -0.762437
H27   H     H_    0.043269 0.176963 0.295965 0.316684
O10   O     O_3   0.722952 0.742575 0.614936 -0.730047
H28   H     H_    0.726999 0.743807 0.681716 0.324056
O11   O     O_3   0.167974 0.065235 0.131784 -0.748092
H29   H     H_    0.108018 0.080669 0.105400 0.355451
O12   O     O_3   0.620350 0.834045 0.728236 -0.772743
H30   H     H_    0.592215 0.754166 0.694897 0.335240
H31   H     H_    0.320537 0.041287 0.243037 0.200287
H32   H     H_    0.584696 0.976437 0.688720 0.191827
O13   O     O_3   0.295124 0.152051 0.554790 -0.744916
H33   H     H_    0.335096 0.113871 0.572642 0.307923
O14   O     O_3   0.689422 0.938677 0.429032 -0.717973
H34   H     H_    0.672783 0.997500 0.428428 0.358015
H35   H     H_    0.151638 0.186975 0.447072 0.176003
H36   H     H_    0.740448 0.808175 0.482055 0.198500
H37   H     H_    0.513155 0.225582 0.579001 0.169045
H38   H     H_    0.455167 0.850717 0.386563 0.175973
H39   H     H_    0.982467 0.824524 0.804020 0.124267
H40   H     H_    0.791659 0.992076 0.948598 0.134703
O15   O     O_3   0.408105 0.490559 0.899663 -0.732407
H41   H     H_    0.437556 0.464258 0.852485 0.331105
O16   O     O_3   0.635549 0.505620 0.271904 -0.665861
H42   H     H_    0.592001 0.508048 0.309282 0.341956
O17   O     O_3   0.460237 0.311582 0.908001 -0.715669
H43   H     H_    0.491371 0.335528 0.866256 0.319196
O18   O     O_3   0.573982 0.683100 0.259788 -0.697783
H44   H     H_    0.652077 0.732165 0.289404 0.360873
O19   O     O_3   0.201256 0.302377 0.910390 -0.759788
H45   H     H_    0.269364 0.301196 0.920902 0.375682
O20   O     O_3   0.844262 0.692842 0.191801 -0.703448
H46   H     H_    0.804299 0.691281 0.232842 0.357797
H47   H     H_    0.096861 0.675825 0.377797 0.185853
H48   H     H_    0.997917 0.330060 0.659626 0.141419
O21   O     O_3   0.394245 0.696896 0.106554 -0.749070
H49   H     H_    0.460801 0.696445 0.108729 0.374044
O22   O     O_3   0.651533 0.302571 0.989415 -0.740873
H50   H     H_    0.607249 0.300110 0.025691 0.352587
O23   O     O_3   0.960061 0.306900 0.194617 -0.782632
H51   H     H_    0.017029 0.312195 0.255483 0.333746
O24   O     O_3   0.216565 0.675158 0.868887 -0.768987
H52   H     H_    0.223473 0.720737 0.938829 0.321426
O25   O     O_3   0.163066 0.838460 0.362023 -0.763257
H53   H     H_    0.216657 0.914827 0.419729 0.311576
O26   O     O_3   0.801169 0.189316 0.606539 -0.777242
H54   H     H_    0.871324 0.192138 0.641993 0.302708
H55   H     H_    0.015069 0.170345 0.836990 0.169438
H56   H     H_    0.873431 0.754262 0.052259 0.155366
H57   H     H_    0.236936 0.078157 0.703677 0.164880
H58   H     H_    0.441163 0.658911 0.877563 0.205153

loop_
_geom_bond_atom_site_label_1
_geom_bond_atom_site_label_2
_ccdc_geom_bond_type
C16   C28   A    
C39   C51   A    
C48   O14   S    
N8    Ni3   S    
C1    N1    A    
O17   H43   S    
N7    N11   A    
C11   H3    S    
C78   O22   S    
C84   N16   A    
O19   H45   S    
N5    Ni3   S    
C3    C23   A    
O1    H5    S    
O20   H46   S    
C66   C85   S    
C12   H4    S    
O11   H29   S    
O6    H12   S    
C39   C41   A    
C14   H20   S    
O24   H52   S    
C69   O17   S    
N14   Ni3   S    
C10   C66   A    
C74   C76   S    
N3    N13   A    
C60   H58   S    
C19   C21   A    
C84   C86   A    
C13   C35   A    
C28   O4    S    
C16   H10   S    
C14   C36   A    
C71   C76   S    
C4    C24   A    
C22   H14   S    
C41   H31   S    
C9    H39   S    
O3    H7    S    
N6    N10   A    
C46   O20   S    
C2    C86   A    
C69   C71   S    
O12   H30   S    
N2    Ni2   S    
N1    N15   A    
C51   O9    S    
O9    H27   S    
C29   H17   S    
O16   H42   S    
C78   N10   A    
C49   C51   A    
C81   O25   S    
C65   C86   S    
C3    C81   A    
C50   C52   A    
O13   H33   S    
C31   C33   A    
C2    N2    A    
C56   C58   A    
C6    C46   A    
C40   O12   S    
C18   O6    S    
C36   C64   A    
C48   C50   A    
C47   C49   A    
C77   O21   S    
N15   Ni3   S    
C41   C43   A    
C83   H55   S    
C42   C44   A    
C72   C75   S    
C11   C59   A    
N4    N14   A    
C37   C63   A    
C76   O8    S    
C49   H35   S    
C6    C74   S    
C38   C64   A    
C53   C55   A    
C1    C85   A    
C54   C56   A    
N11   Ni1   S    
C52   O10   S    
C70   C72   S    
C62   C66   A    
C82   O26   S    
C9    C62   A    
O8    H22   S    
C72   C74   S    
C50   H36   S    
O18   H44   S    
C71   C73   S    
C38   O2    S    
C68   H48   S    
C81   N13   A    
C24   H24   S    
C30   H18   S    
C5    C45   A    
C29   C34   A    
C77   N9    A    
C68   N8    A    
C24   N4    A    
C32   C34   A    
O25   H53   S    
N7    Ni4   S    
C54   H38   S    
C3    C56   S    
C42   H32   S    
C15   C27   A    
O21   H49   S    
C44   C57   S    
C29   C31   A    
C8    C80   A    
C39   O11   S    
C70   C73   S    
C23   N3    A    
C13   H19   S    
C69   C74   S    
C26   H16   S    
C80   O24   S    
O5    H11   S    
C37   C59   A    
C1    H1    S    
C38   C60   A    
C20   C33   S    
C17   O5    S    
C53   H37   S    
C83   C85   A    
C12   C14   A    
C8    C68   A    
C43   C47   A    
C55   C57   A    
N3    Ni2   S    
C70   C76   S    
O7    H21   S    
C79   O23   S    
C83   N15   A    
C84   H56   S    
C10   C61   A    
C73   C75   S    
C21   H13   S    
C36   C61   S    
C10   H40   S    
N9    Ni2   S    
C7    C79   A    
O2    H6    S    
C64   H26   S    
N6    Ni4   S    
C15   C17   A    
N13   Ni4   S    
C21   C25   A    
C46   N6    A    
C7    C32   S    
C71   O15   S    
C30   C33   A    
C80   N12   A    
C8    C31   S    
C82   N14   A    
C23   H23   S    
C20   C22   A    
C40   C42   A    
C19   C34   S    
C45   O19   S    
N2    N16   A    
C53   C58   A    
C75   O7    S    
C79   N11   A    
C63   H25   S    
C25   C27   A    
C26   C28   A    
O10   H28   S    
C25   H15   S    
N1    Ni1   S    
C4    C55   S    
C40   C52   A    
O4    H8    S    
C30   C32   A    
C11   C13   A    
O26   H54   S    
N10   Ni1   S    
O15   H41   S    
C67   H47   S    
N12   Ni2   S    
C2    H2    S    
C17   C19   A    
C72   O16   S    
C15   H9    S    
C69   C75   S    
C35   C62   S    
C18   C20   A    
C5    C73   S    
C45   N5    A    
C9    C65   A    
N4    Ni1   S    
C37   O1    S    
C6    C78   A    
C47   O13   S    
C7    C67   A    
O23   H51   S    
C12   C60   A    
C59   H57   S    
C61   C65   A    
C4    C82   A    
N5    N9    A    
C16   C18   A    
O22   H50   S    
C22   C26   A    
N16   Ni4   S    
C67   N7    A    
N8    N12   A    
C43   C58   S    
C35   C63   A    
O14   H34   S    
C70   O18   S    
C5    C77   A    
C44   C48   A    
C54   C57   A    
C27   O3    S    
