data_mof_unit_41290.cif
_audit_creation_date              2012-12-11T16:21:29-0500
_audit_creation_method            fapswitch 2.2
_symmetry_space_group_name_H-M    P1
_symmetry_Int_Tables_number       1
_space_group_crystal_system       triclinic
_cell_length_a                    7.262485
_cell_length_b                    37.347818
_cell_length_c                    40.846195
_cell_angle_alpha                 89.999924
_cell_angle_beta                  89.999713
_cell_angle_gamma                 90.000839
_cell_volume                      11079.0389313

loop_
_atom_site_label
_atom_site_type_symbol
_atom_type_description
_atom_site_fract_x
_atom_site_fract_y
_atom_site_fract_z
_atom_type_partial_charge
O1    O     O_R   0.564240 0.782760 0.216890 -0.539010
O2    O     O_R   0.435760 0.217240 0.783110 -0.505656
O3    O     O_R   0.435760 0.217240 0.716890 -0.539031
O4    O     O_R   0.564240 0.782760 0.283110 -0.505667
O5    O     O_R   0.064240 0.717240 0.283110 -0.539026
O6    O     O_R   0.935760 0.282760 0.716890 -0.505609
O7    O     O_R   0.935760 0.282760 0.783110 -0.539021
O8    O     O_R   0.064240 0.717240 0.216890 -0.505692
O9    O     O_R   0.234510 0.787070 0.282870 -0.542795
O10   O     O_R   0.765490 0.212930 0.717130 -0.510206
O11   O     O_R   0.765490 0.212930 0.782870 -0.542791
O12   O     O_R   0.234510 0.787070 0.217130 -0.510086
O13   O     O_R   0.734510 0.712930 0.217130 -0.542813
O14   O     O_R   0.265490 0.287070 0.782870 -0.510162
O15   O     O_R   0.265490 0.287070 0.717130 -0.542762
O16   O     O_R   0.734510 0.712930 0.282870 -0.510145
C1    C     C_R   0.403281 0.795478 0.293856 0.760799
C2    C     C_R   0.597204 0.204463 0.706252 0.774144
C3    C     C_R   0.596718 0.204521 0.793856 0.760782
C4    C     C_R   0.402796 0.795536 0.206251 0.774070
C5    C     C_R   0.903279 0.704524 0.206142 0.760819
C6    C     C_R   0.097205 0.295538 0.793747 0.774109
C7    C     C_R   0.096719 0.295479 0.706143 0.760756
C8    C     C_R   0.902795 0.704461 0.293747 0.774098
O17   O     O_3   0.397750 0.727090 0.250000 -0.375893
O18   O     O_3   0.602250 0.272910 0.750000 -0.375815
O19   O     O_3   0.897750 0.772910 0.250000 -0.375823
O20   O     O_3   0.102250 0.227090 0.750000 -0.375896
V1    V     V_3+5 0.122890 0.754250 0.250000 1.601306
V2    V     V_3+5 0.877110 0.245750 0.750000 1.601244
V3    V     V_3+5 0.622890 0.745750 0.250000 1.601249
V4    V     V_3+5 0.377110 0.254250 0.750000 1.601322
C9    C     C_R   0.039553 0.611674 0.426902 0.536907
C10   C     C_R   0.152620 0.390218 0.571623 0.538697
C11   C     C_R   0.960507 0.388326 0.926904 0.536875
C12   C     C_R   0.847559 0.609785 0.071625 0.538647
C13   C     C_R   0.539783 0.888293 0.073069 0.537028
C14   C     C_R   0.652495 0.109764 0.928359 0.538664
C15   C     C_R   0.460660 0.111678 0.573092 0.536783
C16   C     C_R   0.347489 0.890232 0.428360 0.538645
O21   O     O_2   0.058497 0.647155 0.432194 -0.513158
O22   O     O_2   0.194689 0.355572 0.565950 -0.519709
O23   O     O_2   0.941555 0.352845 0.932197 -0.513172
O24   O     O_2   0.805543 0.644433 0.065951 -0.519757
O25   O     O_2   0.558886 0.852814 0.067780 -0.513147
O26   O     O_2   0.694472 0.144413 0.934035 -0.519718
O27   O     O_2   0.441786 0.147161 0.567800 -0.513204
O28   O     O_2   0.305451 0.855585 0.434032 -0.519736
N1    N     N_R   0.995850 0.599440 0.396172 -0.546881
N2    N     N_R   0.109676 0.401178 0.602770 -0.546635
N3    N     N_R   0.004209 0.400559 0.896174 -0.546887
N4    N     N_R   0.890470 0.598823 0.102773 -0.546675
N5    N     N_R   0.495957 0.900521 0.103796 -0.546833
N6    N     N_R   0.609622 0.098800 0.897209 -0.546666
N7    N     N_R   0.504306 0.099441 0.603824 -0.546914
N8    N     N_R   0.390424 0.901195 0.397212 -0.546675
C17   C     C_R   0.989967 0.563393 0.389809 0.576682
C18   C     C_R   0.079712 0.436694 0.609422 0.578686
C19   C     C_R   0.010110 0.436606 0.889811 0.576710
C20   C     C_R   0.920412 0.563307 0.109425 0.578797
C21   C     C_R   0.489925 0.936567 0.110158 0.576541
C22   C     C_R   0.579759 0.063282 0.890555 0.578762
C23   C     C_R   0.510148 0.063394 0.610185 0.576786
C24   C     C_R   0.420395 0.936710 0.390562 0.578796
C25   C     C_R   0.079924 0.626302 0.343362 -0.121593
C26   C     C_R   0.225313 0.375613 0.654173 -0.133258
C27   C     C_R   0.920111 0.373698 0.843364 -0.121662
C28   C     C_R   0.774823 0.624378 0.154181 -0.133285
C29   C     C_R   0.580041 0.873664 0.156606 -0.121257
C30   C     C_R   0.725229 0.124368 0.845803 -0.133278
C31   C     C_R   0.420188 0.126295 0.656636 -0.121844
C32   C     C_R   0.274804 0.875633 0.345805 -0.133295
C33   C     C_R   0.059682 0.652175 0.319076 -0.240932
C34   C     C_R   0.223916 0.349726 0.678746 -0.250523
C35   C     C_R   0.940341 0.347826 0.819078 -0.240992
C36   C     C_R   0.776201 0.650261 0.178756 -0.250945
C37   C     C_R   0.559772 0.847799 0.180898 -0.240611
C38   C     C_R   0.723839 0.150257 0.821235 -0.250791
C39   C     C_R   0.440397 0.152166 0.680925 -0.241190
C40   C     C_R   0.276188 0.849745 0.321234 -0.250895
C41   C     C_R   0.783142 0.674217 0.345737 0.352014
C42   C     C_R   0.949311 0.323132 0.655036 0.350580
C43   C     C_R   0.216853 0.325774 0.845739 0.352014
C44   C     C_R   0.050607 0.676904 0.155019 0.350554
C45   C     C_R   0.283137 0.825775 0.154256 0.351933
C46   C     C_R   0.449346 0.176871 0.844965 0.350582
C47   C     C_R   0.716840 0.174241 0.654256 0.352025
C48   C     C_R   0.550636 0.823119 0.344969 0.350606
C49   C     C_R   0.805851 0.648300 0.370977 0.085348
C50   C     C_R   0.953055 0.349059 0.629507 0.084620
C51   C     C_R   0.194177 0.351695 0.870978 0.085350
C52   C     C_R   0.047008 0.650956 0.129507 0.084663
C53   C     C_R   0.305979 0.851661 0.128992 0.085329
C54   C     C_R   0.453005 0.150926 0.870478 0.084646
C55   C     C_R   0.694249 0.148308 0.629025 0.085373
C56   C     C_R   0.547005 0.849067 0.370480 0.084635
C57   C     C_R   0.959715 0.624865 0.370111 0.314899
C58   C     C_R   0.095807 0.374992 0.628836 0.315556
C59   C     C_R   0.040328 0.375134 0.870113 0.314881
C60   C     C_R   0.904322 0.625008 0.128842 0.315402
C61   C     C_R   0.459856 0.875092 0.129854 0.315029
C62   C     C_R   0.595733 0.124987 0.871143 0.315442
C63   C     C_R   0.540421 0.124863 0.629889 0.314811
C64   C     C_R   0.404298 0.875010 0.371144 0.315430
C65   C     C_R   0.054367 0.550501 0.447090 -0.042177
C66   C     C_R   0.113794 0.451080 0.551625 -0.042296
C67   C     C_R   0.945721 0.449500 0.947092 -0.042177
C68   C     C_R   0.886344 0.548922 0.051627 -0.042313
C69   C     C_R   0.554426 0.949467 0.052882 -0.042164
C70   C     C_R   0.613788 0.048898 0.948353 -0.042310
C71   C     C_R   0.445784 0.050507 0.552901 -0.042181
C72   C     C_R   0.386316 0.951093 0.448360 -0.042309
C73   C     C_R   0.061528 0.587560 0.453115 -0.038191
C74   C     C_R   0.147647 0.414625 0.545351 -0.032528
C75   C     C_R   0.938542 0.412441 0.953117 -0.038175
C76   C     C_R   0.852522 0.585379 0.045353 -0.032510
C77   C     C_R   0.561732 0.912409 0.046858 -0.038218
C78   C     C_R   0.647533 0.085356 0.954630 -0.032525
C79   C     C_R   0.438672 0.087566 0.546878 -0.038133
C80   C     C_R   0.352454 0.914637 0.454632 -0.032524
C81   C     C_R   0.088738 0.599739 0.485153 -0.127624
C82   C     C_R   0.172570 0.403245 0.513008 -0.128188
C83   C     C_R   0.911324 0.400262 0.985156 -0.127625
C84   C     C_R   0.827619 0.596759 0.013010 -0.128183
C85   C     C_R   0.589063 0.900234 0.014821 -0.127643
C86   C     C_R   0.672356 0.096737 0.986975 -0.128179
C87   C     C_R   0.411493 0.099748 0.514840 -0.127621
C88   C     C_R   0.327521 0.903256 0.486974 -0.128180
C89   C     C_R   0.023972 0.538339 0.414925 -0.035027
C90   C     C_R   0.085776 0.462362 0.584128 -0.035814
C91   C     C_R   0.976122 0.461660 0.914927 -0.035033
C92   C     C_R   0.914343 0.537639 0.084130 -0.035826
C93   C     C_R   0.523905 0.961625 0.085045 -0.034997
C94   C     C_R   0.585858 0.037614 0.915848 -0.035820
C95   C     C_R   0.476144 0.038343 0.585067 -0.035049
C96   C     C_R   0.414341 0.962377 0.415857 -0.035825
C97   C     C_R   0.913617 0.676721 0.319956 -0.138110
C98   C     C_R   0.088375 0.322950 0.679551 -0.132631
C99   C     C_R   0.086387 0.323276 0.819957 -0.138098
C100  C     C_R   0.911633 0.677057 0.179549 -0.132601
C101  C     C_R   0.413641 0.823266 0.180032 -0.138159
C102  C     C_R   0.588363 0.177045 0.820443 -0.132611
C103  C     C_R   0.586398 0.176726 0.680042 -0.138059
C104  C     C_R   0.411639 0.822953 0.320444 -0.132615
H1    H     H_    0.097867 0.628108 0.490436 0.172598
H2    H     H_    0.201831 0.375450 0.507491 0.171952
H3    H     H_    0.902181 0.371893 0.990439 0.172599
H4    H     H_    0.798382 0.624555 0.007493 0.171951
H5    H     H_    0.598304 0.871867 0.009539 0.172586
H6    H     H_    0.701532 0.124535 0.992494 0.171956
H7    H     H_    0.402400 0.128118 0.509558 0.172601
H8    H     H_    0.298250 0.875462 0.492490 0.171956
C105  C     C_R   0.086999 0.513236 0.532249 0.034646
C106  C     C_R   0.084429 0.488398 0.466456 0.034519
C107  C     C_R   0.913103 0.486765 0.032251 0.034647
C108  C     C_R   0.915699 0.511603 0.966459 0.034520
C109  C     C_R   0.587135 0.986737 0.967726 0.034643
C110  C     C_R   0.584333 0.011574 0.033518 0.034518
C111  C     C_R   0.413148 0.013248 0.467740 0.034648
C112  C     C_R   0.415679 0.988406 0.533531 0.034521
C113  C     C_R   0.115286 0.463840 0.492557 0.034676
C114  C     C_R   0.087881 0.538277 0.505956 0.034674
C115  C     C_R   0.884858 0.536163 0.992559 0.034677
C116  C     C_R   0.912211 0.461724 0.005959 0.034673
C117  C     C_R   0.615186 0.036136 0.007420 0.034677
C118  C     C_R   0.588042 0.961696 0.994018 0.034674
C119  C     C_R   0.384819 0.963849 0.507428 0.034676
C120  C     C_R   0.412285 0.038287 0.494033 0.034673
C121  C     C_R   0.106127 0.476161 0.525397 0.065929
C122  C     C_R   0.076303 0.525640 0.473240 0.066333
C123  C     C_R   0.894001 0.523841 0.025400 0.065933
C124  C     C_R   0.923800 0.474361 0.973242 0.066332
C125  C     C_R   0.606137 0.023815 0.974579 0.065936
C126  C     C_R   0.576343 0.974331 0.026734 0.066332
C127  C     C_R   0.393993 0.976173 0.474589 0.065933
C128  C     C_R   0.423839 0.025648 0.526750 0.066330
C129  C     C_R   0.063009 0.523847 0.565227 -0.174476
C130  C     C_R   0.056716 0.477005 0.433791 -0.174562
C131  C     C_R   0.937078 0.476153 0.065229 -0.174472
C132  C     C_R   0.943418 0.522996 0.933793 -0.174559
C133  C     C_R   0.563242 0.976124 0.934747 -0.174477
C134  C     C_R   0.556495 0.022964 0.066181 -0.174573
C135  C     C_R   0.437144 0.023861 0.434762 -0.174470
C136  C     C_R   0.443362 0.977010 0.566196 -0.174553
C137  C     C_R   0.060083 0.498827 0.590549 -0.129532
C138  C     C_R   0.024729 0.501497 0.408668 -0.128536
C139  C     C_R   0.940012 0.501173 0.090551 -0.129518
C140  C     C_R   0.975388 0.498503 0.908670 -0.128536
C141  C     C_R   0.560284 0.001145 0.909425 -0.129516
C142  C     C_R   0.524520 0.998468 0.091301 -0.128556
C143  C     C_R   0.440053 0.998842 0.409439 -0.129521
C144  C     C_R   0.475350 0.001499 0.591321 -0.128528
O29   O     O_2   0.041979 0.447138 0.640321 -0.524164
O30   O     O_2   0.949798 0.551756 0.359367 -0.524679
O31   O     O_2   0.958128 0.552860 0.140324 -0.524145
O32   O     O_2   0.050280 0.448242 0.859369 -0.524670
O33   O     O_2   0.542090 0.052834 0.859655 -0.524150
O34   O     O_2   0.449639 0.948197 0.140596 -0.524716
O35   O     O_2   0.458130 0.947157 0.359664 -0.524147
O36   O     O_2   0.550274 0.051753 0.640627 -0.524649
C145  C     C_R   0.099209 0.575653 0.511147 -0.176219
C146  C     C_R   0.154351 0.427229 0.487065 -0.176174
C147  C     C_R   0.900864 0.424349 0.011149 -0.176221
C148  C     C_R   0.845824 0.572774 0.987067 -0.176182
C149  C     C_R   0.599508 0.924322 0.988828 -0.176205
C150  C     C_R   0.654140 0.072751 0.012916 -0.176183
C151  C     C_R   0.401003 0.075664 0.488845 -0.176228
C152  C     C_R   0.345737 0.927239 0.512918 -0.176178
H9    H     H_    0.329322 0.350898 0.697480 0.159658
H10   H     H_    0.158595 0.652778 0.299227 0.158476
H11   H     H_    0.670836 0.649076 0.197497 0.159614
H12   H     H_    0.841427 0.347226 0.799229 0.158478
H13   H     H_    0.829222 0.149084 0.802496 0.159633
H14   H     H_    0.658682 0.847201 0.200748 0.158493
H15   H     H_    0.170814 0.850923 0.302495 0.159639
H16   H     H_    0.341485 0.152761 0.700774 0.158452
H17   H     H_    0.330088 0.396215 0.654583 0.152860
H18   H     H_    0.191626 0.607257 0.341495 0.150139
H19   H     H_    0.670048 0.603775 0.154588 0.152935
H20   H     H_    0.808405 0.392743 0.841501 0.150163
H21   H     H_    0.830010 0.103766 0.845392 0.152925
H22   H     H_    0.691685 0.892720 0.158476 0.149977
H23   H     H_    0.170025 0.896235 0.345395 0.152924
H24   H     H_    0.308459 0.107253 0.658493 0.150249
H25   H     H_    0.037339 0.508277 0.615295 0.169603
H26   H     H_    0.000799 0.491337 0.384194 0.169685
H27   H     H_    0.962742 0.491723 0.115298 0.169601
H28   H     H_    0.999323 0.508662 0.884196 0.169686
H29   H     H_    0.537613 0.991694 0.884677 0.169601
H30   H     H_    0.500490 0.008623 0.115773 0.169688
H31   H     H_    0.462802 0.008293 0.384693 0.169600
H32   H     H_    0.499253 0.991338 0.615795 0.169686
H33   H     H_    0.038199 0.551296 0.572108 0.125099
H34   H     H_    0.051392 0.449098 0.427100 0.125197
H35   H     H_    0.961869 0.448704 0.072111 0.125098
H36   H     H_    0.948761 0.550902 0.927101 0.125195
H37   H     H_    0.538530 0.948673 0.927864 0.125099
H38   H     H_    0.551060 0.050870 0.072872 0.125201
H39   H     H_    0.461972 0.051309 0.427882 0.125096
H40   H     H_    0.448660 0.949103 0.572887 0.125195
H41   H     H_    0.120842 0.587069 0.535087 0.125430
H42   H     H_    0.175889 0.416479 0.462865 0.125559
H43   H     H_    0.879222 0.412933 0.035089 0.125431
H44   H     H_    0.824300 0.583525 0.962866 0.125558
H45   H     H_    0.621237 0.912910 0.964889 0.125428
H46   H     H_    0.675594 0.083502 0.037119 0.125561
H47   H     H_    0.379393 0.087082 0.464905 0.125430
H48   H     H_    0.324187 0.916487 0.537118 0.125559
Cl1   Cl    Cl    0.594018 0.704119 0.347387 -0.586125
Cl2   Cl    Cl    0.771777 0.290580 0.655279 -0.589806
Cl3   Cl    Cl    0.405900 0.295854 0.847398 -0.586144
Cl4   Cl    Cl    0.227708 0.709545 0.155203 -0.589940
Cl5   Cl    Cl    0.093681 0.795946 0.152659 -0.586170
Cl6   Cl    Cl    0.272060 0.209473 0.844763 -0.589818
Cl7   Cl    Cl    0.905678 0.204210 0.652571 -0.586198
Cl8   Cl    Cl    0.727829 0.790498 0.344778 -0.589829
C153  C     C_3   0.659926 0.644352 0.397394 -0.267645
C154  C     C_3   0.496348 0.623340 0.384431 -0.725996
H49   H     H_    0.434051 0.637811 0.363566 0.261469
H50   H     H_    0.540404 0.596268 0.376312 0.228031
H51   H     H_    0.392298 0.620353 0.404058 0.237105
H52   H     H_    0.709970 0.630106 0.419332 0.187387
H53   H     H_    0.614515 0.671020 0.406289 0.243363
C155  C     C_3   0.798734 0.350187 0.604379 -0.268012
C156  C     C_3   0.631804 0.369494 0.618248 -0.727026
H54   H     H_    0.583583 0.355850 0.640766 0.260679
H55   H     H_    0.667295 0.397703 0.624153 0.226532
H56   H     H_    0.519065 0.369383 0.599930 0.249435
H57   H     H_    0.838118 0.364108 0.581590 0.187532
H58   H     H_    0.760120 0.322721 0.596586 0.243275
C157  C     C_3   0.340100 0.355635 0.897396 -0.267619
C158  C     C_3   0.503786 0.376613 0.884428 -0.725984
H59   H     H_    0.566111 0.362114 0.863583 0.261546
H60   H     H_    0.459847 0.403682 0.876283 0.227991
H61   H     H_    0.607787 0.379607 0.904063 0.237126
H62   H     H_    0.290100 0.369904 0.919325 0.187366
H63   H     H_    0.385380 0.328965 0.906306 0.243345
C159  C     C_3   0.201323 0.649849 0.104376 -0.267950
C160  C     C_3   0.368661 0.630708 0.118284 -0.726948
H64   H     H_    0.416945 0.644490 0.140728 0.260980
H65   H     H_    0.333633 0.602510 0.124320 0.226346
H66   H     H_    0.481225 0.630784 0.099932 0.249500
H67   H     H_    0.162195 0.635810 0.081633 0.187429
H68   H     H_    0.239370 0.677317 0.096501 0.243192
C161  C     C_3   0.160036 0.855621 0.102582 -0.267830
C162  C     C_3   0.997028 0.876823 0.115509 -0.725965
H69   H     H_    0.934927 0.862529 0.136495 0.261010
H70   H     H_    0.041673 0.903922 0.123450 0.228245
H71   H     H_    0.892671 0.879738 0.095924 0.237094
H72   H     H_    0.210325 0.869719 0.080582 0.187526
H73   H     H_    0.113942 0.828959 0.093785 0.243445
C163  C     C_3   0.298684 0.149802 0.895608 -0.267933
C164  C     C_3   0.131486 0.130608 0.881708 -0.727006
H74   H     H_    0.083221 0.144351 0.859243 0.260893
H75   H     H_    0.166667 0.102409 0.875708 0.226400
H76   H     H_    0.018863 0.130690 0.900049 0.249454
H77   H     H_    0.337887 0.135796 0.918363 0.187455
H78   H     H_    0.260447 0.177268 0.903462 0.243228
C165  C     C_3   0.840174 0.144383 0.602605 -0.267524
C166  C     C_3   0.004173 0.123510 0.615591 -0.725988
H79   H     H_    0.066521 0.138091 0.636387 0.261770
H80   H     H_    0.960587 0.096446 0.623810 0.227860
H81   H     H_    0.108067 0.120503 0.595940 0.237180
H82   H     H_    0.790322 0.130037 0.580707 0.187300
H83   H     H_    0.885071 0.171059 0.593647 0.243292
C167  C     C_3   0.701304 0.850180 0.395614 -0.267952
C168  C     C_3   0.868625 0.869332 0.381710 -0.726926
H84   H     H_    0.916970 0.855547 0.359272 0.260996
H85   H     H_    0.833560 0.897525 0.375666 0.226358
H86   H     H_    0.981155 0.869267 0.400068 0.249482
H87   H     H_    0.662146 0.864215 0.418358 0.187417
H88   H     H_    0.739378 0.822713 0.403487 0.243208

loop_
_geom_bond_atom_site_label_1
_geom_bond_atom_site_label_2
_ccdc_geom_bond_type
C155  H57   S    
C106  C113  A    
C10   O22   S    
C70   C78   A    
C21   C93   A    
O15   V4    S    
O16   V3    S    
C19   C91   A    
C27   H20   S    
C149  H45   S    
C157  C158  S    
C106  C122  A    
C66   C90   A    
C87   C151  A    
C110  C126  A    
C158  H59   S    
C11   C75   A    
C20   C92   A    
C163  H77   S    
O13   V3    S    
C37   H14   S    
C35   H12   S    
C118  C126  A    
C75   C83   A    
C69   C93   A    
C53   C61   A    
C72   C80   A    
C6    C99   S    
C142  H30   S    
C84   H4    S    
O10   V2    S    
O12   C4    A    
C80   C88   A    
C167  C168  S    
O13   C5    A    
C85   H5    S    
C67   C91   A    
O6    V2    S    
C56   C64   A    
C11   N3    A    
C12   O24   S    
C13   O25   S    
C166  H79   S    
C15   O27   S    
C16   O28   S    
O1    C4    A    
C162  H71   S    
O2    C3    A    
C153  H53   S    
C151  H47   S    
C129  H33   S    
C29   C61   A    
O7    C6    A    
C43   C51   A    
C18   O29   S    
C83   C147  A    
C81   C145  A    
C42   C98   A    
C162  H70   S    
C108  C132  A    
C82   C146  A    
C33   C97   A    
O10   C2    A    
C158  H61   S    
C85   C149  A    
N4    C60   S    
C160  H65   S    
C52   C159  S    
C37   C101  A    
C95   C144  A    
N1    C57   S    
C130  C138  A    
C157  H63   S    
C13   C77   A    
C132  H36   S    
C143  H31   S    
C88   C152  A    
C136  H40   S    
C110  C117  A    
O17   V3    S    
C24   C96   A    
O18   V4    S    
O12   V1    S    
O19   V1    S    
C29   C37   A    
C31   C39   A    
C1    C104  S    
O8    V1    S    
C65   C73   A    
C2    C103  S    
C86   C150  A    
C26   H17   S    
C146  H42   S    
O1    V3    S    
C30   H21   S    
N1    C17   A    
O2    V4    S    
C153  C154  S    
N4    C20   A    
C87   H7    S    
N5    C21   A    
C88   H8    S    
C39   C103  A    
C155  C156  S    
C40   C104  A    
N7    C23   A    
N8    C24   A    
C118  C149  A    
C11   O23   S    
C165  H82   S    
C12   N4    A    
C166  H81   S    
C113  C121  A    
C82   H2    S    
C72   C96   A    
C55   C63   A    
C157  H62   S    
C105  C129  A    
N2    C58   S    
C34   H9    S    
C71   C128  A    
C113  C146  A    
C108  C115  A    
C45   C101  A    
C130  H34   S    
C52   C60   A    
C165  H83   S    
C108  C124  A    
C47   C55   A    
C28   C60   A    
C164  H74   S    
C139  H27   S    
C137  H25   S    
C156  H55   S    
C54   C62   A    
C39   H16   S    
C159  H67   S    
C116  C124  A    
C27   C35   A    
C12   C76   A    
C119  C127  A    
C133  H37   S    
C120  C128  A    
C31   C63   A    
C155  H58   S    
C31   H24   S    
C4    C101  S    
C42   Cl2   S    
C22   O33   S    
C112  C136  A    
C140  H28   S    
C26   C58   A    
C8    C97   S    
C28   C36   A    
C134  C142  A    
C161  H73   S    
C9    C73   A    
C167  H87   S    
C17   O30   S    
C168  H86   S    
C119  C152  A    
O14   C6    A    
C154  H49   S    
C32   C40   A    
C35   C99   A    
C53   C161  S    
C86   H6    S    
C15   C79   A    
C14   O26   S    
C70   C94   A    
C73   C81   A    
C158  H60   S    
C159  C160  S    
C44   C52   A    
C51   C59   A    
C77   C85   A    
C20   O31   S    
C44   Cl4   S    
C79   C87   A    
C48   C56   A    
C7    C98   S    
C163  H78   S    
C43   C99   A    
C90   C137  A    
C69   C77   A    
C41   C97   A    
C34   C98   A    
O11   C3    A    
C94   C141  A    
C150  H46   S    
C164  H76   S    
C38   C102  A    
C131  C139  A    
C9    N1    A    
C129  C137  A    
C23   O36   S    
C38   H13   S    
C132  C140  A    
C133  C141  A    
C15   N7    A    
O11   V2    S    
N5    C61   S    
C16   N8    A    
C160  H64   S    
C136  C144  A    
C115  C123  A    
C27   C59   A    
C41   C49   A    
C47   Cl7   S    
O7    V2    S    
C89   C138  A    
C109  C133  A    
C92   C139  A    
C148  H44   S    
C107  C131  A    
C93   C142  A    
C40   H15   S    
C67   C124  A    
C115  C148  A    
C65   C122  A    
C96   C143  A    
C168  H84   S    
N2    C18   A    
C28   H19   S    
N8    C64   S    
C69   C126  A    
C32   C64   A    
C32   H23   S    
C153  H52   S    
C141  H29   S    
C165  C166  S    
C161  C162  S    
C116  C147  A    
C114  C122  A    
C120  C151  A    
O4    C1    A    
C16   C80   A    
C84   C148  A    
C3    C102  S    
C106  C130  A    
C46   Cl6   S    
C46   C102  A    
C144  H32   S    
C76   C84   A    
N6    C62   S    
O14   V4    S    
C21   O34   S    
C30   C62   A    
C19   O32   S    
N6    C22   A    
C42   C50   A    
C105  C114  A    
C9    O21   S    
C68   C76   A    
C71   C95   A    
C25   H18   S    
C18   C90   A    
O3    V4    S    
O4    V3    S    
C25   C57   A    
C14   C78   A    
C24   O35   S    
C105  C121  A    
C5    C100  S    
C109  C125  A    
C26   C34   A    
C30   C38   A    
C145  H41   S    
C48   Cl8   S    
C66   C74   A    
C17   C89   A    
C163  C164  S    
C51   C157  S    
C162  H69   S    
C112  C119  A    
C147  H43   S    
C117  C125  A    
N7    C63   S    
C25   C33   A    
C111  C120  A    
O3    C2    A    
C29   H22   S    
C160  H66   S    
C46   C54   A    
C135  H39   S    
C14   N6    A    
C166  H80   S    
C117  C150  A    
O9    V1    S    
C56   C167  S    
C91   C140  A    
O15   C7    A    
O16   C8    A    
C159  H68   S    
C112  C128  A    
C45   C53   A    
O5    V1    S    
C36   C100  A    
N3    C59   S    
C10   N2    A    
C68   C92   A    
C114  C145  A    
C54   C163  S    
C33   H10   S    
C49   C153  S    
C131  H35   S    
C65   C89   A    
C161  H72   S    
C167  H88   S    
C49   C57   A    
C168  H85   S    
C23   C95   A    
C154  H50   S    
C138  H26   S    
O8    C5    A    
C110  C134  A    
C67   C75   A    
C71   C79   A    
C152  H48   S    
C36   H11   S    
O9    C1    A    
C83   H3    S    
C66   C121  A    
C81   H1    S    
C154  H51   S    
N3    C19   A    
C50   C155  S    
C134  H38   S    
C156  H54   S    
C70   C125  A    
C43   Cl3   S    
C55   C165  S    
C41   Cl1   S    
C135  C143  A    
C109  C118  A    
C107  C116  A    
C10   C74   A    
C45   Cl5   S    
C111  C135  A    
C22   C94   A    
O20   V2    S    
C13   N5    A    
C164  H75   S    
O5    C8    A    
O6    C7    A    
C48   C104  A    
C156  H56   S    
C74   C82   A    
C107  C123  A    
C72   C127  A    
C44   C100  A    
C68   C123  A    
C111  C127  A    
C78   C86   A    
C47   C103  A    
C50   C58   A    
