data_mof_unit_43622.cif
_audit_creation_date              2012-12-11T16:35:26-0500
_audit_creation_method            fapswitch 2.2
_symmetry_space_group_name_H-M    P1
_symmetry_Int_Tables_number       1
_space_group_crystal_system       triclinic
_cell_length_a                    6.927764
_cell_length_b                    17.687552
_cell_length_c                    19.482865
_cell_angle_alpha                 109.065091
_cell_angle_beta                  90.170525
_cell_angle_gamma                 90.73839
_cell_volume                      2256.1339634

loop_
_atom_site_label
_atom_site_type_symbol
_atom_type_description
_atom_site_fract_x
_atom_site_fract_y
_atom_site_fract_z
_atom_type_partial_charge
O1    O     O_R   0.505700 0.440210 0.561730 -0.546053
O2    O     O_R   0.169350 0.406300 0.412660 -0.536959
O3    O     O_R   0.005650 0.559790 0.438270 -0.544368
C1    C     C_R   0.338110 0.382982 0.384967 0.695140
O4    O     O_R   0.175560 0.430650 0.559600 -0.542691
O5    O     O_R   0.011900 0.584320 0.586250 -0.536224
C2    C     C_R   0.344237 0.415528 0.581099 0.680205
O6    O     O_R   0.499450 0.415680 0.413750 -0.536164
O7    O     O_3   0.341370 0.550390 0.508570 -0.364383
V1    V     V_3+5 0.063940 0.490650 0.498410 1.414314
O8    O     O_R   0.682570 0.593700 0.587340 -0.537376
C3    C     C_R   0.852507 0.616589 0.614970 0.697011
O9    O     O_R   0.676370 0.569350 0.440400 -0.536315
C4    C     C_R   0.845704 0.584897 0.419306 0.690218
V2    V     V_3+5 0.564750 0.509350 0.501590 1.425150
O10   O     O_3   0.837190 0.449610 0.491430 -0.369550
C5    C     C_R   0.033647 0.736820 0.333767 0.012727
C6    C     C_R   0.020174 0.686255 0.376578 -0.221435
H1    H     H_    0.132885 0.688286 0.415876 0.155666
C7    C     C_R   0.858348 0.636202 0.372346 -0.081278
C8    C     C_R   0.709178 0.636108 0.323573 -0.107151
H2    H     H_    0.582712 0.598098 0.319157 0.122038
C9    C     C_R   0.723792 0.683270 0.278412 -0.139007
H3    H     H_    0.608527 0.679732 0.239731 0.116426
C10   C     C_R   0.885364 0.733621 0.282007 -0.001261
C11   C     C_R   0.738306 0.824683 0.220640 -0.138655
H4    H     H_    0.608094 0.827232 0.251918 0.130177
C12   C     C_R   0.747527 0.867743 0.171757 -0.171225
H5    H     H_    0.623677 0.902328 0.166641 0.123805
C13   C     C_R   0.915610 0.867455 0.131183 -0.057641
C14   C     C_R   0.072709 0.821578 0.139733 -0.156164
H6    H     H_    0.203634 0.819316 0.108922 0.117542
C15   C     C_R   0.062024 0.777347 0.187683 -0.080925
H7    H     H_    0.184096 0.741580 0.192227 0.091324
C16   C     C_R   0.896242 0.779698 0.229884 0.121720
H8    H     H_    0.601043 0.654358 0.929317 0.112404
C17   C     C_R   0.068449 0.894132 0.749593 -0.143420
C18   C     C_R   0.137765 0.901934 0.685160 -0.124511
C19   C     C_R   0.117623 0.838925 0.620395 -0.112104
C20   C     C_R   0.028378 0.767625 0.619643 -0.127506
C21   C     C_R   0.958624 0.757530 0.684424 0.068830
C22   C     C_R   0.978618 0.822210 0.750754 0.069773
C23   C     C_R   0.866504 0.685137 0.683604 -0.185178
C24   C     C_R   0.793620 0.677514 0.749038 0.067667
C25   C     C_R   0.813133 0.742294 0.815345 0.069961
C26   C     C_R   0.905435 0.814701 0.816212 -0.186325
C27   C     C_R   0.704595 0.605392 0.750203 -0.143287
C28   C     C_R   0.634876 0.597687 0.814609 -0.123157
C29   C     C_R   0.654015 0.660866 0.879295 -0.122952
C30   C     C_R   0.742933 0.732239 0.880062 -0.131486
H9    H     H_    0.085141 0.945319 0.798202 0.104341
H10   H     H_    0.206163 0.957431 0.685453 0.122374
H11   H     H_    0.170202 0.845463 0.570325 0.129402
H12   H     H_    0.013193 0.721065 0.567575 0.104336
H13   H     H_    0.688899 0.553892 0.701689 0.109650
H14   H     H_    0.566951 0.542121 0.814365 0.119035
H15   H     H_    0.757540 0.778889 0.932097 0.104453
H16   H     H_    0.056751 0.448860 0.179919 0.116124
C31   C     C_R   0.512436 0.234047 0.382960 -0.127375
C32   C     C_R   0.607409 0.165359 0.383704 -0.113934
C33   C     C_R   0.641298 0.104106 0.319115 -0.105793
C34   C     C_R   0.580245 0.110994 0.253262 -0.143178
C35   C     C_R   0.485014 0.180316 0.250558 0.067583
C36   C     C_R   0.450558 0.243380 0.316888 0.072039
C37   C     C_R   0.420498 0.186656 0.183511 -0.187780
C38   C     C_R   0.322215 0.256593 0.183125 0.071651
C39   C     C_R   0.287727 0.319665 0.249454 0.067178
C40   C     C_R   0.352416 0.313371 0.316517 -0.188148
C41   C     C_R   0.259968 0.265796 0.117037 -0.126084
C42   C     C_R   0.164148 0.334277 0.116277 -0.121580
C43   C     C_R   0.130231 0.395545 0.180855 -0.126155
C44   C     C_R   0.192066 0.388883 0.246719 -0.149152
H17   H     H_    0.486021 0.279104 0.434881 0.102366
H18   H     H_    0.653684 0.159411 0.434796 0.120236
H19   H     H_    0.714146 0.050639 0.320024 0.132988
H20   H     H_    0.608231 0.061184 0.204765 0.109442
H21   H     H_    0.286547 0.220758 0.065118 0.100802
H22   H     H_    0.117243 0.340055 0.065184 0.115190
H23   H     H_    0.164192 0.438765 0.295192 0.113460
C45   C     C_R   0.542056 0.292224 0.691933 -0.145439
H24   H     H_    0.680977 0.269512 0.700824 0.102038
C46   C     C_R   0.531445 0.337101 0.644811 -0.174570
H25   H     H_    0.662890 0.348420 0.619594 0.121766
C47   C     C_R   0.353787 0.366462 0.630103 -0.052847
C48   C     C_R   0.186753 0.349536 0.663666 -0.158497
H26   H     H_    0.047714 0.371644 0.654006 0.116710
C49   C     C_R   0.197624 0.305100 0.711326 -0.142261
H27   H     H_    0.066861 0.294822 0.737469 0.098774
C50   C     C_R   0.375630 0.276006 0.726291 0.100690
C51   C     C_R   0.241864 0.174909 0.780341 -0.148848
H28   H     H_    0.116659 0.165648 0.745010 0.117321
C52   C     C_R   0.256447 0.130159 0.827388 -0.207705
H29   H     H_    0.140549 0.088488 0.827208 0.122532
C53   C     C_R   0.418924 0.137455 0.872820 -0.063299
C54   C     C_R   0.566836 0.193624 0.871518 0.151337
C55   C     C_R   0.549198 0.238582 0.824074 -0.140009
H30   H     H_    0.660902 0.281982 0.824015 0.104528
C56   C     C_R   0.388650 0.229242 0.777592 0.049109
O11   O     O_R   0.273230 0.084330 0.086440 -0.533283
O12   O     O_R   0.596660 0.069390 0.940470 -0.537346
O13   O     O_R   0.760270 0.915710 0.913690 -0.534311
C57   C     C_R   0.428150 0.086222 0.920377 0.689806
O14   O     O_R   0.603330 0.093680 0.087390 -0.538439
O15   O     O_R   0.766990 0.940160 0.061660 -0.545053
C58   C     C_R   0.434642 0.117041 0.115105 0.695544
O16   O     O_R   0.266510 0.059870 0.938470 -0.545440
O17   O     O_3   0.431050 0.949630 0.991510 -0.366730
V3    V     V_3+5 0.708490 0.009340 0.001580 1.410134
O18   O     O_R   0.096270 0.930570 0.059390 -0.539802
C59   C     C_R   0.927137 0.915624 0.081204 0.684319
O19   O     O_R   0.089600 0.906290 0.912460 -0.538912
C60   C     C_R   0.919568 0.883330 0.884905 0.697114
V4    V     V_3+5 0.207670 0.990600 0.998190 1.417002
O20   O     O_3   0.935250 0.050360 0.008480 -0.366698
C61   C     C_2   0.198405 0.794825 0.348131 0.706645
O21   O     O_2   0.182359 0.858672 0.337110 -0.556360
O22   O     O_R   0.370580 0.777709 0.377351 -0.674806
H31   H     H_    0.471522 0.821829 0.385385 0.298159
C62   C     C_3   0.741456 0.208823 0.920950 -0.757477
H32   H     H_    0.695382 0.222850 0.978268 0.202442
H33   H     H_    0.835405 0.155635 0.905243 0.220118
H34   H     H_    0.830119 0.260248 0.917552 0.191228

loop_
_geom_bond_atom_site_label_1
_geom_bond_atom_site_label_2
_ccdc_geom_bond_type
C49   H27   S    
C35   C37   A    
C26   C60   S    
C42   H22   S    
C21   C22   A    
C52   C53   A    
C41   H21   S    
C54   C55   A    
C1    O6    A    
O19   V4    S    
C19   H11   S    
C25   C26   A    
C33   H19   S    
O13   C60   A    
C32   H18   S    
C31   C36   A    
C17   C18   A    
C13   C59   S    
C36   C40   A    
C27   H13   S    
C12   H5    S    
C39   C44   A    
C44   H23   S    
O5    C3    A    
C18   C19   A    
C17   H9    S    
H16   C43   S    
C38   C41   A    
C18   H10   S    
V2    O10   S    
C45   C50   A    
C6    H1    S    
C22   C26   A    
V3    O20   S    
C17   C22   A    
C29   C30   A    
O17   V4    S    
O8    V2    S    
C14   H6    S    
C61   O22   S    
C55   C56   A    
C9    H3    S    
C14   C15   A    
C57   O16   A    
O14   V3    S    
O1    V2    S    
O7    V1    S    
C31   H17   S    
C24   C27   A    
O18   V4    S    
O13   V3    S    
C48   C49   A    
C2    C47   S    
C31   C32   A    
O9    C4    A    
C21   C23   A    
C34   H20   S    
C41   C42   A    
C37   C58   S    
C15   H7    S    
C62   H33   S    
O11   C58   A    
O12   V3    S    
O16   V4    S    
C39   C40   A    
C4    C7    S    
C47   C48   A    
C45   C46   A    
C19   C20   A    
O4    C2    A    
C54   C62   S    
C48   H26   S    
C32   C33   A    
O2    C1    A    
C23   C24   A    
O5    V1    S    
C34   C35   A    
C51   C52   A    
C27   C28   A    
O17   V3    S    
C55   H30   S    
O12   C57   A    
C5    C6    A    
C11   H4    S    
C53   C54   A    
O14   C58   A    
C42   C43   A    
O3    C4    A    
C10   C16   S    
C28   C29   A    
C37   C38   A    
O6    V2    S    
C46   C47   A    
O9    V2    S    
O2    V1    S    
O15   V3    S    
C24   C25   A    
C5    C61   S    
C1    C40   S    
V4    O20   S    
C62   H34   S    
C28   H14   S    
C20   C21   A    
O19   C60   A    
O1    C2    A    
C30   H15   S    
C11   C12   A    
C45   H24   S    
O11   V4    S    
C62   H32   S    
C3    C23   S    
C20   H12   S    
C50   C56   S    
C5    C10   A    
C8    H2    S    
C8    C9    A    
O7    V2    S    
C43   C44   A    
O3    V1    S    
V1    O10   S    
O22   H31   S    
O15   C59   A    
C51   H28   S    
C13   C14   A    
C25   C30   A    
C12   C13   A    
C52   H29   S    
C15   C16   A    
C38   C39   A    
C6    C7    A    
C9    C10   A    
C33   C34   A    
C35   C36   A    
C11   C16   A    
O4    V1    S    
C7    C8    A    
C53   C57   S    
C46   H25   S    
C49   C50   A    
O18   C59   A    
C51   C56   A    
H8    C29   S    
C61   O21   D    
O8    C3    A    
