data_mof_unit_62905.cif
_audit_creation_date              2012-12-10T20:11:08-0500
_audit_creation_method            fapswitch 2.2
_symmetry_space_group_name_H-M    P1
_symmetry_Int_Tables_number       1
_space_group_crystal_system       triclinic
_cell_length_a                    41.730165
_cell_length_b                    35.422379
_cell_length_c                    21.823565
_cell_angle_alpha                 90.434335
_cell_angle_beta                  122.145862
_cell_angle_gamma                 89.512727
_cell_volume                      27312.5751788

loop_
_atom_site_label
_atom_site_type_symbol
_atom_type_description
_atom_site_fract_x
_atom_site_fract_y
_atom_site_fract_z
_atom_type_partial_charge
C1    C     C_R   0.426746 0.500020 0.928002 0.885660
C2    C     C_R   0.824763 0.492535 0.276311 -0.136777
C3    C     C_R   0.025906 0.672969 0.564187 -0.129971
C4    C     C_R   0.476592 0.173066 0.436693 -0.130736
C5    C     C_R   0.526184 0.172931 0.564290 -0.129928
C6    C     C_R   0.975885 0.633829 0.436598 -0.188865
C7    C     C_R   0.025079 0.633741 0.564573 -0.189653
C8    C     C_R   0.476055 0.133866 0.436673 -0.188787
C9    C     C_R   0.525225 0.133706 0.564661 -0.189644
C10   C     C_R   0.000198 0.614189 0.500621 -0.026846
C11   C     C_R   0.500292 0.114191 0.500692 -0.026901
C12   C     C_R   0.001418 0.692391 0.500247 0.128424
C13   C     C_R   0.675331 0.990632 0.722619 -0.136819
C14   C     C_R   0.501781 0.192387 0.500339 0.128512
C15   C     C_1   0.001691 0.732359 0.499965 0.003964
C16   C     C_1   0.502115 0.232355 0.500076 0.003679
C17   C     C_R   0.999942 0.385789 0.499367 -0.021990
C18   C     C_R   0.499942 0.885789 0.499367 -0.022013
C19   C     C_1   0.501968 0.265993 0.499734 0.081335
C20   C     C_1   0.001582 0.765995 0.499627 0.082186
C21   C     C_R   0.474086 0.325685 0.436950 -0.010025
C22   C     C_R   0.527817 0.325705 0.563448 -0.002771
C23   C     C_R   0.974033 0.825680 0.436618 -0.007363
C24   C     C_R   0.324693 0.992348 0.276731 -0.135426
C25   C     C_R   0.027752 0.825722 0.563143 -0.004424
C26   C     C_R   0.475670 0.365534 0.435860 0.113377
C27   C     C_R   0.524876 0.365290 0.566229 0.109818
C28   C     C_R   0.975880 0.865465 0.435146 0.117649
C29   C     C_R   0.024961 0.865380 0.565588 0.114635
C30   C     C_R   0.500343 0.384994 0.501176 -0.182807
C31   C     C_R   0.000388 0.884995 0.500496 -0.183802
C32   C     C_R   0.501488 0.306355 0.499765 -0.120836
C33   C     C_R   0.001253 0.806358 0.499603 -0.122184
C34   C     C_R   0.972639 0.327145 0.505696 -0.148435
C35   C     C_R   0.136193 0.486226 0.683246 -0.199882
C36   C     C_R   0.027314 0.326418 0.493790 -0.147588
C37   C     C_R   0.472637 0.827146 0.505693 -0.148311
C38   C     C_R   0.527316 0.826418 0.493798 -0.147527
C39   C     C_R   0.972820 0.366478 0.506090 -0.192479
C40   C     C_R   0.027076 0.365760 0.492809 -0.194499
C41   C     C_R   0.472818 0.866478 0.506085 -0.192429
C42   C     C_R   0.527078 0.865760 0.492816 -0.194439
C43   C     C_1   0.499922 0.733230 0.499968 -0.055388
C44   C     C_1   0.999921 0.233230 0.499962 -0.055512
C45   C     C_R   0.499767 0.614444 0.499827 -0.018042
C46   C     C_R   0.863924 0.488005 0.315495 -0.199111
C47   C     C_R   0.999767 0.114444 0.499825 -0.018169
C48   C     C_2   0.532265 0.511139 0.752703 0.016106
C49   C     C_2   0.467961 0.492000 0.247211 -0.000109
C50   C     C_2   0.032308 0.010951 0.752768 0.015718
C51   C     C_2   0.967954 0.992001 0.247228 -0.000758
C52   C     C_2   0.500746 0.508582 0.685669 -0.434600
C53   C     C_2   0.499378 0.494658 0.314294 -0.433480
C54   C     C_2   0.000782 0.008512 0.685724 -0.435450
C55   C     C_2   0.999393 0.994635 0.314307 -0.432716
C56   C     C_2   0.527720 0.516492 0.813987 -0.195491
C57   C     C_R   0.636193 0.986233 0.683252 -0.199865
C58   C     C_2   0.473272 0.483725 0.187687 -0.209747
C59   C     C_2   0.027801 0.016272 0.814111 -0.194969
C60   C     C_2   0.973282 0.983753 0.187680 -0.208410
C61   C     C_2   0.303101 0.483901 0.909592 0.949538
C62   C     C_2   0.697639 0.482869 0.091254 0.943871
C63   C     C_2   0.803105 0.983940 0.909619 0.949552
C64   C     C_2   0.198183 0.979472 0.094820 0.942395
C65   C     C_3   0.384432 0.440799 0.006895 -0.667845
C66   C     C_3   0.617497 0.440244 0.991969 -0.625646
C67   C     C_3   0.884418 0.940834 0.006938 -0.667402
C68   C     C_R   0.363851 0.987747 0.315852 -0.199200
C69   C     C_3   0.117882 0.937002 0.996921 -0.625432
C70   C     C_3   0.387833 0.548972 0.745749 -0.719022
C71   C     C_3   0.614538 0.545958 0.262936 -0.715518
C72   C     C_3   0.887829 0.048917 0.745693 -0.719309
C73   C     C_3   0.113498 0.050940 0.257304 -0.716417
C74   C     C_3   0.276907 0.516440 0.641266 -0.697703
C75   C     C_3   0.721329 0.514356 0.359476 -0.697276
C76   C     C_3   0.776901 0.016396 0.641256 -0.697805
C77   C     C_3   0.220785 0.018818 0.359124 -0.696622
C78   C     C_2   0.444046 0.303340 0.375426 0.914092
C79   C     C_R   0.114239 0.503273 0.615400 -0.053675
C80   C     C_2   0.557679 0.303788 0.626198 0.922547
C81   C     C_2   0.943939 0.803444 0.374964 0.915927
C82   C     C_2   0.057613 0.803682 0.625669 0.919854
C83   C     C_3   0.420692 0.378907 0.308053 -0.647826
C84   C     C_3   0.579786 0.382299 0.689973 -0.633049
C85   C     C_3   0.920911 0.879315 0.307231 -0.643501
C86   C     C_3   0.079600 0.881116 0.691297 -0.637134
C87   C     C_2   0.571621 0.508142 0.769390 0.964304
C88   C     C_2   0.428729 0.500544 0.228131 0.976965
C89   C     C_2   0.071651 0.007950 0.769439 0.963126
C90   C     C_R   0.885665 0.503908 0.384652 -0.055522
C91   C     C_2   0.928759 0.000489 0.228126 0.975057
C92   C     C_2   0.186177 0.559198 0.601993 0.858299
C93   C     C_2   0.813038 0.558280 0.401532 0.860729
C94   C     C_2   0.686178 0.059186 0.601973 0.858222
C95   C     C_2   0.313345 0.059386 0.400711 0.860310
C96   C     C_R   0.614239 0.003273 0.615400 -0.053672
C97   C     C_R   0.573316 0.499807 0.071892 0.878352
C98   C     C_R   0.385682 0.003995 0.384673 -0.055141
C99   C     C_R   0.131292 0.525877 0.588495 -0.230222
C100  C     C_R   0.868367 0.525668 0.412973 -0.230517
C101  C     C_R   0.631292 0.025872 0.588487 -0.230274
C102  C     C_R   0.368498 0.026205 0.412642 -0.230601
C103  C     C_R   0.170212 0.532033 0.629062 0.011730
C104  C     C_R   0.829421 0.531989 0.372619 0.010666
C105  C     C_R   0.670213 0.032028 0.629052 0.011760
C106  C     C_R   0.329568 0.032598 0.372296 0.012541
C107  C     C_R   0.192385 0.513512 0.695830 0.055465
C108  C     C_R   0.926746 0.000020 0.927999 0.885713
C109  C     C_R   0.807477 0.514409 0.304683 0.055669
C110  C     C_R   0.692385 0.013513 0.695827 0.055449
C111  C     C_R   0.307508 0.014637 0.304789 0.055957
C112  C     C_1   0.232740 0.514566 0.734243 0.027704
C113  C     C_1   0.767113 0.515098 0.266552 0.028643
C114  C     C_1   0.732741 0.014567 0.734241 0.027706
C115  C     C_1   0.267140 0.015349 0.266901 0.027668
C116  C     C_1   0.266578 0.513002 0.766090 0.082503
C117  C     C_1   0.733312 0.513153 0.234489 0.083111
C118  C     C_1   0.766578 0.013003 0.766089 0.082491
C119  C     C_R   0.073326 0.999812 0.071900 0.877917
C120  C     C_1   0.233340 0.013351 0.235008 0.081564
C121  C     C_R   0.325330 0.494156 0.876998 -0.068627
C122  C     C_R   0.674948 0.493433 0.123393 -0.062944
C123  C     C_R   0.825331 0.994175 0.877010 -0.068638
C124  C     C_R   0.175217 0.991834 0.125367 -0.062129
C125  C     C_R   0.499184 0.499723 0.880150 0.916363
C126  C     C_R   0.501050 0.500303 0.119975 0.918168
C127  C     C_R   0.999158 0.999722 0.880132 0.916727
C128  C     C_R   0.001036 0.000297 0.119978 0.917369
C129  C     C_R   0.365196 0.491353 0.917977 0.102258
C130  C     C_2   0.500461 0.498251 0.815944 -0.340152
C131  C     C_R   0.635095 0.490530 0.082226 0.093293
C132  C     C_R   0.865197 0.991371 0.917986 0.102205
C133  C     C_R   0.135352 0.988977 0.083902 0.093055
C134  C     C_R   0.385580 0.500193 0.885208 -0.207954
C135  C     C_R   0.614548 0.499584 0.114991 -0.209450
C136  C     C_R   0.885579 0.000193 0.885207 -0.207956
C137  C     C_R   0.114568 0.999633 0.115395 -0.210750
C138  C     C_R   0.366954 0.510674 0.811884 0.140202
C139  C     C_R   0.633086 0.510042 0.188585 0.147261
C140  C     C_R   0.866953 0.010655 0.811874 0.140209
C141  C     C_2   0.499980 0.502097 0.184373 -0.338299
C142  C     C_R   0.132882 0.011783 0.188017 0.147651
C143  C     C_R   0.327421 0.516004 0.772364 0.210895
C144  C     C_R   0.672496 0.515827 0.227840 0.208841
C145  C     C_R   0.827418 0.015986 0.772352 0.210893
C146  C     C_R   0.172280 0.017564 0.227252 0.209211
C147  C     C_R   0.306871 0.507866 0.805338 -0.099332
C148  C     C_R   0.693092 0.507634 0.194815 -0.100771
C149  C     C_R   0.806872 0.007868 0.805338 -0.099358
C150  C     C_R   0.193128 0.007706 0.195494 -0.100247
C151  C     C_R   0.499869 0.693013 0.499942 0.151465
C152  C     C_2   0.000407 0.998251 0.815907 -0.340009
C153  C     C_R   0.999868 0.193013 0.499937 0.151523
C154  C     C_R   0.475931 0.634488 0.515724 -0.185079
C155  C     C_R   0.523637 0.633798 0.484002 -0.182087
C156  C     C_R   0.975927 0.134488 0.515713 -0.185221
C157  C     C_R   0.023640 0.133798 0.484007 -0.182099
C158  C     C_1   0.999951 0.267025 0.499949 -0.057354
C159  C     C_1   0.499951 0.767025 0.499954 -0.057242
C160  C     C_R   0.999977 0.307242 0.499862 0.150786
C161  C     C_R   0.499978 0.807242 0.499865 0.150722
C162  C     C_R   0.500123 0.426501 0.500936 0.877262
C163  C     C_2   0.999993 0.002088 0.184381 -0.338292
C164  C     C_R   0.000119 0.926500 0.500554 0.871783
C165  C     C_R   0.476254 0.673831 0.516425 -0.147392
C166  C     C_R   0.523428 0.673121 0.483422 -0.147995
C167  C     C_R   0.976250 0.173831 0.516412 -0.147476
C168  C     C_R   0.023430 0.173120 0.483426 -0.148115
C169  C     C_R   0.500328 0.501689 0.619669 0.926821
C170  C     C_R   0.499641 0.499750 0.380337 0.949406
C171  C     C_R   0.000335 0.001674 0.619679 0.928208
C172  C     C_R   0.999654 0.999742 0.380340 0.945847
C173  C     C_R   0.499915 0.573388 0.500118 0.872329
C174  C     C_R   0.175331 0.490625 0.722615 -0.136793
C175  C     C_R   0.999915 0.073388 0.500118 0.872467
C176  C     C_R   0.000086 0.426796 0.499881 0.854432
C177  C     C_R   0.500086 0.926796 0.499881 0.854358
C178  C     C_R   0.073315 0.499889 0.573697 0.870951
C179  C     C_R   0.926654 0.500163 0.426303 0.871505
C180  C     C_R   0.573315 0.999890 0.573697 0.870914
C181  C     C_R   0.426657 0.000156 0.426305 0.871402
C182  C     C_R   0.000002 0.573300 0.500191 0.862911
C183  C     C_R   0.500011 0.073301 0.500200 0.862789
C184  C     C_R   0.976290 0.673033 0.436604 -0.130719
H1    H     H_    0.458181 0.689222 0.529750 0.138669
H2    H     H_    0.045540 0.688153 0.613347 0.154693
H3    H     H_    0.224751 0.988883 0.348707 0.240459
H4    H     H_    0.430950 0.262522 0.300889 0.342859
H5    H     H_    0.570308 0.262734 0.699293 0.342016
H6    H     H_    0.930751 0.762359 0.300860 0.342650
H7    H     H_    0.070215 0.762732 0.698933 0.342222
H8    H     H_    0.475486 0.403295 0.361581 0.218143
H9    H     H_    0.410201 0.403881 0.271894 0.239292
H10   H     H_    0.400247 0.373287 0.324560 0.272276
H11   H     H_    0.422623 0.354966 0.277078 0.239276
H12   H     H_    0.526226 0.409699 0.634379 0.219679
H13   H     H_    0.457425 0.188331 0.387423 0.155219
H14   H     H_    0.588545 0.408257 0.724013 0.235588
H15   H     H_    0.597695 0.379506 0.666436 0.258379
H16   H     H_    0.584720 0.357889 0.726068 0.249416
H17   H     H_    0.973982 0.907722 0.364182 0.220382
H18   H     H_    0.910882 0.904346 0.271201 0.236898
H19   H     H_    0.900616 0.874482 0.324434 0.269799
H20   H     H_    0.921854 0.855052 0.275732 0.242810
H21   H     H_    0.026114 0.909050 0.634908 0.221087
H22   H     H_    0.088723 0.906778 0.726077 0.237398
H23   H     H_    0.098585 0.877360 0.670520 0.262746
H24   H     H_    0.545846 0.188085 0.613471 0.154687
H25   H     H_    0.082201 0.856841 0.725500 0.247452
H26   H     H_    0.612383 0.529187 0.756387 0.343056
H27   H     H_    0.393618 0.535940 0.238514 0.347069
H28   H     H_    0.112389 0.028951 0.756355 0.342967
H29   H     H_    0.893525 0.035935 0.238206 0.347087
H30   H     H_    0.217325 0.606083 0.621347 0.349443
H31   H     H_    0.781518 0.604848 0.385579 0.349198
H32   H     H_    0.717330 0.106067 0.621311 0.349363
H33   H     H_    0.282460 0.106517 0.384190 0.349021
H34   H     H_    0.956288 0.618826 0.387211 0.151726
H35   H     H_    0.044285 0.618648 0.614028 0.151988
H36   H     H_    0.456419 0.118895 0.387272 0.151758
H37   H     H_    0.544374 0.118585 0.614115 0.152013
H38   H     H_    0.951288 0.312333 0.509961 0.139436
H39   H     H_    0.048727 0.311008 0.489897 0.139272
H40   H     H_    0.451285 0.812334 0.509953 0.139527
H41   H     H_    0.541640 0.687950 0.470322 0.138558
H42   H     H_    0.548731 0.811007 0.489910 0.139310
H43   H     H_    0.951557 0.381832 0.510512 0.145715
H44   H     H_    0.048406 0.380535 0.488427 0.145067
H45   H     H_    0.451554 0.881833 0.510502 0.145786
H46   H     H_    0.548410 0.880535 0.488438 0.145083
H47   H     H_    0.473099 0.512822 0.678513 0.168648
H48   H     H_    0.527056 0.489524 0.322149 0.171014
H49   H     H_    0.973153 0.012801 0.678590 0.168516
H50   H     H_    0.027060 0.989480 0.322190 0.171773
H51   H     H_    0.548571 0.532992 0.860242 0.162067
H52   H     H_    0.958175 0.189223 0.529730 0.138602
H53   H     H_    0.452921 0.466187 0.142892 0.179697
H54   H     H_    0.048787 0.032555 0.860557 0.161946
H55   H     H_    0.952873 0.966258 0.142819 0.179600
H56   H     H_    0.482174 0.478058 0.774004 0.156519
H57   H     H_    0.517142 0.523642 0.224226 0.155414
H58   H     H_    0.981966 0.978212 0.773819 0.156036
H59   H     H_    0.017184 0.023606 0.224278 0.155795
H60   H     H_    0.192228 0.476100 0.773794 0.173934
H61   H     H_    0.808025 0.478811 0.224056 0.172938
H62   H     H_    0.692228 0.976111 0.773803 0.173955
H63   H     H_    0.041645 0.187949 0.470331 0.138508
H64   H     H_    0.307880 0.978353 0.224780 0.171736
H65   H     H_    0.123214 0.469120 0.705211 0.155829
H66   H     H_    0.877095 0.471633 0.292466 0.157027
H67   H     H_    0.623213 0.969131 0.705222 0.155856
H68   H     H_    0.376947 0.971044 0.293074 0.156617
H69   H     H_    0.113977 0.540451 0.537524 0.176121
H70   H     H_    0.885515 0.539332 0.465128 0.177550
H71   H     H_    0.613978 0.040441 0.537510 0.176107
H72   H     H_    0.385728 0.040153 0.464477 0.176725
H73   H     H_    0.257725 0.456989 0.898258 0.341359
H74   H     H_    0.457708 0.619727 0.528871 0.145899
H75   H     H_    0.743137 0.455300 0.102917 0.339508
H76   H     H_    0.757729 0.957043 0.898316 0.341378
H77   H     H_    0.243833 0.950859 0.109685 0.339183
H78   H     H_    0.410360 0.493403 0.026383 0.218221
H79   H     H_    0.411470 0.427338 0.019603 0.220663
H80   H     H_    0.360461 0.425848 0.960136 0.232213
H81   H     H_    0.381544 0.437572 0.054298 0.273588
H82   H     H_    0.589509 0.491848 0.973916 0.219389
H83   H     H_    0.590813 0.425929 0.977948 0.221815
H84   H     H_    0.641725 0.425434 0.038627 0.221906
H85   H     H_    0.541938 0.618490 0.471182 0.146532
H86   H     H_    0.620981 0.437967 0.944991 0.274523
H87   H     H_    0.910366 0.993427 0.026388 0.218129
H88   H     H_    0.911478 0.927366 0.019778 0.220675
H89   H     H_    0.860478 0.925869 0.960139 0.232114
H90   H     H_    0.881462 0.937628 0.054269 0.273794
H91   H     H_    0.090118 0.988936 0.975206 0.220880
H92   H     H_    0.091093 0.923141 0.983470 0.221685
H93   H     H_    0.141974 0.922677 0.044610 0.222430
H94   H     H_    0.121523 0.933471 0.950324 0.270307
H95   H     H_    0.412787 0.498137 0.799526 0.213300
H96   H     H_    0.957702 0.119727 0.528853 0.145866
H97   H     H_    0.416628 0.554861 0.756771 0.227145
H98   H     H_    0.368042 0.547721 0.686076 0.253148
H99   H     H_    0.379748 0.572419 0.768918 0.234303
H100  H     H_    0.586448 0.498347 0.199028 0.215321
H101  H     H_    0.586884 0.551910 0.257314 0.215788
H102  H     H_    0.635816 0.541944 0.321531 0.257687
H103  H     H_    0.622054 0.570582 0.241851 0.236086
H104  H     H_    0.912782 0.998092 0.799518 0.213191
H105  H     H_    0.916625 0.054802 0.756717 0.227084
H106  H     H_    0.868041 0.047648 0.686021 0.253156
H107  H     H_    0.041943 0.118489 0.471194 0.146566
H108  H     H_    0.879740 0.072377 0.768831 0.234311
H109  H     H_    0.086084 0.001853 0.198688 0.214797
H110  H     H_    0.085845 0.057130 0.251530 0.217675
H111  H     H_    0.135026 0.048915 0.316135 0.257130
H112  H     H_    0.120299 0.074466 0.232798 0.236170
H113  H     H_    0.310358 0.562389 0.703877 0.230455
H114  H     H_    0.279680 0.516628 0.593335 0.246569
H115  H     H_    0.251868 0.533772 0.627833 0.247670
H116  H     H_    0.272662 0.487027 0.652427 0.240055
H117  H     H_    0.692282 0.562293 0.297149 0.231744
H118  H     H_    0.957077 0.688270 0.387326 0.155299
H119  H     H_    0.716727 0.514507 0.405169 0.244458
H120  H     H_    0.747798 0.529953 0.377558 0.247034
H121  H     H_    0.724694 0.484680 0.346648 0.240109
H122  H     H_    0.810356 0.062353 0.703824 0.230418
H123  H     H_    0.779668 0.016571 0.593319 0.246540
H124  H     H_    0.751863 0.033731 0.627819 0.247679
H125  H     H_    0.772658 0.986988 0.652442 0.240060
H126  H     H_    0.191397 0.065526 0.292714 0.231654
H127  H     H_    0.215681 0.019965 0.404143 0.244494
H128  H     H_    0.247085 0.034635 0.376813 0.248534
N1    N     N_2   0.384662 0.480638 0.992477 -0.262270
N2    N     N_2   0.690130 0.533304 0.297546 -0.300357
N3    N     N_2   0.810037 0.033226 0.702748 -0.295969
N4    N     N_2   0.189628 0.036618 0.295407 -0.301017
N5    N     N_2   0.457691 0.387215 0.370358 -0.307138
N6    N     N_2   0.539448 0.384339 0.634388 -0.307853
N7    N     N_2   0.958502 0.886639 0.368974 -0.310818
N8    N     N_2   0.040331 0.885146 0.633119 -0.311261
N9    N     N_2   0.615749 0.479843 0.007481 -0.265510
N10   N     N_2   0.884665 0.980666 0.992491 -0.262381
N11   N     N_2   0.116234 0.976971 0.009909 -0.264452
N12   N     N_2   0.387516 0.512987 0.776611 -0.285569
N13   N     N_2   0.612405 0.511700 0.224096 -0.286359
N14   N     N_2   0.887512 0.012945 0.776593 -0.285590
N15   N     N_2   0.111968 0.015291 0.222826 -0.285646
N16   N     N_2   0.310040 0.533262 0.702776 -0.295982
O1    O     O_R   0.444560 0.531280 0.944560 -0.606655
O2    O     O_R   0.944570 0.500110 0.393510 -0.617318
O3    O     O_R   0.555430 0.000110 0.606490 -0.616989
O4    O     O_R   0.444570 0.000110 0.393510 -0.617124
O5    O     O_R   0.000010 0.555520 0.448910 -0.613131
O6    O     O_R   0.999990 0.555520 0.551090 -0.613358
O7    O     O_R   0.500010 0.055520 0.448910 -0.613148
O8    O     O_R   0.499990 0.055520 0.551090 -0.613357
O9    O     O_R   0.444540 0.468700 0.944530 -0.618211
O10   O     O_R   0.555460 0.468700 0.055470 -0.613920
O11   O     O_R   0.944540 0.968700 0.944530 -0.618245
O12   O     O_R   0.555440 0.531280 0.055440 -0.610480
O13   O     O_R   0.055460 0.968700 0.055470 -0.613520
O14   O     O_R   0.500010 0.531280 0.909540 -0.611331
O15   O     O_R   0.499990 0.531280 0.090460 -0.615078
O16   O     O_R   0.000010 0.031280 0.909540 -0.611116
O17   O     O_R   0.999990 0.031280 0.090460 -0.615646
O18   O     O_R   0.499990 0.468700 0.909520 -0.617762
O19   O     O_R   0.500010 0.468700 0.090480 -0.614043
O20   O     O_R   0.999990 0.968700 0.909520 -0.618026
O21   O     O_R   0.000010 0.968700 0.090480 -0.613159
O22   O     O_R   0.531280 0.444560 0.531260 -0.614028
O23   O     O_R   0.944560 0.031280 0.944560 -0.606643
O24   O     O_R   0.468720 0.444560 0.468740 -0.596964
O25   O     O_R   0.031280 0.944560 0.531260 -0.609036
O26   O     O_R   0.968720 0.944560 0.468740 -0.602929
O27   O     O_R   0.531280 0.499990 0.621740 -0.584868
O28   O     O_R   0.468720 0.499990 0.378260 -0.582626
O29   O     O_R   0.031280 0.999990 0.621740 -0.583301
O30   O     O_R   0.968720 0.999990 0.378260 -0.584292
O31   O     O_R   0.468680 0.499990 0.559140 -0.624190
O32   O     O_R   0.531320 0.499990 0.440860 -0.627158
O33   O     O_R   0.968680 0.999990 0.559140 -0.623790
O34   O     O_R   0.055440 0.031280 0.055440 -0.610230
O35   O     O_R   0.031320 0.999990 0.440860 -0.626553
O36   O     O_R   0.531300 0.555420 0.531300 -0.605643
O37   O     O_R   0.468700 0.555420 0.468700 -0.610621
O38   O     O_R   0.031300 0.055420 0.531300 -0.605717
O39   O     O_R   0.968700 0.055420 0.468700 -0.610193
O40   O     O_R   0.999980 0.444660 0.448930 -0.613839
O41   O     O_R   0.000020 0.444660 0.551070 -0.613717
O42   O     O_R   0.499980 0.944660 0.448930 -0.613839
O43   O     O_R   0.500020 0.944660 0.551070 -0.613704
O44   O     O_2   0.313376 0.494273 0.970954 -0.573030
O45   O     O_R   0.055440 0.500090 0.504360 -0.613965
O46   O     O_R   0.270200 0.462273 0.870049 -0.828384
O47   O     O_2   0.687468 0.493068 0.030106 -0.580561
O48   O     O_R   0.730603 0.461201 0.131243 -0.826614
O49   O     O_2   0.813383 0.994330 0.970974 -0.573125
O50   O     O_R   0.770202 0.962312 0.870100 -0.828361
O51   O     O_2   0.188361 0.988068 0.033099 -0.580665
O52   O     O_R   0.231004 0.957924 0.136974 -0.825845
O53   O     O_2   0.411464 0.305126 0.361245 -0.622561
O54   O     O_R   0.453438 0.278174 0.337646 -0.804744
O55   O     O_2   0.590695 0.306461 0.643320 -0.628168
O56   O     O_R   0.944560 0.500090 0.495640 -0.614242
O57   O     O_R   0.547813 0.278270 0.661932 -0.799616
O58   O     O_2   0.911265 0.805733 0.360120 -0.623989
O59   O     O_R   0.953326 0.777867 0.337761 -0.803578
O60   O     O_2   0.090550 0.805999 0.642215 -0.626451
O61   O     O_R   0.047777 0.778401 0.661787 -0.801059
O62   O     O_2   0.592910 0.483978 0.811788 -0.630925
O63   O     O_R   0.584879 0.533847 0.739594 -0.772958
O64   O     O_2   0.402559 0.480598 0.184311 -0.634860
O65   O     O_R   0.421309 0.532949 0.255713 -0.774985
O66   O     O_2   0.092987 0.983935 0.812124 -0.627346
O67   O     O_R   0.555440 0.000090 0.504360 -0.613977
O68   O     O_R   0.084873 0.033552 0.739447 -0.773408
O69   O     O_2   0.902569 0.980545 0.184302 -0.635228
O70   O     O_R   0.921270 0.032921 0.255671 -0.773869
O71   O     O_2   0.178025 0.557277 0.539257 -0.619393
O72   O     O_R   0.209826 0.587966 0.647346 -0.797378
O73   O     O_2   0.821645 0.555493 0.464340 -0.620888
O74   O     O_R   0.788760 0.587219 0.357970 -0.798117
O75   O     O_2   0.678024 0.057259 0.539235 -0.619462
O76   O     O_R   0.709831 0.087954 0.647317 -0.797487
O77   O     O_2   0.321661 0.056828 0.463373 -0.620807
O78   O     O_R   0.444560 0.000090 0.495640 -0.613993
O79   O     O_R   0.289596 0.088545 0.356876 -0.798326
O80   O     O_R   0.055430 0.500110 0.606490 -0.616973
Zn1   Zn    Zn3+2 0.500000 0.541780 0.000000 0.976735
Zn2   Zn    Zn3+2 0.000000 0.500080 0.568210 0.982860
Zn3   Zn    Zn3+2 0.500000 0.000080 0.431790 0.982817
Zn4   Zn    Zn3+2 0.500000 0.000080 0.568210 0.983020
Zn5   Zn    Zn3+2 1.000000 0.041780 0.000000 0.975923
Zn6   Zn    Zn3+2 0.500000 0.458200 0.000000 0.968036
Zn7   Zn    Zn3+2 1.000000 0.958200 0.000000 0.967894
Zn8   Zn    Zn3+2 0.541790 0.499990 0.541780 1.005392
Zn9   Zn    Zn3+2 0.458210 0.499990 0.458220 1.009518
Zn10  Zn    Zn3+2 0.041790 0.999990 0.541780 1.008248
Zn11  Zn    Zn3+2 0.958210 0.999990 0.458220 1.006966
Zn12  Zn    Zn3+2 1.000000 0.500080 0.431790 0.982683

loop_
_geom_bond_atom_site_label_1
_geom_bond_atom_site_label_2
_ccdc_geom_bond_type
C99   C103  A    
C21   C26   A    
C133  C137  A    
C138  N12   S    
C175  O38   A    
C107  C112  S    
C157  H107  S    
C136  C140  A    
C89   O68   S    
C61   O44   D    
C66   H84   S    
H126  N4    S    
C135  C139  A    
C183  O8    A    
C124  C133  A    
C50   C59   S    
C79   C99   A    
O29   Zn10  S    
C138  C143  A    
C95   O79   S    
C78   O54   S    
C34   C160  A    
C100  C104  A    
C60   C163  D    
O24   Zn9   S    
C17   C39   A    
C108  O23   A    
C142  C146  A    
C46   H66   S    
C80   O57   S    
C146  C150  A    
C18   C177  S    
C121  C147  A    
C56   H51   S    
H91   N11   S    
C122  C148  A    
C178  O45   A    
C142  N15   S    
C119  O34   A    
C38   H42   S    
C1    O1    A    
C13   H62   S    
O78   Zn4   S    
O27   Zn8   S    
C100  H70   S    
C19   C32   S    
C157  C168  A    
C162  O24   A    
C119  O13   A    
O45   Zn12  S    
C25   C29   A    
C15   C20   T    
H117  N2    S    
C66   N9    S    
O6    Zn2   S    
C70   H98   S    
C83   N5    S    
C6    C184  A    
C91   O69   D    
H95   N12   S    
C86   H23   S    
C118  C149  S    
C132  N10   S    
C66   H86   S    
C45   C173  S    
C67   N10   S    
O12   Zn1   S    
C182  O5    A    
C48   C87   S    
C96   C180  S    
C53   C170  S    
H113  N16   S    
O36   Zn8   S    
C20   C33   S    
O80   Zn2   S    
C22   C27   A    
C153  C168  A    
C10   C182  S    
C65   H80   S    
C30   C162  S    
C37   C161  A    
C75   H119  S    
C70   H97   S    
C178  O80   A    
C55   C172  S    
C140  C145  A    
C116  C147  S    
C93   O73   D    
C95   O77   D    
C125  O14   A    
C126  C141  S    
C62   O48   S    
C98   C181  S    
C144  N2    S    
C58   C141  D    
C76   N3    S    
C49   C53   D    
H7    O61   S    
C177  O43   A    
C51   C55   D    
C83   H11   S    
C68   C98   A    
C87   O63   S    
C48   C52   D    
O11   Zn7   S    
C126  O19   A    
C88   O64   D    
O25   Zn10  S    
C47   C156  A    
C172  O35   A    
O1    Zn1   S    
H26   O63   S    
C140  N14   S    
C92   O72   S    
C103  C107  A    
C45   C154  A    
O13   Zn7   S    
C66   H83   S    
C162  O22   A    
C76   H124  S    
C137  C142  A    
C2    C109  A    
C83   H9    S    
C123  C132  A    
C74   H116  S    
C86   H25   S    
C63   O50   S    
C84   N6    S    
C164  O25   A    
C22   C32   A    
O20   Zn7   S    
C175  O39   A    
C101  H71   S    
C2    H61   S    
C127  O20   A    
C43   C159  T    
C18   C42   A    
C65   N1    S    
C13   C57   A    
C82   O60   D    
C61   C121  S    
C94   O75   D    
C72   H106  S    
C164  O26   A    
C85   H20   S    
O3    Zn4   S    
O15   Zn1   S    
C154  C165  A    
C163  H59   S    
C14   C16   S    
O67   Zn3   S    
C57   H67   S    
C64   O51   D    
C110  C114  S    
C154  H74   S    
C174  H60   S    
C82   O61   S    
H32   O76   S    
C4    C14   A    
C143  N16   S    
C81   O58   D    
C179  O56   A    
C106  C111  A    
C84   H15   S    
C181  O78   A    
O40   Zn12  S    
C88   O65   S    
C34   C39   A    
H27   O65   S    
C108  O11   A    
O39   Zn11  S    
C85   H19   S    
C151  C165  A    
H87   N10   S    
C73   H110  S    
H29   O70   S    
C40   H44   S    
C5    C9    A    
C95   C106  S    
C85   N7    S    
C86   N8    S    
O35   Zn10  S    
C132  C136  A    
C159  C161  S    
H8    N5    S    
H76   O50   S    
C131  N9    S    
C23   C28   A    
C113  C117  T    
C73   N15   S    
C77   H127  S    
C26   C30   A    
H109  N15   S    
C74   H114  S    
C97   C135  S    
C55   H50   S    
C122  C131  A    
C62   C122  S    
H28   O68   S    
C47   C157  A    
H82   N9    S    
C172  O30   A    
C31   C164  S    
O9    Zn6   S    
C52   H47   S    
O17   Zn5   S    
H31   O74   S    
C170  O28   A    
C183  O7    A    
O56   Zn2   S    
C67   H90   S    
C72   H108  S    
O37   Zn9   S    
O2    Zn12  S    
C166  H41   S    
C71   H101  S    
C69   H94   S    
C35   C79   A    
C176  O40   A    
C102  H72   S    
H73   O46   S    
C37   C41   A    
C181  O4    A    
C24   H64   S    
H75   O48   S    
C53   H48   S    
O7    Zn3   S    
C69   N11   S    
C168  H63   S    
C71   H102  S    
C51   C60   S    
C56   C130  D    
C25   C33   A    
C7    C10   A    
C139  N13   S    
C94   C105  S    
C44   C158  T    
H100  N13   S    
C112  C116  T    
C65   H81   S    
C59   C152  D    
C50   C54   D    
C73   H112  S    
H122  N3    S    
C105  C110  A    
C156  H96   S    
C3    C7    A    
O10   Zn6   S    
C126  O15   A    
C72   N14   S    
C70   H99   S    
O21   Zn7   S    
O19   Zn6   S    
C51   C91   S    
C61   O46   S    
C6    H34   S    
C38   C161  A    
O30   Zn11  S    
C182  O6    A    
C57   C96   A    
C21   C78   S    
O8    Zn4   S    
O28   Zn9   S    
C80   O55   D    
C58   H53   S    
C39   H43   S    
C179  O2    A    
C4    C8    A    
C68   H68   S    
C96   C101  A    
C153  C167  A    
C158  C160  S    
C49   C88   S    
C65   H79   S    
C128  O17   A    
C74   N16   S    
C167  H52   S    
O31   Zn9   S    
C28   N7    S    
C59   H54   S    
H104  N14   S    
C84   H14   S    
C78   O53   D    
C141  H57   S    
C17   C40   A    
C128  O21   A    
C169  O27   A    
C50   C89   S    
C12   C15   S    
C177  O42   A    
C60   H55   S    
C36   H39   S    
C5    C14   A    
C69   H92   S    
C42   H46   S    
C107  C174  A    
C71   N13   S    
C129  N1    S    
C117  C148  S    
C25   C82   S    
C97   O10   A    
C43   C151  S    
C70   N12   S    
C77   N4    S    
C124  C150  A    
C23   C81   S    
O14   Zn1   S    
C28   C31   A    
C121  C129  A    
C52   C169  S    
C6    C10   A    
C63   C123  S    
C108  C136  S    
C46   C90   A    
O34   Zn5   S    
O4    Zn3   S    
C120  C150  S    
C91   O70   S    
C29   N8    S    
C98   C102  A    
C5    H24   S    
C12   C184  A    
C16   C19   T    
C94   O76   S    
C24   C68   A    
H30   O72   S    
C129  C134  A    
C9    H37   S    
C180  O67   A    
C29   C31   A    
C75   H120  S    
C64   O52   S    
C145  C149  A    
C170  O32   A    
C123  C149  A    
O18   Zn6   S    
C27   N6    S    
O43   Zn4   S    
C71   H103  S    
H5    O57   S    
O41   Zn2   S    
C144  C148  A    
C86   H22   S    
H4    O54   S    
O26   Zn11  S    
O38   Zn10  S    
C93   O74   S    
C84   H16   S    
C143  C147  A    
H77   O52   S    
C130  H56   S    
C62   O47   D    
H17   N7    S    
C44   C153  S    
C38   C42   A    
C131  C135  A    
C104  C109  A    
C75   H121  S    
C155  C166  A    
C35   H65   S    
C3    C12   A    
C2    C46   A    
C92   C103  S    
C63   O49   D    
H21   N8    S    
C125  C130  S    
C176  O41   A    
C23   C33   A    
O33   Zn11  S    
C45   C155  A    
C97   O12   A    
C17   C176  S    
C109  C113  S    
C133  N11   S    
C76   H123  S    
C7    H35   S    
O5    Zn12  S    
C27   C30   A    
H78   N1    S    
C74   H115  S    
C24   C111  A    
O32   Zn8   S    
C93   C104  S    
C90   C100  A    
C155  H85   S    
C101  C105  A    
C21   C32   A    
C173  O37   A    
C119  C137  S    
C36   C40   A    
C11   C183  S    
C89   O66   D    
C171  O33   A    
C18   C41   A    
C156  C167  A    
H6    O59   S    
C128  C163  S    
C165  H1    S    
C49   C58   S    
C67   H89   S    
C72   H105  S    
C152  H58   S    
C13   C110  A    
C8    H36   S    
C127  C152  S    
C139  C144  A    
C173  O36   A    
H12   N6    S    
C69   H93   S    
C125  O18   A    
C79   C178  S    
O16   Zn5   S    
C9    C11   A    
C114  C118  T    
C85   H18   S    
C4    H13   S    
C26   N5    S    
C41   H45   S    
C77   H3    S    
C64   C124  S    
C81   O59   S    
C67   H88   S    
C1    O9    A    
C1    C134  S    
C3    H2    S    
O42   Zn3   S    
H33   O79   S    
C48   C56   S    
C92   O71   D    
C90   C179  S    
O22   Zn8   S    
O23   Zn5   S    
C35   C174  A    
C54   C171  S    
C169  O31   A    
C37   H40   S    
C134  C138  A    
C171  O29   A    
C151  C166  A    
C73   H111  S    
C180  O3    A    
C83   H10   S    
C22   C80   S    
C99   H69   S    
C87   O62   D    
C145  N3    S    
C8    C11   A    
C146  N4    S    
C102  C106  A    
C47   C175  S    
C127  O16   A    
C75   N2    S    
C36   C160  A    
C76   H125  S    
C77   H128  S    
C115  C120  T    
C111  C115  S    
C54   H49   S    
C34   H38   S    
C184  H118  S    
