data_mof_unit_24475.cif
_audit_creation_date              2012-12-10T20:51:44-0500
_audit_creation_method            fapswitch 2.2
_symmetry_space_group_name_H-M    P1
_symmetry_Int_Tables_number       1
_space_group_crystal_system       triclinic
_cell_length_a                    8.101651
_cell_length_b                    8.921828
_cell_length_c                    16.899467
_cell_angle_alpha                 90.126415
_cell_angle_beta                  94.087675
_cell_angle_gamma                 89.849098
_cell_volume                      1218.40534923

loop_
_atom_site_label
_atom_site_type_symbol
_atom_type_description
_atom_site_fract_x
_atom_site_fract_y
_atom_site_fract_z
_atom_type_partial_charge
C1    C     C_R   0.500096 0.217994 0.499854 0.968118
C2    C     C_R   0.628604 0.438994 0.146742 0.118425
C3    C     C_R   0.553001 0.448017 0.901772 0.136709
C4    C     C_R   0.524660 0.538456 0.100990 0.118440
C5    C     C_R   0.636508 0.568903 0.867659 0.121803
C6    C     C_R   0.398046 0.618080 0.135240 0.106801
C7    C     C_R   0.623133 0.586627 0.785304 0.247091
C8    C     C_R   0.373318 0.598376 0.215764 0.248755
C9    C     C_1   0.500186 0.065214 0.499948 -0.088000
C10   C     C_1   0.499825 0.934793 0.500033 -0.099418
C11   C     C_3   0.922378 0.463439 0.135650 -0.647988
C12   C     C_R   0.499900 0.782007 0.500082 0.956917
C13   C     C_3   0.523440 0.088341 0.904760 -0.696303
C14   C     C_3   0.905960 0.620500 0.931198 -0.699146
C15   C     C_3   0.366895 0.867933 0.082568 -0.663630
C16   C     C_R   0.520826 0.497683 0.653189 1.033429
C17   C     C_R   0.479700 0.498462 0.346492 1.006029
C18   C     C_R   0.533913 0.480906 0.738099 -0.260485
C19   C     C_R   0.474458 0.496675 0.260591 -0.286910
C20   C     C_R   0.463756 0.354177 0.771528 0.252292
C21   C     C_R   0.595388 0.411401 0.224833 0.298911
C22   C     C_R   0.475255 0.337125 0.853788 0.106512
Cl1   Cl    Cl    0.708781 0.268018 0.277293 -0.554468
Cl2   Cl    Cl    0.369091 0.212235 0.710472 -0.590566
Cl3   Cl    Cl    0.716574 0.742331 0.741490 -0.598695
Cl4   Cl    Cl    0.226072 0.711153 0.260855 -0.601679
H1    H     H_    0.766002 0.333827 0.060835 0.240419
H2    H     H_    0.971935 0.698856 0.973554 0.229015
H3    H     H_    0.969828 0.619507 0.875142 0.270581
H4    H     H_    0.910777 0.506404 0.957466 0.236302
H5    H     H_    0.174935 0.721406 0.100277 0.257924
H6    H     H_    0.376227 0.922596 0.141869 0.275492
H7    H     H_    0.285456 0.937203 0.041540 0.227181
H8    H     H_    0.491793 0.862190 0.059500 0.240772
H9    H     H_    0.030805 0.405283 0.112901 0.225522
H10   H     H_    0.945567 0.477797 0.200800 0.296728
H11   H     H_    0.908920 0.575439 0.107347 0.225037
H12   H     H_    0.295376 0.173615 0.862503 0.278290
H13   H     H_    0.573497 0.050090 0.848553 0.283381
H14   H     H_    0.626866 0.125236 0.946973 0.234208
H15   H     H_    0.460651 0.992207 0.931038 0.229693
H16   H     H_    0.726166 0.780290 0.900102 0.267569
N1    N     N_1   0.073640 0.500030 0.499990 0.009370
N2    N     N_1   0.926360 0.499970 0.500010 0.009606
N3    N     N_2   0.538545 0.435448 0.984069 -0.149604
N4    N     N_2   0.541561 0.557515 0.019611 -0.109121
N5    N     N_2   0.774592 0.375556 0.117682 -0.258458
N6    N     N_2   0.406440 0.209415 0.889560 -0.278464
N7    N     N_2   0.736232 0.669095 0.916209 -0.275762
N8    N     N_2   0.297599 0.719399 0.087810 -0.288447
O1    O     O_R   0.636850 0.285340 0.500000 -0.607686
O2    O     O_R   0.363150 0.714660 0.500000 -0.607490
O3    O     O_R   0.363100 0.285350 0.500000 -0.604705
O4    O     O_R   0.636900 0.714650 0.500000 -0.609795
O5    O     O_R   0.652140 0.498630 0.616140 -0.592662
O6    O     O_R   0.347860 0.501370 0.383860 -0.581617
O7    O     O_R   0.378390 0.498650 0.616130 -0.596139
O8    O     O_R   0.621610 0.501350 0.383870 -0.593737
Zn1   Zn    Zn3+2 0.682780 0.499990 0.500010 1.090620
Zn2   Zn    Zn3+2 0.317220 0.500010 0.499990 1.093036

loop_
_geom_bond_atom_site_label_1
_geom_bond_atom_site_label_2
_ccdc_geom_bond_type
C13   N6    S    
C2    C4    A    
N1    N2    T    
C11   H11   S    
O5    Zn1   S    
C2    N5    S    
C8    Cl4   S    
C9    C10   T    
C15   H8    S    
C11   N5    S    
C7    Cl3   S    
C17   O8    A    
C16   O7    A    
C7    C18   A    
C2    C21   A    
C13   H15   S    
C16   O5    A    
C15   H6    S    
N2    Zn1   S    
C16   C18   S    
C4    N4    S    
N3    N4    D    
C6    N8    S    
C1    O1    A    
C17   O6    A    
C5    N7    S    
C10   C12   S    
N1    Zn2   S    
C14   H4    S    
C13   H14   S    
C11   H9    S    
C11   H10   S    
C12   O2    A    
O3    Zn2   S    
C20   C22   A    
C22   N6    S    
C18   C20   A    
O4    Zn1   S    
C21   Cl1   S    
C13   H13   S    
C8    C19   A    
O1    Zn1   S    
O6    Zn2   S    
H16   N7    S    
C14   N7    S    
C3    C5    A    
O7    Zn2   S    
C1    C9    S    
C4    C6    A    
C15   N8    S    
H1    N5    S    
C5    C7    A    
C1    O3    A    
C17   C19   S    
C3    C22   A    
C6    C8    A    
H5    N8    S    
O2    Zn2   S    
C14   H2    S    
O8    Zn1   S    
H12   N6    S    
C3    N3    S    
C12   O4    A    
C20   Cl2   S    
C15   H7    S    
C14   H3    S    
C19   C21   A    
