data_mof_unit_21875.cif
_audit_creation_date              2012-12-10T17:54:18-0500
_audit_creation_method            fapswitch 2.2
_symmetry_space_group_name_H-M    P1
_symmetry_Int_Tables_number       1
_space_group_crystal_system       triclinic
_cell_length_a                    27.251358
_cell_length_b                    10.805847
_cell_length_c                    10.03487
_cell_angle_alpha                 91.699641
_cell_angle_beta                  93.677097
_cell_angle_gamma                 95.492459
_cell_volume                      2933.47914798

loop_
_atom_site_label
_atom_site_type_symbol
_atom_type_description
_atom_site_fract_x
_atom_site_fract_y
_atom_site_fract_z
_atom_type_partial_charge
C1    C     C_R   0.504329 0.262639 0.499328 0.950487
C2    C     C_R   0.987148 0.565821 0.630216 0.029449
C3    C     C_R   0.981570 0.714401 0.449549 0.059439
C4    C     C_R   0.406110 0.502119 0.496615 0.961295
C5    C     C_R   0.958447 0.632076 0.539444 0.048048
C6    C     C_R   0.962960 0.466958 0.700470 -0.036883
C7    C     C_R   0.911518 0.453112 0.698819 -0.222517
C8    C     C_R   0.883049 0.525724 0.617931 -0.017910
C9    C     C_R   0.906323 0.613868 0.536306 -0.052012
C10   C     C_R   0.877395 0.682662 0.450231 -0.023859
C11   C     C_R   0.825794 0.661759 0.447442 0.517035
C12   C     C_R   0.266190 0.485852 0.481998 -0.049742
C13   C     C_R   0.831399 0.506824 0.610897 0.522353
C14   C     C_R   0.726188 0.581431 0.633165 -0.076229
C15   C     C_R   0.675035 0.560959 0.628537 -0.149937
C16   C     C_R   0.500799 0.740428 0.501628 0.965865
C17   C     C_R   0.673744 0.482450 0.399286 -0.167998
C18   C     C_R   0.725088 0.502313 0.404211 -0.077783
C19   C     C_R   0.751344 0.552705 0.520968 0.281414
C20   C     C_R   0.038763 0.599423 0.644041 0.067685
C21   C     C_R   0.062141 0.664061 0.541708 0.075462
C22   C     C_R   0.033555 0.719788 0.441953 0.053599
C23   C     C_R   0.261284 0.614816 0.497019 0.198972
C24   C     C_R   0.067473 0.572378 0.758348 -0.194399
C25   C     C_R   0.108243 0.773418 0.324513 0.000875
C26   C     C_R   0.951683 0.785830 0.368254 -0.204628
C27   C     C_R   0.900490 0.770239 0.368968 -0.126100
C28   C     C_R   0.594271 0.501035 0.503678 0.920014
C29   C     C_R   0.057605 0.775913 0.336004 -0.273203
C30   C     C_R   0.555528 0.149381 0.724116 -0.264802
C31   C     C_R   0.560435 0.095938 0.848431 -0.040293
C32   C     C_R   0.551680 0.966136 0.852734 -0.032315
C33   C     C_R   0.549588 0.896299 0.731953 0.013846
C34   C     C_R   0.114192 0.670798 0.538605 -0.077040
C35   C     C_R   0.529622 0.947943 0.614635 0.055691
C36   C     C_R   0.532614 0.078250 0.611828 0.079991
C37   C     C_R   0.512699 0.133405 0.497712 -0.051458
C38   C     C_R   0.494338 0.062501 0.384777 -0.215819
C39   C     C_R   0.487363 0.935203 0.388639 -0.053476
C40   C     C_R   0.194032 0.628459 0.636980 0.552867
C41   C     C_R   0.505624 0.875699 0.503181 -0.102982
C42   C     C_R   0.439049 0.306044 0.111533 -0.068469
C43   C     C_R   0.423628 0.198078 0.028616 -0.179488
C44   C     C_R   0.427055 0.204792 0.890395 -0.055051
C45   C     C_R   0.142741 0.625370 0.646840 -0.062803
C46   C     C_R   0.441300 0.319467 0.838865 -0.106988
C47   C     C_R   0.468374 0.414363 0.917925 0.077399
C48   C     C_R   0.468967 0.409535 0.061575 0.035961
C49   C     C_R   0.534084 0.573119 0.077162 0.075118
C50   C     C_R   0.538883 0.552058 0.937492 -0.014320
C51   C     C_R   0.188370 0.708740 0.418475 0.516649
C52   C     C_R   0.302707 0.701514 0.505562 -0.021369
C53   C     C_R   0.349422 0.661774 0.502656 -0.150067
C54   C     C_R   0.314074 0.445030 0.482183 -0.119562
C55   C     C_2   0.320636 0.310552 0.473726 0.555272
C56   C     C_R   0.118691 0.578376 0.759167 0.004377
C57   C     C_2   0.127869 0.828189 0.203106 0.517084
C58   C     C_2   0.573020 0.178846 0.968562 0.384740
C59   C     C_2   0.220512 0.397401 0.471808 0.430616
C60   C     C_2   0.535381 0.904756 0.973759 0.263332
C61   C     C_2   0.586106 0.803918 0.724550 0.450526
C62   C     C_2   0.457018 0.871504 0.273753 0.464536
C63   C     C_2   0.569254 0.674558 0.143455 0.536174
C64   C     C_2   0.405419 0.325204 0.215491 0.499114
C65   C     C_2   0.395487 0.087674 0.083857 0.417516
C66   C     C_2   0.416766 0.093107 0.798386 0.521505
C67   C     C_R   0.137374 0.719806 0.425925 -0.053303
C68   C     C_2   0.588838 0.529420 0.897560 0.284784
C69   C     C_2   0.143478 0.521312 0.874269 0.574446
C70   C     C_2   0.988185 0.363198 0.758557 0.386496
C71   C     C_R   0.355476 0.534868 0.491581 -0.092601
C72   C     C_R   0.648354 0.512063 0.511624 -0.048258
H1    H     H_    0.298669 0.799743 0.519116 0.176869
H2    H     H_    0.744487 0.479250 0.317361 0.159800
H3    H     H_    0.037051 0.814797 0.254539 0.134919
H4    H     H_    0.565192 0.275231 0.966107 0.051217
H5    H     H_    0.186188 0.427107 0.428824 0.070014
H6    H     H_    0.547297 0.942285 0.072969 0.141232
H7    H     H_    0.600938 0.766263 0.815391 0.094892
H8    H     H_    0.462198 0.902575 0.173512 0.072665
H9    H     H_    0.590908 0.736769 0.082217 0.089224
H10   H     H_    0.380402 0.397145 0.203855 0.075644
H11   H     H_    0.404191 0.060426 0.184604 0.117809
H12   H     H_    0.879052 0.826316 0.304172 0.194591
H13   H     H_    0.413864 0.000366 0.837287 0.111511
H14   H     H_    0.435025 0.327281 0.734331 0.264406
H15   H     H_    0.592604 0.452094 0.829816 0.115574
H16   H     H_    0.135748 0.548376 0.975133 0.084193
H17   H     H_    0.656416 0.587966 0.714610 0.204532
H18   H     H_    0.746329 0.621191 0.723350 0.162089
H19   H     H_    0.893596 0.379339 0.754787 0.188948
H20   H     H_    0.973280 0.314998 0.842695 0.067131
H21   H     H_    0.381267 0.730386 0.513172 0.173524
H22   H     H_    0.480503 0.107174 0.296789 0.156000
H23   H     H_    0.567531 0.247129 0.718633 0.155801
H24   H     H_    0.049894 0.540545 0.846577 0.127849
H25   H     H_    0.296643 0.248405 0.405649 0.108540
H26   H     H_    0.124613 0.925601 0.184682 0.063202
H27   H     H_    0.966951 0.856595 0.304958 0.150287
H28   H     H_    0.653946 0.444956 0.307631 0.183020
N1    N     N_R   0.214005 0.656123 0.519269 -0.370740
N2    N     N_R   0.804011 0.574286 0.526352 -0.357551
N3    N     N_R   0.499540 0.498800 0.142780 -0.134215
N4    N     N_R   0.499520 0.498720 0.857170 -0.144860
O1    O     O_R   0.500000 0.316780 0.614690 -0.665047
O2    O     O_R   0.571250 0.499990 0.614680 -0.670194
O3    O     O_R   0.571240 0.499970 0.385350 -0.571549
O4    O     O_2   0.224252 0.602399 0.741880 -0.467703
O5    O     O_2   0.352140 0.267429 0.545334 -0.496442
O6    O     O_2   0.144297 0.763178 0.118451 -0.538183
O7    O     O_2   0.593755 0.142520 0.069340 -0.573732
O8    O     O_2   0.219928 0.293279 0.515988 -0.525250
O9    O     O_2   0.505374 0.813072 0.962821 -0.602811
O10   O     O_2   0.602753 0.776752 0.618639 -0.573209
O11   O     O_2   0.423808 0.790514 0.290485 -0.553178
O12   O     O_2   0.808626 0.420428 0.686464 -0.546918
O13   O     O_2   0.575290 0.693837 0.263086 -0.525303
O14   O     O_2   0.402691 0.256700 0.309745 -0.589538
O15   O     O_2   0.360320 0.030552 0.020298 -0.520057
O16   O     O_2   0.413236 0.102720 0.677334 -0.527810
O17   O     O_2   0.626547 0.585855 0.949236 -0.620358
O18   O     O_2   0.168866 0.435727 0.857421 -0.476127
O19   O     O_2   0.023787 0.325439 0.708033 -0.526363
O20   O     O_2   0.212420 0.747334 0.311793 -0.482285
O21   O     O_2   0.797574 0.728364 0.366997 -0.533734
O22   O     O_R   0.500000 0.316750 0.385360 -0.608853
O23   O     O_R   0.428760 0.500030 0.614650 -0.611950
O24   O     O_R   0.428750 0.500010 0.385320 -0.615036
O25   O     O_R   0.500000 0.683250 0.614640 -0.615896
O26   O     O_R   0.500000 0.683220 0.385310 -0.539574
Zn1   Zn    Zn3+2 0.500000 0.500020 0.653130 0.975048
Zn2   Zn    Zn3+2 0.500000 0.499980 0.346870 1.047569

loop_
_geom_bond_atom_site_label_1
_geom_bond_atom_site_label_2
_ccdc_geom_bond_type
C10   C27   A    
C50   N4    A    
C8    C13   A    
C49   C63   S    
C22   C29   A    
C44   C66   S    
C35   C36   A    
C25   C67   A    
C59   H5    S    
C66   H13   S    
C58   H4    S    
C7    C8    A    
C39   C41   A    
C2    C6    A    
C15   C72   A    
C12   C23   A    
C60   H6    S    
C26   C27   A    
C30   H23   S    
C63   H9    S    
C31   C58   S    
C62   H8    S    
C27   H12   S    
C11   O21   S    
C24   H24   S    
C30   C31   A    
C63   O13   D    
C19   N2    S    
C65   H11   S    
C23   N1    S    
C28   O3    A    
C64   O14   D    
O2    Zn1   S    
C18   C19   A    
C14   H18   S    
C40   N1    A    
C46   C47   A    
C12   C59   S    
C70   O19   D    
C54   C71   A    
C47   C48   A    
C45   C56   A    
C28   O2    A    
C8    C9    A    
N4    Zn1   S    
C16   O26   A    
C9    C10   A    
C1    C37   S    
C26   H27   S    
C40   O4    S    
C18   H2    S    
C66   O16   D    
C21   C22   A    
C55   O5    D    
C51   O20   S    
C55   H25   S    
C60   O9    D    
C28   C72   S    
C25   C57   S    
O24   Zn2   S    
C44   C46   A    
C59   O8    D    
C3    C26   A    
C25   C29   A    
C40   C45   A    
C4    O24   A    
C53   H21   S    
C58   O7    D    
C20   C24   A    
C1    O22   A    
O1    Zn1   S    
C52   H1    S    
C42   C48   A    
C21   C34   A    
C48   N3    A    
C2    C20   A    
C68   O17   D    
O26   Zn2   S    
C43   C44   A    
C5    C9    A    
C37   C38   A    
C15   H17   S    
C57   O6    D    
O22   Zn2   S    
C43   C65   S    
C7    H19   S    
C38   H22   S    
C17   C18   A    
C65   O15   D    
C34   C45   A    
C51   C67   A    
C16   O25   A    
C64   H10   S    
C69   H16   S    
C49   C50   A    
C2    C5    A    
C24   C56   A    
C42   C43   A    
C32   C60   S    
C53   C71   A    
C42   C64   S    
C52   C53   A    
N3    Zn2   S    
C6    C70   S    
C39   C62   S    
C54   C55   S    
C36   C37   A    
C47   N4    A    
C4    O23   A    
C14   C19   A    
C31   C32   A    
C70   H20   S    
O3    Zn2   S    
C3    C5    A    
C34   C67   A    
C49   N3    A    
C6    C7    A    
C29   H3    S    
C51   N1    A    
C30   C36   A    
C32   C33   A    
C62   O11   D    
C23   C52   A    
C38   C39   A    
C69   O18   D    
C61   H7    S    
C57   H26   S    
C33   C35   A    
C11   N2    A    
C35   C41   A    
C17   H28   S    
O23   Zn1   S    
C13   O12   S    
C10   C11   A    
C20   C21   A    
C17   C72   A    
C33   C61   S    
C56   C69   S    
C61   O10   D    
C68   H15   S    
C14   C15   A    
C3    C22   A    
C46   H14   S    
C13   N2    A    
C50   C68   S    
C16   C41   S    
C4    C71   S    
C12   C54   A    
C1    O1    A    
O25   Zn1   S    
