data_mof_unit_41090.cif
_audit_creation_date              2012-12-11T15:55:42-0500
_audit_creation_method            fapswitch 2.2
_symmetry_space_group_name_H-M    P1
_symmetry_Int_Tables_number       1
_space_group_crystal_system       triclinic
_cell_length_a                    8.470033
_cell_length_b                    18.964246
_cell_length_c                    19.123349
_cell_angle_alpha                 99.768882
_cell_angle_beta                  95.433584
_cell_angle_gamma                 91.546038
_cell_volume                      3010.69696214

loop_
_atom_site_label
_atom_site_type_symbol
_atom_type_description
_atom_site_fract_x
_atom_site_fract_y
_atom_site_fract_z
_atom_type_partial_charge
Ba1   Ba    Ba6+2 0.152460 0.535140 0.468980 1.902047
Ba2   Ba    Ba6+2 0.657710 0.464850 0.530960 1.918033
C1    C     C_3   0.283908 0.704635 0.215019 0.270487
C2    C     C_R   0.097440 0.901667 0.573531 0.438097
C3    C     C_R   0.196146 0.059033 0.590469 -0.012485
C4    C     C_3   0.846045 0.725754 0.301352 0.658504
C5    C     C_R   0.056768 0.028002 0.549256 0.078023
C6    C     C_R   0.251307 0.128194 0.588171 -0.131032
C7    C     C_R   0.164516 0.173155 0.549385 -0.025145
C8    C     C_R   0.017773 0.146865 0.510668 0.016119
C9    C     C_R   0.964905 0.073951 0.511163 0.063359
C10   C     C_R   0.217625 0.244705 0.551764 0.030770
C11   C     C_R   0.112585 0.292127 0.523953 -0.225957
C12   C     C_3   0.341585 0.687339 0.287963 0.495696
C13   C     C_R   0.971248 0.268170 0.480275 0.076070
C14   C     C_R   0.924325 0.192664 0.471486 -0.027902
C15   C     C_R   0.848008 0.931020 0.513025 0.000999
C16   C     C_3   0.771801 0.769396 0.246988 0.629554
C17   C     C_R   0.787130 0.858592 0.508892 0.008508
C18   C     C_R   0.884212 0.808034 0.537403 -0.024636
C19   C     C_R   0.032660 0.832360 0.573043 -0.046248
C20   C     C_R   0.789780 0.158809 0.426385 0.410521
C21   C     C_R   0.738815 0.089436 0.430034 -0.069336
C22   C     C_R   0.817250 0.048099 0.475384 0.006021
C23   C     C_3   0.497949 0.693367 0.687156 0.892750
C24   C     C_R   0.753367 0.980038 0.482347 0.014239
C25   C     C_R   0.593301 0.961160 0.461242 -0.027585
C26   C     C_R   0.629382 0.837157 0.476352 -0.056830
C27   C     C_R   0.530728 0.892288 0.457431 0.419545
C28   C     C_3   0.847763 0.357019 0.295156 0.500557
C29   C     C_R   0.581817 0.762559 0.464521 0.022131
C30   C     C_R   0.690375 0.712925 0.484762 -0.184278
C31   C     C_R   0.834292 0.733959 0.526179 0.075765
C32   C     C_R   0.594382 0.534122 0.302323 0.125931
C33   C     C_R   0.449118 0.497152 0.276494 0.026438
C34   C     C_3   0.407410 0.761060 0.707478 -0.296374
C35   C     C_R   0.395319 0.489831 0.202647 0.298584
C36   C     C_R   0.493993 0.514645 0.155596 0.081664
C37   C     C_R   0.643879 0.546716 0.182151 -0.123561
C38   C     C_R   0.694971 0.555160 0.254889 -0.041980
C39   C     C_R   0.430784 0.560305 0.040605 0.337979
C40   C     C_3   0.871843 0.327070 0.216278 0.607127
C41   C     C_R   0.375441 0.548286 0.967584 -0.085049
C42   C     C_R   0.335392 0.478973 0.929643 -0.069038
C43   C     C_R   0.341256 0.420957 0.967545 0.332690
C44   C     C_R   0.403247 0.431983 0.039742 0.426559
C45   C     C_3   0.922860 0.253934 0.698154 0.662442
C46   C     C_R   0.444292 0.501990 0.077258 -0.015772
C47   C     C_R   0.147090 0.435089 0.820059 -0.072111
C48   C     C_R   0.105000 0.425192 0.746422 0.058346
C49   C     C_R   0.349806 0.490470 0.731534 -0.079293
C50   C     C_R   0.395235 0.497062 0.805539 0.272778
C51   C     C_R   0.293836 0.468846 0.850452 0.012024
C52   C     C_3   0.065741 0.636340 0.691484 0.617615
C53   C     C_R   0.209888 0.450657 0.702340 -0.220996
C54   C     C_3   0.116528 0.664731 0.771234 0.306393
C55   C     C_3   0.262092 0.314068 0.351372 0.636740
C56   C     C_3   0.997204 0.231697 0.767004 0.287963
C57   C     C_3   0.256130 0.232768 0.322665 0.233667
C58   C     C_3   0.451693 0.310438 0.720712 0.616278
C59   C     C_3   0.525384 0.302349 0.794730 -0.120341
C60   C     C_R   0.003201 0.954004 0.546086 0.050229
Cl1   Cl    Cl    0.843113 0.394176 0.161629 -0.549264
Cl2   Cl    Cl    0.970629 0.782245 0.369464 -0.594922
Cl3   Cl    Cl    0.679568 0.191531 0.357180 -0.585861
Cl4   Cl    Cl    0.326422 0.885979 0.428725 -0.541852
Cl5   Cl    Cl    0.579193 0.541093 0.841400 -0.555237
Cl6   Cl    Cl    0.267256 0.334079 0.927344 -0.564890
Cl7   Cl    Cl    0.437980 0.356563 0.081674 -0.398683
Cl8   Cl    Cl    0.663237 0.841876 0.289012 -0.566563
Cl9   Cl    Cl    0.650255 0.371811 0.290153 -0.696626
Cl10  Cl    Cl    0.058766 0.292961 0.200758 -0.560428
Cl11  Cl    Cl    0.955131 0.556121 0.683142 -0.608356
Cl12  Cl    Cl    0.963899 0.660307 0.828999 -0.447963
Cl13  Cl    Cl    0.366790 0.327234 0.434893 -0.674149
Cl14  Cl    Cl    0.695154 0.714861 0.723511 -0.527629
Cl15  Cl    Cl    0.485230 0.675484 0.592965 -0.740578
Cl16  Cl    Cl    0.811485 0.178971 0.645945 -0.643418
Cl17  Cl    Cl    0.853034 0.203428 0.819904 -0.498333
H1    H     H_    0.271188 0.639110 0.294687 -0.035175
H2    H     H_    0.469397 0.675334 0.289068 -0.139309
H3    H     H_    0.281235 0.654882 0.174636 0.034234
H4    H     H_    0.409318 0.775191 0.766367 0.141582
H5    H     H_    0.462579 0.806825 0.687822 0.116182
H6    H     H_    0.282766 0.753363 0.683346 0.049860
H7    H     H_    0.686669 0.733208 0.208618 0.086466
H8    H     H_    0.014892 0.268409 0.664998 -0.114993
H9    H     H_    0.075445 0.186311 0.753856 0.047071
H10   H     H_    0.068429 0.277496 0.799685 0.078589
H11   H     H_    0.480491 0.365934 0.713796 0.031027
H12   H     H_    0.784450 0.281885 0.194979 0.156960
H13   H     H_    0.471797 0.340641 0.834664 0.108490
H14   H     H_    0.652897 0.317250 0.803566 0.153645
H15   H     H_    0.504569 0.246951 0.804551 0.172949
H16   H     H_    0.148497 0.348249 0.531300 0.072544
H17   H     H_    0.360140 0.146946 0.620731 0.127533
H18   H     H_    0.105498 0.796485 0.598237 0.076913
H19   H     H_    0.655425 0.656620 0.473683 0.127405
H20   H     H_    0.262693 0.033256 0.628768 0.167207
H21   H     H_    0.638901 0.066438 0.393025 0.136464
H22   H     H_    0.747872 0.703593 0.327143 -0.175993
H23   H     H_    0.171719 0.625677 0.662896 -0.085071
H24   H     H_    0.511624 0.001143 0.448691 0.112656
H25   H     H_    0.364397 0.593468 0.939813 0.144751
H26   H     H_    0.062894 0.418491 0.853952 0.134272
H27   H     H_    0.722848 0.563067 0.145904 0.153519
H28   H     H_    0.174565 0.445936 0.645810 0.065088
H29   H     H_    0.919574 0.406948 0.316257 -0.001228
H30   H     H_    0.113338 0.149854 0.313502 0.341006
H31   H     H_    0.341678 0.764801 0.149008 0.344726
H32   H     H_    0.270074 0.246496 0.713740 0.268678
H33   H     H_    0.307273 0.872419 0.607583 0.310906
H34   H     H_    0.160261 0.721271 0.778948 0.040167
H35   H     H_    0.456810 0.663178 0.043847 0.336389
H36   H     H_    0.209113 0.427939 0.205132 0.378730
H37   H     H_    0.722690 0.508151 0.380075 0.318096
H38   H     H_    0.949488 0.834538 0.240731 0.372261
H39   H     H_    0.212994 0.632415 0.790604 0.003006
H40   H     H_    0.143123 0.334223 0.357057 -0.010306
H41   H     H_    0.162121 0.724460 0.215633 0.141692
H42   H     H_    0.352550 0.205810 0.350037 0.119479
H43   H     H_    0.275589 0.221881 0.265281 0.171887
O1    O     O_2   0.118870 0.674530 0.547560 -0.459935
O2    O     O_2   0.782487 0.445137 0.744958 -0.386828
O3    O     O_3   0.818711 0.309177 0.714621 -0.602770
O4    O     O_3   0.870460 0.585330 0.542110 -0.426142
O5    O     O_3   0.436130 0.464210 0.414140 -0.374332
O6    O     O_2   0.629420 0.533310 0.672080 -0.312496
O7    O     O_3   0.435862 0.638559 0.719581 -0.651110
O8    O     O_2   0.542583 0.239884 0.530943 -0.399152
O9    O     O_3   0.512393 0.261482 0.667133 -0.544411
O10   O     O_3   0.354280 0.631750 0.418430 -0.463540
O11   O     O_2   0.253922 0.754467 0.473884 -0.374835
O12   O     O_3   0.338645 0.351363 0.306147 -0.554405
O13   O     O_3   0.974361 0.685776 0.661250 -0.586713
O14   O     O_3   0.317245 0.745519 0.341527 -0.490916
O15   O     O_2   0.180880 0.466650 0.327890 -0.517223
O16   O     O_3   0.939000 0.596010 0.380670 -0.455776
O17   O     O_2   0.021077 0.541215 0.252245 -0.429634
O18   O     O_3   0.109778 0.201765 0.332557 -0.724297
O19   O     O_3   0.384510 0.756936 0.197067 -0.643224
O20   O     O_3   0.287976 0.298984 0.718252 -0.844724
O21   O     O_3   0.256970 0.915878 0.595272 -0.732041
O22   O     O_3   0.472925 0.628504 0.077010 -0.721655
O23   O     O_3   0.939964 0.673375 0.266179 -0.637224
O24   O     O_3   0.248994 0.458837 0.173730 -0.637749
O25   O     O_3   0.643081 0.544573 0.373898 -0.723599
O26   O     O_3   0.886983 0.795098 0.208260 -0.668731
O27   O     O_2   0.691430 0.325420 0.452420 -0.347165
O28   O     O_3   0.939830 0.414660 0.457830 -0.529328
O29   O     O_3   0.456020 0.368240 0.581510 -0.452845
O30   O     O_3   0.868088 0.305206 0.338992 -0.552118
O31   O     O_3   0.374170 0.535780 0.585810 -0.433393
O32   O     O_3   0.871300 0.403980 0.619270 -0.446261
P1    P     P_3+3 0.947550 0.663200 0.567530 1.107379
P2    P     P_3+3 0.354660 0.445020 0.336980 1.155685
P3    P     P_3+3 0.897911 0.589734 0.288377 1.027291
P4    P     P_3+3 0.862750 0.336790 0.432410 1.131003
P5    P     P_3+3 0.899867 0.393531 0.708209 1.042307
P6    P     P_3+3 0.380344 0.723946 0.425219 1.151884
P7    P     P_3+3 0.447858 0.548647 0.676744 1.131261
P8    P     P_3+3 0.429604 0.277053 0.583562 1.088864

loop_
_geom_bond_atom_site_label_1
_geom_bond_atom_site_label_2
_ccdc_geom_bond_type
Ba2   O28   S    
C37   H27   S    
C16   Cl8   S    
C25   C27   A    
C17   C18   A    
C1    O19   S    
Ba1   O10   S    
C23   O7    S    
C2    O21   S    
C28   Cl9   S    
C5    C60   A    
O1    P1    D    
C43   C44   A    
C42   C43   A    
C5    C9    A    
C10   C11   A    
H36   O24   S    
C24   C25   A    
O10   P6    S    
C11   H16   S    
H38   O26   S    
C32   C38   A    
C15   C24   A    
H33   O21   S    
C26   C27   A    
C33   C35   A    
C22   C24   A    
C32   C33   A    
C16   O26   S    
C36   C37   A    
C59   H14   S    
C55   C57   S    
C34   H4    S    
C13   C14   A    
O2    P5    D    
C2    C60   A    
C9    C22   A    
O13   P1    S    
Ba1   Ba2   S    
C4    H22   S    
C4    Cl2   S    
Ba1   P1    S    
C41   H25   S    
C44   Cl7   S    
H32   O20   S    
C58   O20   S    
C42   C51   S    
O12   P2    S    
C3    H20   S    
C6    C7    A    
C6    H17   S    
C54   H34   S    
O3    P5    S    
C12   H1    S    
C35   O24   S    
O27   P4    D    
C36   C46   S    
C29   P6    S    
C59   H13   S    
Ba2   P4    S    
C55   H40   S    
O4    P1    S    
O8    P8    D    
C57   H43   S    
C21   H21   S    
Ba2   O32   S    
C39   C41   A    
C43   Cl6   S    
C58   O9    S    
C56   H10   S    
Ba2   O27   S    
C45   O3    S    
C44   C46   A    
C4    C16   S    
C52   C54   S    
C54   Cl12  S    
C49   C50   A    
C38   P3    S    
Ba1   O4    S    
C13   P4    S    
C8    C9    A    
C37   C38   A    
C3    C5    A    
C4    O23   S    
C59   H15   S    
C47   H26   S    
O9    P8    S    
O15   P2    D    
O31   P7    S    
C58   C59   S    
H35   O22   S    
Ba1   P2    S    
C41   C42   A    
Ba1   O1    S    
C20   Cl3   S    
C35   C36   A    
C15   C60   A    
H37   O25   S    
C52   Cl11  S    
C19   H18   S    
C32   O25   S    
C28   O30   S    
C29   C30   A    
C21   C22   A    
O29   P8    S    
C1    H3    S    
C40   Cl10  S    
O7    P7    S    
Ba1   O28   S    
C16   H7    S    
C33   P2    S    
Ba1   O31   S    
C17   C26   A    
C50   Cl5   S    
C1    C12   S    
C56   Cl17  S    
C39   O22   S    
O30   P4    S    
C18   C31   A    
Ba2   O4    S    
Ba2   O31   S    
H30   O18   S    
C34   H6    S    
C23   Cl15  S    
C55   O12   S    
Ba1   O15   S    
C50   C51   A    
C7    C8    A    
Ba2   O29   S    
C14   C20   A    
O28   P4    S    
C28   H29   S    
C54   H39   S    
C52   H23   S    
C26   C29   A    
Ba1   O5    S    
C56   H9    S    
O5    P2    S    
C3    C6    A    
C31   P1    S    
C58   H11   S    
C48   P5    S    
O23   P3    S    
C48   C53   A    
C45   Cl16  S    
H31   O19   S    
C30   C31   A    
C23   Cl14  S    
C11   C13   A    
O32   P5    S    
C8    C14   A    
Ba2   O5    S    
C45   C56   S    
C2    C19   A    
O16   P3    S    
C55   Cl13  S    
C12   O14   S    
C57   O18   S    
C34   H5    S    
C47   C51   A    
C52   O13   S    
C25   H24   S    
O6    P7    D    
C15   C17   A    
C39   C46   A    
C30   H19   S    
C49   P7    S    
C49   C53   A    
C7    C10   A    
C1    H41   S    
C23   C34   S    
C10   P8    S    
C27   Cl4   S    
O14   P6    S    
C18   C19   A    
O17   P3    D    
C47   C48   A    
C53   H28   S    
C20   C21   A    
C28   C40   S    
C12   H2    S    
C57   H42   S    
C40   Cl1   S    
Ba1   O16   S    
C40   H12   S    
C45   H8    S    
O11   P6    D    
Ba2   O6    S    
