data_mof_unit_7544.cif
_audit_creation_date              2012-12-11T15:39:19-0500
_audit_creation_method            fapswitch 2.2
_symmetry_space_group_name_H-M    P1
_symmetry_Int_Tables_number       1
_space_group_crystal_system       triclinic
_cell_length_a                    17.349023
_cell_length_b                    24.478798
_cell_length_c                    14.843942
_cell_angle_alpha                 90.684516
_cell_angle_beta                  125.405015
_cell_angle_gamma                 89.223509
_cell_volume                      5137.68743016

loop_
_atom_site_label
_atom_site_type_symbol
_atom_type_description
_atom_site_fract_x
_atom_site_fract_y
_atom_site_fract_z
_atom_type_partial_charge
C1    C     C_R   0.314327 0.370978 0.906539 -0.075508
C2    C     C_R   0.646421 0.348040 0.091738 -0.115074
C3    C     C_R   0.814318 0.870989 0.906541 -0.075491
C4    C     C_R   0.146421 0.848040 0.091738 -0.115071
C5    C     C_R   0.314283 0.637401 0.004732 0.038930
C6    C     C_R   0.621072 0.680408 0.000340 0.044464
C7    C     C_R   0.814283 0.137401 0.004732 0.038929
C8    C     C_R   0.121059 0.180412 0.000342 0.044482
C9    C     C_R   0.568629 0.501204 0.370210 0.031551
C10   C     C_R   0.552584 0.500406 0.727283 0.006848
C11   C     C_R   0.068626 0.001203 0.370209 0.031553
C12   C     C_R   0.052585 0.000406 0.727284 0.006850
C13   C     C_R   0.196768 0.500419 0.632609 0.057271
C14   C     C_R   0.825306 0.500182 0.277608 0.067013
C15   C     C_R   0.696768 0.000419 0.632608 0.057272
C16   C     C_R   0.325306 0.000183 0.277606 0.067014
C17   C     C_R   0.070320 0.550984 0.466975 0.167465
C18   C     C_R   0.976733 0.551131 0.377636 0.159388
C19   C     C_R   0.570320 0.050985 0.466974 0.167464
C20   C     C_R   0.476733 0.051132 0.377635 0.159383
C21   C     C_R   0.117057 0.501670 0.516128 0.035982
C22   C     C_R   0.927735 0.501830 0.334411 0.033051
C23   C     C_R   0.617057 0.001671 0.516128 0.035982
C24   C     C_R   0.427735 0.001831 0.334410 0.033053
C25   C     C_R   0.076048 0.453062 0.455726 -0.197033
C26   C     C_R   0.981217 0.453198 0.364359 -0.199496
C27   C     C_R   0.576048 0.953062 0.455725 -0.197032
C28   C     C_R   0.481217 0.953198 0.364358 -0.199497
C29   C     C_3   0.955722 0.601431 0.418842 -0.516762
C30   C     C_3   0.058123 0.601304 0.515902 -0.518389
C31   C     C_3   0.455722 0.101431 0.418840 -0.516763
C32   C     C_3   0.558122 0.101304 0.515900 -0.518384
C33   C     C_R   0.153889 0.678017 0.916992 -0.171338
C34   C     C_R   0.762784 0.716646 0.036404 -0.185160
C35   C     C_R   0.653889 0.178016 0.916994 -0.171340
C36   C     C_R   0.262808 0.216658 0.036535 -0.185154
C37   C     C_R   0.601987 0.221817 0.917084 -0.188946
C38   C     C_R   0.311586 0.258493 0.032005 -0.178106
C39   C     C_R   0.101987 0.721818 0.917083 -0.188952
C40   C     C_R   0.811552 0.758491 0.031883 -0.178056
C41   C     C_R   0.644090 0.257051 0.009118 0.151936
C42   C     C_R   0.267619 0.309383 0.994825 0.143183
C43   C     C_R   0.144089 0.757051 0.009118 0.151934
C44   C     C_R   0.767606 0.809397 0.994823 0.143151
C45   C     C_R   0.404007 0.623817 0.094776 -0.125639
C46   C     C_R   0.558063 0.650679 0.908314 -0.138923
C47   C     C_R   0.904007 0.123817 0.094776 -0.125635
C48   C     C_R   0.058056 0.150681 0.908315 -0.138912
C49   C     C_R   0.725740 0.239248 0.109239 -0.142864
C50   C     C_R   0.173409 0.318340 0.955241 -0.169070
C51   C     C_R   0.225738 0.739248 0.109238 -0.142862
C52   C     C_R   0.673426 0.818366 0.955369 -0.169088
C53   C     C_R   0.274932 0.694303 0.110852 -0.175027
C54   C     C_R   0.623297 0.775623 0.957322 -0.188751
C55   C     C_R   0.774933 0.194304 0.110852 -0.175025
C56   C     C_R   0.123270 0.275604 0.957196 -0.188769
C57   C     C_R   0.244826 0.667643 0.011623 0.143274
C58   C     C_R   0.669643 0.725706 0.000198 0.147184
C59   C     C_R   0.744826 0.167643 0.011623 0.143273
C60   C     C_R   0.169636 0.225708 0.000206 0.147207
C61   C     C_R   0.608663 0.550446 0.631468 -0.162711
C62   C     C_R   0.610713 0.550724 0.539594 -0.168534
C63   C     C_R   0.108662 0.050445 0.631468 -0.162707
C64   C     C_R   0.110711 0.050723 0.539593 -0.168535
C65   C     C_R   0.603458 0.501330 0.486620 0.141037
C66   C     C_R   0.597690 0.500819 0.669116 0.144907
C67   C     C_R   0.103455 0.001330 0.486619 0.141037
C68   C     C_R   0.097691 0.000819 0.669117 0.144907
C69   C     C_R   0.614192 0.451821 0.539737 -0.169884
C70   C     C_R   0.611613 0.451598 0.631176 -0.166179
C71   C     C_R   0.114190 0.951821 0.539736 -0.169882
C72   C     C_R   0.111613 0.951598 0.631177 -0.166180
C73   C     C_R   0.552588 0.455672 0.306295 -0.143717
C74   C     C_R   0.522318 0.454644 0.753130 -0.070097
C75   C     C_R   0.052584 0.955671 0.306293 -0.143712
C76   C     C_R   0.022318 0.954644 0.753130 -0.070100
C77   C     C_R   0.245960 0.545545 0.696013 -0.159036
C78   C     C_R   0.767205 0.545645 0.247139 -0.147879
C79   C     C_R   0.745960 0.045545 0.696013 -0.159037
C80   C     C_R   0.267205 0.045645 0.247137 -0.147878
C81   C     C_R   0.550580 0.546052 0.305127 -0.131032
C82   C     C_R   0.519535 0.545884 0.751714 -0.127644
C83   C     C_R   0.050580 0.046051 0.305127 -0.131036
C84   C     C_R   0.019536 0.045885 0.751716 -0.127643
C85   C     C_R   0.244112 0.454698 0.696034 -0.103458
C86   C     C_R   0.769331 0.454154 0.251680 -0.117816
C87   C     C_R   0.744112 0.954698 0.696033 -0.103457
C88   C     C_R   0.269331 0.954154 0.251679 -0.117816
C89   C     C_R   0.309974 0.624593 0.909986 -0.130550
C90   C     C_R   0.650286 0.650537 0.092175 -0.156026
C91   C     C_R   0.809974 0.124593 0.909986 -0.130550
C92   C     C_R   0.150274 0.150539 0.092176 -0.156054
C93   C     C_R   0.409875 0.367239 0.091906 0.013775
C94   C     C_R   0.554462 0.346962 0.908593 -0.011866
C95   C     C_R   0.909866 0.867247 0.091906 0.013748
C96   C     C_R   0.054462 0.846961 0.908593 -0.011867
C97   C     C_R   0.322246 0.352765 0.998846 -0.100886
C98   C     C_R   0.615775 0.314759 0.001094 -0.059674
C99   C     C_R   0.822229 0.852782 0.998847 -0.100911
C100  C     C_R   0.115775 0.814759 0.001094 -0.059678
H1    H     H_    0.258971 0.362185 0.820939 0.116280
H2    H     H_    0.682061 0.335268 0.176521 0.126242
H3    H     H_    0.758958 0.862198 0.820941 0.116281
H4    H     H_    0.182061 0.835268 0.176521 0.126242
H5    H     H_    0.936404 0.637030 0.363503 0.194633
H6    H     H_    0.067731 0.593828 0.595628 0.198425
H7    H     H_    0.436404 0.137030 0.363500 0.194626
H8    H     H_    0.567730 0.093828 0.595626 0.198425
H9    H     H_    0.907742 0.593922 0.444205 0.201579
H10   H     H_    0.097770 0.636606 0.515897 0.195580
H11   H     H_    0.407741 0.093923 0.444203 0.201580
H12   H     H_    0.597770 0.136606 0.515896 0.195578
H13   H     H_    0.125688 0.654943 0.841466 0.113326
H14   H     H_    0.796752 0.677008 0.066155 0.128371
H15   H     H_    0.625687 0.154942 0.841467 0.113327
H16   H     H_    0.296794 0.177032 0.066381 0.128360
H17   H     H_    0.532166 0.228833 0.843636 0.114140
H18   H     H_    0.383755 0.251526 0.058627 0.142738
H19   H     H_    0.032167 0.728834 0.843634 0.114139
H20   H     H_    0.883701 0.751524 0.058423 0.142724
H21   H     H_    0.758668 0.262761 0.184752 0.107654
H22   H     H_    0.140026 0.357996 0.924747 0.124414
H23   H     H_    0.258665 0.762760 0.184752 0.107655
H24   H     H_    0.640060 0.858036 0.924979 0.124424
H25   H     H_    0.342071 0.685611 0.187822 0.108167
H26   H     H_    0.549984 0.781284 0.927141 0.122631
H27   H     H_    0.842074 0.185612 0.187822 0.108166
H28   H     H_    0.049933 0.281255 0.926911 0.122624
H29   H     H_    0.605336 0.589353 0.664249 0.110761
H30   H     H_    0.608292 0.589757 0.504748 0.108856
H31   H     H_    0.105337 0.089353 0.664250 0.110763
H32   H     H_    0.108290 0.089756 0.504746 0.108856
H33   H     H_    0.614818 0.412795 0.505470 0.118672
H34   H     H_    0.610298 0.412548 0.663433 0.107492
H35   H     H_    0.114816 0.912794 0.505469 0.118670
H36   H     H_    0.110299 0.912547 0.663435 0.107492
H37   H     H_    0.432661 0.627524 0.181115 0.094385
H38   H     H_    0.516736 0.664450 0.823525 0.096128
H39   H     H_    0.932661 0.127524 0.181115 0.094384
H40   H     H_    0.016730 0.164451 0.823526 0.096115
H41   H     H_    0.577312 0.415288 0.337871 0.150034
H42   H     H_    0.536360 0.412836 0.744485 0.088849
H43   H     H_    0.077301 0.915285 0.337865 0.150024
H44   H     H_    0.036360 0.912836 0.744486 0.088848
H45   H     H_    0.239276 0.586794 0.667192 0.107188
H46   H     H_    0.785729 0.587644 0.250421 0.109820
H47   H     H_    0.739275 0.086794 0.667192 0.107187
H48   H     H_    0.285727 0.087644 0.250417 0.109815
H49   H     H_    0.569378 0.587850 0.332925 0.086017
H50   H     H_    0.528214 0.588172 0.740633 0.097528
H51   H     H_    0.069378 0.087849 0.332926 0.086018
H52   H     H_    0.028217 0.088173 0.740637 0.097530
H53   H     H_    0.233449 0.412852 0.667518 0.123688
H54   H     H_    0.791193 0.411819 0.263259 0.093479
H55   H     H_    0.733450 0.912853 0.667517 0.123690
H56   H     H_    0.291193 0.911819 0.263259 0.093479
H57   H     H_    0.250636 0.630314 0.824980 0.096160
H58   H     H_    0.693842 0.664370 0.177197 0.099902
H59   H     H_    0.750636 0.130313 0.824980 0.096160
H60   H     H_    0.193830 0.164371 0.177199 0.099903
H61   H     H_    0.112221 0.414167 0.485683 0.133930
H62   H     H_    0.947900 0.414447 0.327382 0.128309
H63   H     H_    0.612221 0.914167 0.485682 0.133930
H64   H     H_    0.447900 0.914447 0.327381 0.128309
N1    N     N_R   0.394180 0.396910 0.943210 -0.038475
N2    N     N_R   0.605820 0.396910 0.056790 -0.051938
N3    N     N_R   0.894180 0.896910 0.943210 -0.038475
N4    N     N_R   0.105820 0.896910 0.056790 -0.051938
N5    N     N_R   0.450950 0.603070 0.056740 -0.040511
N6    N     N_R   0.549050 0.603070 0.943260 -0.039807
N7    N     N_R   0.950950 0.103070 0.056740 -0.040509
N8    N     N_R   0.049050 0.103070 0.943260 -0.039806
N9    N     N_R   0.525650 0.471570 0.206150 -0.042543
N10   N     N_R   0.474350 0.471570 0.793850 -0.028455
N11   N     N_R   0.025650 0.971570 0.206150 -0.042541
N12   N     N_R   0.974350 0.971570 0.793850 -0.028455
N13   N     N_R   0.319480 0.528420 0.793810 -0.045284
N14   N     N_R   0.680520 0.528420 0.206190 -0.042895
N15   N     N_R   0.819480 0.028420 0.793810 -0.045284
N16   N     N_R   0.180520 0.028420 0.206190 -0.042894
N17   N     N_R   0.525640 0.528390 0.206120 -0.042893
N18   N     N_R   0.474360 0.528390 0.793880 -0.046340
N19   N     N_R   0.025640 0.028390 0.206120 -0.042893
N20   N     N_R   0.974360 0.028390 0.793880 -0.046341
N21   N     N_R   0.319490 0.471590 0.793840 -0.038404
N22   N     N_R   0.680510 0.471590 0.206160 -0.039934
N23   N     N_R   0.819490 0.971590 0.793840 -0.038404
N24   N     N_R   0.180510 0.971590 0.206160 -0.039934
N25   N     N_R   0.394130 0.603080 0.943110 -0.040440
N26   N     N_R   0.605870 0.603080 0.056890 -0.038654
N27   N     N_R   0.894130 0.103080 0.943110 -0.040439
N28   N     N_R   0.105870 0.103080 0.056890 -0.038651
N29   N     N_R   0.450990 0.396900 0.056840 -0.045394
N30   N     N_R   0.549010 0.396900 0.943160 -0.049833
N31   N     N_R   0.950990 0.896900 0.056840 -0.045386
N32   N     N_R   0.049010 0.896900 0.943160 -0.049834
Ni1   Ni    Ni4+2 0.434860 0.434850 0.869700 0.279717
Ni2   Ni    Ni4+2 0.565140 0.434850 0.130300 0.253040
Ni3   Ni    Ni4+2 0.934860 0.934850 0.869700 0.279716
Ni4   Ni    Ni4+2 0.065140 0.934850 0.130300 0.253043
Ni5   Ni    Ni4+2 0.565130 0.565140 0.130240 0.203625
Ni6   Ni    Ni4+2 0.434870 0.565140 0.869760 0.205520
Ni7   Ni    Ni4+2 0.065130 0.065140 0.130240 0.203627
Ni8   Ni    Ni4+2 0.934870 0.065140 0.869760 0.205520
C101  C     C_2   0.459372 0.340925 0.200687 0.419520
H65   H     H_    0.420640 0.329995 0.234611 0.026165
O1    O     O_2   0.542504 0.327816 0.249612 -0.607926
C102  C     C_2   0.487223 0.328616 0.793540 0.428837
H66   H     H_    0.510398 0.302328 0.754216 0.002216
O2    O     O_2   0.405661 0.345303 0.739333 -0.598476
C103  C     C_2   0.959362 0.840917 0.200673 0.419586
H67   H     H_    0.920627 0.829974 0.234590 0.026151
O3    O     O_2   0.042496 0.827812 0.249596 -0.607922
C104  C     C_2   0.987222 0.828616 0.793540 0.428832
H68   H     H_    0.010397 0.802329 0.754215 0.002218
O4    O     O_2   0.905660 0.845302 0.739334 -0.598476

loop_
_geom_bond_atom_site_label_1
_geom_bond_atom_site_label_2
_ccdc_geom_bond_type
C51   C53   A    
N20   Ni8   S    
C55   C59   A    
C51   H23   S    
C62   H30   S    
C19   C20   A    
C50   H22   S    
N3    N31   A    
C64   H32   S    
N16   Ni7   S    
C93   C101  S    
N10   N18   A    
C75   H43   S    
N2    Ni2   S    
C82   N18   A    
C3    N3    A    
C73   H41   S    
C101  H65   S    
N8    N28   A    
C12   C68   S    
C33   C39   A    
C3    C99   A    
C30   H10   S    
C36   C60   A    
C34   C40   A    
C88   H56   S    
C29   H9    S    
C35   C37   A    
C74   N10   A    
C37   C41   A    
C54   C58   A    
C44   C99   S    
C95   C99   A    
C72   H36   S    
N30   Ni1   S    
N15   N23   A    
N24   Ni4   S    
N29   Ni2   S    
C2    H2    S    
C4    H4    S    
C65   C69   A    
C14   C78   A    
N13   N21   A    
C12   C84   A    
C35   C59   A    
C96   N32   A    
C41   C49   A    
N8    Ni8   S    
C6    C58   S    
N16   N24   A    
C27   H63   S    
C48   N8    A    
C96   C104  S    
C61   C66   A    
C15   C79   A    
C103  H67   S    
C25   H61   S    
C102  H66   S    
C89   N25   A    
C8    C60   S    
C69   H33   S    
C35   H15   S    
C8    C92   A    
C63   H31   S    
C32   H12   S    
C2    N2    A    
C91   H59   S    
C95   N31   A    
C6    C46   A    
C61   H29   S    
C46   H38   S    
C44   C52   A    
C15   C23   S    
C74   H42   S    
N9    N17   A    
C16   C24   S    
C78   N14   A    
C30   H6    S    
N7    Ni7   S    
C17   C30   S    
C29   H5    S    
C61   C62   A    
C88   N24   A    
C9    C73   A    
N32   Ni3   S    
C19   C32   S    
C7    C59   S    
C11   C67   S    
C83   H51   S    
C10   C66   S    
C85   N21   A    
C13   C77   A    
C48   H40   S    
N7    N27   A    
C64   C67   A    
N2    N30   A    
C84   N20   A    
C94   C102  S    
C43   C100  S    
C14   C86   A    
C42   C97   S    
C1    C97   A    
C53   C57   A    
C104  H68   S    
C79   H47   S    
C11   C83   A    
C25   C26   A    
C6    C90   A    
C5    C45   A    
C26   H62   S    
C31   H11   S    
C56   C60   A    
N23   Ni3   S    
C16   C80   A    
C38   H18   S    
C90   H58   S    
C80   H48   S    
C19   C23   A    
C17   C21   A    
C8    C48   A    
C29   C30   S    
N1    Ni1   S    
C54   H26   S    
C47   N7    A    
C31   C32   S    
C76   N12   A    
C68   C72   A    
C49   H21   S    
C9    C65   S    
C45   H37   S    
C17   C18   A    
C83   N19   A    
C18   C29   S    
C85   H53   S    
C34   C58   A    
C93   N29   A    
C82   H50   S    
C46   N6    A    
C53   H25   S    
C42   C50   A    
C84   H52   S    
C103  O3    D    
C55   H27   S    
C86   N22   A    
C1    H1    S    
C23   C27   A    
C12   C76   A    
N4    N32   A    
C79   N15   A    
N14   Ni5   S    
N27   Ni8   S    
N1    N29   A    
N12   Ni3   S    
C13   C85   A    
C39   H19   S    
C93   C97   A    
C7    C91   A    
N13   Ni6   S    
C28   H64   S    
C16   C88   A    
N31   Ni4   S    
C90   N26   A    
C3    H3    S    
N12   N20   A    
C75   N11   A    
C21   C25   A    
C63   C68   A    
N10   Ni1   S    
N3    Ni3   S    
N4    Ni4   S    
C62   C65   A    
C40   H20   S    
N9    Ni2   S    
C18   C22   A    
N11   N19   A    
C31   H7    S    
C32   H8    S    
C1    N1    A    
N17   Ni5   S    
C24   C28   A    
C76   H44   S    
C45   N5    A    
C87   N23   A    
N18   Ni6   S    
N26   Ni5   S    
C89   H57   S    
C87   H55   S    
C33   C57   A    
N25   Ni6   S    
C34   H14   S    
C81   N17   A    
C7    C47   A    
N6    N26   A    
C33   H13   S    
C5    C57   S    
C92   H60   S    
C95   C103  S    
C14   C22   S    
C4    C100  A    
C86   H54   S    
C104  O4    D    
N19   Ni7   S    
C71   C72   A    
C80   N16   A    
C49   C55   A    
C50   C56   A    
C13   C21   S    
C71   H35   S    
C10   C74   A    
C94   N30   A    
C66   C70   A    
C77   H45   S    
C91   N27   A    
C43   C51   A    
C81   H49   S    
C96   C100  A    
C52   H24   S    
C36   C38   A    
N28   Ni7   S    
C10   C82   A    
C52   C54   A    
C67   C71   A    
C56   H28   S    
C73   N9    A    
C69   C70   A    
C77   N13   A    
N11   Ni4   S    
N6    Ni6   S    
C78   H46   S    
N5    Ni5   S    
C63   C64   A    
N14   N22   A    
C38   C42   A    
C4    N4    A    
C40   C44   A    
C37   H17   S    
N15   Ni8   S    
C2    C98   A    
C102  O2    D    
N5    N25   A    
C22   C26   A    
C15   C87   A    
C47   H39   S    
C27   C28   A    
C70   H34   S    
C94   C98   A    
C41   C98   S    
N22   Ni2   S    
C11   C75   A    
N21   Ni1   S    
C101  O1    D    
C39   C43   A    
C20   C24   A    
C5    C89   A    
C92   N28   A    
C9    C81   A    
C20   C31   S    
C36   H16   S    
