data_mof_unit_33278.cif
_audit_creation_date              2012-12-10T18:58:13-0500
_audit_creation_method            fapswitch 2.2
_symmetry_space_group_name_H-M    P1
_symmetry_Int_Tables_number       1
_space_group_crystal_system       triclinic
_cell_length_a                    11.059117
_cell_length_b                    10.827729
_cell_length_c                    9.54212
_cell_angle_alpha                 90.157863
_cell_angle_beta                  102.788941
_cell_angle_gamma                 90.274455
_cell_volume                      1114.25494722

loop_
_atom_site_label
_atom_site_type_symbol
_atom_type_description
_atom_site_fract_x
_atom_site_fract_y
_atom_site_fract_z
_atom_type_partial_charge
C1    C     C_R   0.498166 0.262389 0.499332 0.828099
C2    C     C_R   0.488056 0.129261 0.496468 -0.068216
C3    C     C_R   0.468388 0.063990 0.365683 -0.192385
C4    C     C_R   0.468248 0.935150 0.365797 -0.196256
C5    C     C_R   0.487002 0.870743 0.496649 -0.069973
C6    C     C_R   0.489266 0.936906 0.622853 0.084188
C7    C     C_3   0.575699 0.929607 0.766892 -0.487857
C8    C     C_3   0.578173 0.070126 0.767755 0.006342
C9    C     C_R   0.556829 0.593311 0.088438 0.239640
C10   C     C_R   0.433733 0.414905 0.057182 -0.044584
C11   C     C_R   0.433709 0.414905 0.908261 -0.058192
C12   C     C_R   0.262583 0.498269 0.441324 0.816802
C13   C     C_R   0.557257 0.592990 0.941116 0.241265
C14   C     C_3   0.691413 0.626476 0.970130 -0.468536
C15   C     C_3   0.690637 0.627841 0.128777 -0.463585
C16   C     C_R   0.498209 0.737679 0.499608 0.801048
C17   C     C_R   0.737254 0.498501 0.558519 0.880854
C18   C     C_2   0.127313 0.491169 0.406130 0.000602
C19   C     C_2   0.066521 0.487362 0.513328 -0.186397
C20   C     C_2   0.872356 0.497199 0.591996 -0.330374
C21   C     C_2   0.932001 0.478225 0.486660 -0.111532
C22   C     C_R   0.491394 0.063776 0.623034 0.057483
Cu1   Cu    Cu3+1 0.499990 0.499980 0.640670 0.963877
Cu2   Cu    Cu3+1 0.500010 0.500020 0.359330 0.967853
H1    H     H_    0.880169 0.457168 0.379168 0.200812
H2    H     H_    0.381984 0.344625 0.099533 0.143968
H3    H     H_    0.381942 0.344606 0.838964 0.137259
H4    H     H_    0.749696 0.551644 0.940588 0.243554
H5    H     H_    0.707741 0.719084 0.928340 0.193400
H6    H     H_    0.748763 0.554104 0.189177 0.232020
H7    H     H_    0.705381 0.721370 0.178071 0.200723
H8    H     H_    0.117082 0.492988 0.624740 0.173594
H9    H     H_    0.922893 0.514499 0.701676 0.169113
H10   H     H_    0.458601 0.111803 0.264260 0.159719
H11   H     H_    0.458819 0.886690 0.264458 0.163517
H12   H     H_    0.529927 0.889908 0.849343 0.179208
H13   H     H_    0.665508 0.886546 0.761189 0.213818
H14   H     H_    0.533188 0.110749 0.850376 0.138534
N1    N     N_R   0.500780 0.500930 0.148120 -0.186072
N2    N     N_R   0.500790 0.500890 0.852210 -0.182157
O1    O     O_R   0.500000 0.319640 0.618810 -0.575785
O2    O     O_R   0.500010 0.319680 0.381230 -0.591784
O3    O     O_R   0.320680 0.500000 0.575130 -0.600427
O4    O     O_R   0.320690 0.500040 0.337550 -0.551451
O5    O     O_R   0.499990 0.680320 0.618770 -0.580103
O6    O     O_R   0.500000 0.680360 0.381190 -0.587128
O7    O     O_R   0.679310 0.499960 0.662450 -0.567859
O8    O     O_R   0.679320 0.500000 0.424870 -0.585503
I1    I     I_    0.758822 0.144375 0.766968 -0.350176
I2    I     I_    0.036926 0.485871 0.183464 -0.400962

loop_
_geom_bond_atom_site_label_1
_geom_bond_atom_site_label_2
_ccdc_geom_bond_type
C16   O5    A    
C2    C22   A    
C8    C22   S    
Cu1   Cu2   S    
C15   H7    S    
C6    C7    S    
Cu1   O5    S    
Cu2   O2    S    
C7    H12   S    
Cu1   O1    S    
C17   O8    A    
C11   H3    S    
Cu2   O6    S    
C10   H2    S    
C2    C3    A    
C7    H13   S    
C4    H11   S    
C7    C8    S    
C12   O4    A    
C13   C14   S    
C11   N2    A    
C8    H14   S    
C20   H9    S    
C8    I1    S    
C1    O1    A    
C19   C21   S    
C18   C19   D    
C12   O3    A    
C9    C15   S    
C5    C6    A    
Cu2   O4    S    
Cu1   O7    S    
C10   C11   A    
C19   H8    S    
C14   H5    S    
C12   C18   S    
C3    C4    A    
Cu2   O8    S    
C1    O2    A    
C9    N1    A    
C17   C20   S    
Cu1   O3    S    
C20   C21   D    
C18   I2    S    
C15   H6    S    
C1    C2    S    
C16   O6    A    
Cu1   N2    S    
C9    C13   A    
C14   C15   S    
C4    C5    A    
C5    C16   S    
C21   H1    S    
C3    H10   S    
C14   H4    S    
Cu2   N1    S    
C17   O7    A    
C10   N1    A    
C13   N2    A    
C6    C22   A    
