data_mof_unit_49570.cif
_audit_creation_date              2012-12-11T17:08:30-0500
_audit_creation_method            fapswitch 2.2
_symmetry_space_group_name_H-M    P1
_symmetry_Int_Tables_number       1
_space_group_crystal_system       triclinic
_cell_length_a                    6.986243
_cell_length_b                    14.521488
_cell_length_c                    16.087459
_cell_angle_alpha                 90.024365
_cell_angle_beta                  90.06902
_cell_angle_gamma                 89.952871
_cell_volume                      1632.0811909

loop_
_atom_site_label
_atom_site_type_symbol
_atom_type_description
_atom_site_fract_x
_atom_site_fract_y
_atom_site_fract_z
_atom_type_partial_charge
O1    O     O_R   0.505700 0.583890 0.413310 -0.501680
O2    O     O_R   0.175960 0.594920 0.586080 -0.544495
O3    O     O_R   0.005660 0.416110 0.586690 -0.543353
C1    C     C_R   0.344764 0.616948 0.614707 0.700148
O4    O     O_R   0.175980 0.594920 0.413930 -0.545119
O5    O     O_R   0.005680 0.416110 0.413310 -0.549249
C2    C     C_R   0.344866 0.617470 0.385575 0.750280
O6    O     O_R   0.505680 0.583890 0.586690 -0.533780
O7    O     O_3   0.339200 0.441330 0.500000 -0.384268
V1    V     V_3+5 0.064350 0.510880 0.500000 1.446244
O8    O     O_R   0.675960 0.405080 0.413920 -0.533343
C3    C     C_R   0.845068 0.382766 0.385510 0.754834
O9    O     O_R   0.675940 0.405080 0.586070 -0.549452
C4    C     C_R   0.844741 0.383132 0.614781 0.670130
V2    V     V_3+5 0.564340 0.489120 0.500000 1.466559
O10   O     O_3   0.839360 0.558670 0.500000 -0.344643
C5    C     C_R   0.009411 0.253025 0.690045 0.108641
C6    C     C_R   0.852832 0.312583 0.681391 -0.105734
C7    C     C_R   0.700096 0.301415 0.737583 -0.178192
H1    H     H_    0.576579 0.345951 0.733567 0.130895
C8    C     C_R   0.711520 0.237432 0.803346 -0.178115
H2    H     H_    0.595411 0.233814 0.847573 0.131268
C9    C     C_R   0.876675 0.183187 0.815261 -0.109992
C10   C     C_R   0.021126 0.190039 0.755303 0.104677
C11   C     C_3   0.229778 0.206854 0.766600 -0.415445
C12   C     C_3   0.217079 0.275137 0.695271 -0.400794
H3    H     H_    0.317030 0.144989 0.751650 0.175666
H4    H     H_    0.261839 0.239845 0.827394 0.170407
H5    H     H_    0.296476 0.252604 0.638971 0.175958
H6    H     H_    0.242448 0.347639 0.714583 0.164617
C13   C     C_R   0.726963 0.183290 0.240790 0.116016
C14   C     C_R   0.881919 0.182336 0.185531 -0.111676
C15   C     C_R   0.033792 0.243443 0.201998 -0.179678
H7    H     H_    0.156691 0.245169 0.161359 0.135476
C16   C     C_R   0.022610 0.307510 0.267646 -0.151620
H8    H     H_    0.137873 0.356361 0.275714 0.129165
C17   C     C_R   0.858898 0.312650 0.318676 -0.088023
C18   C     C_R   0.715466 0.246946 0.305519 0.090671
C19   C     C_3   0.506104 0.260474 0.292770 -0.407056
C20   C     C_3   0.518454 0.190742 0.222559 -0.397159
H9    H     H_    0.471955 0.331286 0.271091 0.185422
H10   H     H_    0.420696 0.235821 0.346584 0.173060
H11   H     H_    0.490648 0.220904 0.160192 0.171777
H12   H     H_    0.440857 0.125611 0.235931 0.172810
C21   C     C_R   0.508021 0.683530 0.740656 0.092865
C22   C     C_R   0.352856 0.682478 0.685373 -0.105179
C23   C     C_R   0.200751 0.743553 0.701740 -0.167273
H13   H     H_    0.077654 0.745178 0.661074 0.145582
C24   C     C_R   0.211917 0.807710 0.767322 -0.176015
H14   H     H_    0.096426 0.856507 0.775347 0.130767
C25   C     C_R   0.375884 0.813010 0.818342 -0.110050
C26   C     C_R   0.519525 0.747275 0.805310 0.106378
C27   C     C_3   0.728830 0.760723 0.792607 -0.410903
C28   C     C_3   0.716408 0.690913 0.722454 -0.396058
H15   H     H_    0.814502 0.736110 0.846472 0.176132
H16   H     H_    0.762752 0.831489 0.770867 0.170841
H17   H     H_    0.794228 0.625784 0.735907 0.164016
H18   H     H_    0.743836 0.720990 0.660056 0.191012
C29   C     C_R   0.508427 0.684775 0.260217 0.133998
C30   C     C_R   0.354581 0.684486 0.315733 -0.108663
C31   C     C_R   0.214464 0.752433 0.304631 -0.180423
H19   H     H_    0.105476 0.760045 0.350477 0.190576
C32   C     C_R   0.222207 0.815064 0.238095 -0.165009
H20   H     H_    0.111621 0.867001 0.232841 0.137510
C33   C     C_R   0.378260 0.814932 0.182805 -0.084864
C34   C     C_R   0.520246 0.747976 0.194698 0.035668
C35   C     C_3   0.729436 0.762834 0.208447 -0.477003
C36   C     C_3   0.714953 0.696465 0.281310 0.182483
H21   H     H_    0.762568 0.834916 0.226755 0.200284
H22   H     H_    0.815740 0.736899 0.155273 0.152926
O11   O     O_R   0.229000 0.916070 0.913330 -0.539547
O12   O     O_R   0.558770 0.905070 0.086080 -0.536620
O13   O     O_R   0.729000 0.083900 0.086690 -0.537108
C37   C     C_R   0.390162 0.883676 0.115098 0.702489
O14   O     O_R   0.558720 0.905070 0.913930 -0.538858
O15   O     O_R   0.728960 0.083900 0.913310 -0.539994
C38   C     C_R   0.389681 0.883224 0.885113 0.697583
O16   O     O_R   0.229050 0.916070 0.086710 -0.541418
O17   O     O_3   0.395460 0.058650 0.000020 -0.373616
V3    V     V_3+5 0.670340 0.989120 0.000000 1.402570
O18   O     O_R   0.058670 0.094960 0.913900 -0.540316
C39   C     C_R   0.889556 0.117088 0.885373 0.692588
O19   O     O_R   0.058720 0.094960 0.086050 -0.544258
C40   C     C_R   0.889969 0.116903 0.114764 0.695227
V4    V     V_3+5 0.170330 0.010930 0.999970 1.391494
O20   O     O_3   0.895340 0.941350 0.999980 -0.368554
Br1   Br    Br    0.745986 0.757309 0.389354 -0.602338
C41   C     C_2   0.829614 0.609264 0.270007 0.382432
H23   H     H_    0.984060 0.611849 0.269666 0.053449
O21   O     O_2   0.750880 0.535129 0.259345 -0.556661

loop_
_geom_bond_atom_site_label_1
_geom_bond_atom_site_label_2
_ccdc_geom_bond_type
C32   C33   A    
C9    C39   S    
C4    C6    S    
C7    H1    S    
O11   C38   A    
C1    O6    A    
O18   C39   A    
C23   C24   A    
C1    C22   S    
C21   C22   A    
C11   H4    S    
C5    C12   S    
C7    C8    A    
C29   C34   A    
O5    C3    A    
C18   C19   S    
V2    O10   S    
C13   C20   S    
C6    C7    A    
C3    C17   S    
C31   C32   A    
V3    O20   S    
O11   V4    S    
O8    V2    S    
C20   H11   S    
O19   C40   A    
C24   C25   A    
C9    C10   A    
O1    V2    S    
O14   V3    S    
O13   C40   A    
C34   C35   S    
C29   C30   A    
O9    C4    A    
O7    V1    S    
C15   H7    S    
C19   H10   S    
C27   H15   S    
C14   C40   S    
C5    C10   A    
C35   C36   S    
C23   H13   S    
C10   C11   S    
O12   C37   A    
O15   C39   A    
C19   C20   S    
O4    C2    A    
C21   C26   A    
C11   C12   S    
V4    O20   S    
C33   C37   S    
C25   C26   A    
C30   C31   A    
C35   H21   S    
C16   H8    S    
O2    C1    A    
C25   C38   S    
C17   C18   A    
C29   C36   S    
C13   C14   A    
C5    C6    A    
O14   C38   A    
O3    C4    A    
O16   V4    S    
O19   V4    S    
C41   O21   D    
C21   C28   S    
C12   H6    S    
O6    V2    S    
O9    V2    S    
C36   C41   S    
C24   H14   S    
O17   V3    S    
O2    V1    S    
C2    C30   S    
O17   V4    S    
C26   C27   S    
C28   H18   S    
C27   H16   S    
C22   C23   A    
C16   C17   A    
O1    C2    A    
O15   V3    S    
O5    V1    S    
O8    C3    A    
C27   C28   S    
C11   H3    S    
C13   C18   A    
C35   H22   S    
C14   C15   A    
C8    C9    A    
O7    V2    S    
O4    V1    S    
O12   V3    S    
O3    V1    S    
V1    O10   S    
C15   C16   A    
O13   V3    S    
C31   H19   S    
C32   H20   S    
C20   H12   S    
C41   H23   S    
C19   H9    S    
C12   H5    S    
C33   C34   A    
C37   O16   A    
C36   Br1   S    
C8    H2    S    
O18   V4    S    
C28   H17   S    
