data_mof_unit_9554.cif
_audit_creation_date              2012-12-10T20:49:10-0500
_audit_creation_method            fapswitch 2.2
_symmetry_space_group_name_H-M    P1
_symmetry_Int_Tables_number       1
_space_group_crystal_system       triclinic
_cell_length_a                    8.937542
_cell_length_b                    8.123809
_cell_length_c                    10.562657
_cell_angle_alpha                 90.356161
_cell_angle_beta                  90.218498
_cell_angle_gamma                 90.028432
_cell_volume                      766.901115586

loop_
_atom_site_label
_atom_site_type_symbol
_atom_type_description
_atom_site_fract_x
_atom_site_fract_y
_atom_site_fract_z
_atom_type_partial_charge
C1    C     C_R   0.218053 0.499977 0.499713 0.949266
C2    C     C_R   0.781947 0.500023 0.500286 0.949266
C3    C     C_R   0.495107 0.499320 0.257076 0.941811
C4    C     C_R   0.504893 0.500680 0.742924 0.941812
C5    C     C_3   0.400302 0.611415 0.040004 0.094121
C6    C     C_3   0.599698 0.388585 0.959996 0.094121
C7    C     C_3   0.540758 0.650440 0.962401 0.135067
C8    C     C_3   0.459241 0.349560 0.037599 0.135067
C9    C     C_3   0.363400 0.462975 0.953562 0.142047
C10   C     C_3   0.636600 0.537025 0.046437 0.142047
C11   C     C_3   0.504650 0.502129 0.877110 -0.162299
C12   C     C_3   0.495350 0.497871 0.122890 -0.162299
C13   C     C_1   0.065195 0.499971 0.499870 -0.142970
C14   C     C_1   0.934805 0.500029 0.500130 -0.142970
N1    N     N_1   0.500000 0.073640 0.500000 -0.031469
N2    N     N_1   0.500000 0.926360 0.500000 -0.031469
O1    O     O_R   0.285350 0.636850 0.500000 -0.616346
O2    O     O_R   0.714650 0.363150 0.500000 -0.616346
O3    O     O_R   0.714650 0.636850 0.500000 -0.610138
O4    O     O_R   0.285350 0.363150 0.500000 -0.610138
O5    O     O_R   0.499970 0.636850 0.313950 -0.614942
O6    O     O_R   0.500030 0.363150 0.686050 -0.614942
O7    O     O_R   0.500030 0.636850 0.686050 -0.621837
O8    O     O_R   0.499970 0.363150 0.313950 -0.621837
Zn1   Zn    Zn3+2 0.500000 0.682780 0.500000 1.002240
Zn2   Zn    Zn3+2 0.500000 0.317220 0.500000 1.002240
I1    I     I_    0.149999 0.403616 0.872900 -0.382180
I2    I     I_    0.850001 0.596384 0.127099 -0.382180
C15   C     C_3   0.287448 0.736978 0.088161 -0.782969
H1    H     H_    0.231478 0.797246 0.006767 0.260411
H2    H     H_    0.202562 0.674281 0.147090 0.260251
H3    H     H_    0.345417 0.831690 0.146367 0.246134
C16   C     C_3   0.712552 0.263022 0.911839 -0.782969
H4    H     H_    0.768522 0.202754 0.993233 0.260411
H5    H     H_    0.654582 0.168310 0.853633 0.246134
H6    H     H_    0.797438 0.325719 0.852910 0.260251
C17   C     C_3   0.589433 0.820577 0.919390 -0.818032
H7    H     H_    0.615537 0.898028 0.003402 0.247921
H8    H     H_    0.691033 0.810051 0.859823 0.256005
H9    H     H_    0.498364 0.878924 0.863915 0.247906
C18   C     C_3   0.410567 0.179423 0.080610 -0.818032
H10   H     H_    0.384463 0.101972 0.996598 0.247921
H11   H     H_    0.501636 0.121076 0.136085 0.247906
H12   H     H_    0.308967 0.189949 0.140178 0.256005

loop_
_geom_bond_atom_site_label_1
_geom_bond_atom_site_label_2
_ccdc_geom_bond_type
C6    C10   S    
C7    C10   S    
C5    C9    S    
C15   H1    S    
C2    O2    A    
C18   H11   S    
C18   H10   S    
C1    O1    A    
O2    Zn2   S    
C6    C16   S    
C8    C12   S    
O1    Zn1   S    
C16   H4    S    
C7    C17   S    
C15   H2    S    
C13   C14   T    
C4    C11   S    
C7    C11   S    
C9    C11   S    
C3    O8    A    
C17   H7    S    
C10   C12   S    
O3    Zn1   S    
C16   H5    S    
C17   H9    S    
O8    Zn2   S    
C15   H3    S    
C5    C15   S    
O7    Zn1   S    
C2    C14   S    
C18   H12   S    
C3    O5    A    
C1    C13   S    
N1    N2    T    
C6    C11   S    
C16   H6    S    
C4    O6    A    
C8    C18   S    
C9    I1    S    
C5    C12   S    
C17   H8    S    
O6    Zn2   S    
C10   I2    S    
N2    Zn1   S    
C5    C7    S    
C4    O7    A    
O5    Zn1   S    
N1    Zn2   S    
C6    C8    S    
C3    C12   S    
C2    O3    A    
O4    Zn2   S    
C8    C9    S    
C1    O4    A    
