data_mof_unit_32220.cif
_audit_creation_date              2012-12-11T15:14:43-0500
_audit_creation_method            fapswitch 2.2
_symmetry_space_group_name_H-M    P1
_symmetry_Int_Tables_number       1
_space_group_crystal_system       triclinic
_cell_length_a                    22.321948
_cell_length_b                    7.231127
_cell_length_c                    19.252825
_cell_angle_alpha                 89.90559
_cell_angle_beta                  99.099912
_cell_angle_gamma                 90.108871
_cell_volume                      3068.53201368

loop_
_atom_site_label
_atom_site_type_symbol
_atom_type_description
_atom_site_fract_x
_atom_site_fract_y
_atom_site_fract_z
_atom_type_partial_charge
O1    O     O_R   0.448470 0.506130 0.415700 -0.532683
O2    O     O_R   0.551530 0.006130 0.584300 -0.532315
O3    O     O_R   0.436320 0.174490 0.555800 -0.535031
O4    O     O_R   0.563680 0.674490 0.444200 -0.536632
C1    C     C_R   0.421164 0.344333 0.575039 0.702901
C2    C     C_R   0.578802 0.844753 0.424953 0.703823
O5    O     O_R   0.441350 0.176340 0.414480 -0.534701
O6    O     O_R   0.558650 0.676340 0.585520 -0.534487
O7    O     O_R   0.556600 0.007100 0.441970 -0.531538
O8    O     O_R   0.443400 0.507100 0.558030 -0.531707
C3    C     C_R   0.427280 0.344715 0.389108 0.693997
C4    C     C_R   0.572709 0.844703 0.610894 0.694827
O9    O     O_3   0.537810 0.339550 0.509190 -0.373615
O10   O     O_3   0.462190 0.839550 0.490810 -0.373575
V1    V     V_3+5 0.492990 0.064280 0.498300 1.429086
V2    V     V_3+5 0.507010 0.564280 0.501700 1.426531
C5    C     C_R   0.863558 0.015416 0.697497 -0.259485
C6    C     C_R   0.136709 0.516831 0.302316 -0.261015
H1    H     H_    0.782501 0.000790 0.581675 0.134407
H2    H     H_    0.217827 0.503228 0.418100 0.120001
H3    H     H_    0.880319 0.057696 0.650034 0.141464
H4    H     H_    0.120059 0.559795 0.349693 0.139306
C7    C     C_R   0.884113 0.945429 0.822021 -0.201169
C8    C     C_R   0.115935 0.445488 0.177976 -0.202123
C9    C     C_R   0.588654 0.826851 0.739881 -0.172859
C10   C     C_R   0.411239 0.325798 0.260164 -0.173083
C11   C     C_R   0.623996 0.842454 0.806272 0.327756
C12   C     C_R   0.375890 0.340906 0.193753 0.327578
C13   C     C_R   0.686617 0.872059 0.811786 -0.213704
C14   C     C_R   0.313323 0.370973 0.188213 -0.214071
C15   C     C_R   0.715554 0.883190 0.751628 0.063063
C16   C     C_R   0.284446 0.383074 0.248372 0.062888
C17   C     C_R   0.677708 0.883398 0.684202 0.052339
C18   C     C_R   0.322337 0.383868 0.315771 0.054533
C19   C     C_R   0.780158 0.908372 0.756269 0.055906
C20   C     C_R   0.219882 0.408586 0.243725 0.055058
C21   C     C_R   0.802800 0.962800 0.694368 0.024152
C22   C     C_R   0.197379 0.463903 0.305516 0.027938
C23   C     C_R   0.764769 0.964694 0.629207 -0.156535
C24   C     C_R   0.235460 0.466405 0.370641 -0.161093
C25   C     C_R   0.703695 0.920046 0.623845 -0.172128
C26   C     C_R   0.296458 0.421436 0.376063 -0.174027
C27   C     C_R   0.823494 0.881419 0.819137 0.148236
C28   C     C_R   0.176456 0.381147 0.180963 0.147950
C29   C     C_R   0.903120 0.018494 0.761498 0.411087
C30   C     C_R   0.097103 0.519398 0.238343 0.412699
C31   C     C_R   0.614234 0.851712 0.678852 -0.142203
C32   C     C_R   0.385749 0.351702 0.321152 -0.142496
H5    H     H_    0.540458 0.799494 0.735691 0.123662
H6    H     H_    0.459376 0.297957 0.264393 0.124402
H7    H     H_    0.710887 0.897353 0.863794 0.161013
H8    H     H_    0.289066 0.395795 0.136152 0.160925
H9    H     H_    0.676440 0.921790 0.572057 0.105174
H10   H     H_    0.323748 0.423642 0.427828 0.101726
C33   C     C_3   0.777728 0.850635 0.315783 0.229924
C34   C     C_3   0.224605 0.315684 0.689334 0.242844
C35   C     C_3   0.794779 0.028812 0.279515 0.403147
C36   C     C_3   0.199253 0.497902 0.713922 0.377937
C37   C     C_1   0.876049 0.939120 0.121607 -0.189863
C38   C     C_1   0.123959 0.440613 0.878332 -0.189481
C39   C     C_1   0.624982 0.856465 0.379921 -0.184196
C40   C     C_1   0.374877 0.354818 0.619975 -0.185255
C41   C     C_3   0.778080 0.738554 0.247617 -0.199442
C42   C     C_3   0.230263 0.233811 0.764203 -0.150076
C43   C     C_3   0.794378 0.918586 0.210718 -0.025528
C44   C     C_3   0.205508 0.418420 0.789171 -0.031880
C45   C     C_3   0.709345 0.782870 0.226006 -0.196547
C46   C     C_3   0.296084 0.312424 0.780116 -0.183018
C47   C     C_3   0.709700 0.892086 0.295169 -0.031190
C48   C     C_3   0.289900 0.390381 0.704371 -0.028267
C49   C     C_3   0.725923 0.963157 0.188829 -0.213021
C50   C     C_3   0.271036 0.497385 0.805384 -0.220239
C51   C     C_3   0.726686 0.070202 0.258900 0.419732
C52   C     C_3   0.264582 0.572938 0.728880 0.397852
C53   C     C_1   0.838992 0.928864 0.161347 -0.018669
C54   C     C_1   0.160988 0.430541 0.838560 -0.014424
C55   C     C_1   0.663245 0.871436 0.341873 -0.010606
C56   C     C_1   0.336496 0.369044 0.657890 -0.006858
H11   H     H_    0.704064 0.011519 0.136139 0.146043
H12   H     H_    0.290565 0.574616 0.853476 0.146605
H13   H     H_    0.674113 0.681804 0.203428 0.168775
H14   H     H_    0.336014 0.236753 0.808036 0.153823
H15   H     H_    0.799429 0.601697 0.244081 0.144101
H16   H     H_    0.216175 0.092743 0.777640 0.146953
O11   O     O_R   0.056650 0.288730 0.942060 -0.525709
O12   O     O_R   0.943350 0.788730 0.057940 -0.525553
O13   O     O_R   0.058660 0.616870 0.085540 -0.538722
O14   O     O_R   0.941340 0.116870 0.914460 -0.539047
C57   C     C_R   0.072596 0.448987 0.111150 0.759246
C58   C     C_R   0.927428 0.949003 0.888847 0.759565
O15   O     O_R   0.063700 0.618520 0.944220 -0.536169
O16   O     O_R   0.936300 0.118520 0.055780 -0.536442
O17   O     O_R   0.948460 0.787610 0.915680 -0.535932
O18   O     O_R   0.051540 0.287610 0.084320 -0.536222
C59   C     C_R   0.078768 0.450123 0.924662 0.698171
C60   C     C_R   0.921240 0.949709 0.075315 0.698560
O19   O     O_3   0.962230 0.453430 0.990860 -0.377329
O20   O     O_3   0.037770 0.953430 0.009140 -0.377375
V3    V     V_3+5 0.007010 0.728750 0.001700 1.421458
V4    V     V_3+5 0.992990 0.228750 0.998300 1.420066
O21   O     O_3   0.962988 0.072343 0.763753 -0.556998
C61   C     C_3   0.965313 0.265460 0.753885 -0.218673
H17   H     H_    0.942198 0.341308 0.792433 0.129744
H18   H     H_    0.945616 0.305013 0.699227 0.131629
H19   H     H_    0.013565 0.309447 0.762584 0.158574
O22   O     O_3   0.037334 0.573715 0.236004 -0.556183
C62   C     C_3   0.035358 0.766909 0.245533 -0.220687
H20   H     H_    0.058716 0.842363 0.206952 0.130402
H21   H     H_    0.055010 0.806591 0.300164 0.129384
H22   H     H_    0.987192 0.811262 0.236610 0.154927
N1    N     N_2   0.804461 0.789957 0.385515 -0.507013
H23   H     H_    0.780649 0.683342 0.404089 0.248444
C63   C     C_3   0.869116 0.757423 0.395555 -0.487857
H24   H     H_    0.885074 0.717534 0.451103 0.189012
H25   H     H_    0.893763 0.884432 0.384150 0.236454
H26   H     H_    0.879819 0.643973 0.360891 0.178654
N2    N     N_2   0.200026 0.217101 0.625811 -0.524852
H27   H     H_    0.211667 0.274995 0.580820 0.252173
C64   C     C_3   0.136480 0.169131 0.618977 -0.503470
H28   H     H_    0.126152 0.057314 0.579455 0.186896
H29   H     H_    0.107941 0.290937 0.601043 0.227105
H30   H     H_    0.125013 0.119890 0.669906 0.195162
O23   O     O_3   0.697043 0.242499 0.259147 -0.553847
C65   C     C_3   0.710930 0.325266 0.325965 -0.216066
H31   H     H_    0.757478 0.383669 0.333805 0.174940
H32   H     H_    0.705451 0.228404 0.369449 0.138799
H33   H     H_    0.679205 0.441986 0.328594 0.156479
O24   O     O_3   0.285102 0.752973 0.716383 -0.553398
C66   C     C_3   0.269497 0.798163 0.644615 -0.189997
H34   H     H_    0.219973 0.821290 0.630518 0.188589
H35   H     H_    0.284728 0.691891 0.609672 0.115429
H36   H     H_    0.292486 0.929601 0.634810 0.176947
N3    N     N_2   0.808218 0.776577 0.876634 -0.537815
H37   H     H_    0.829626 0.815925 0.925798 0.243616
C67   C     C_3   0.808200 0.578484 0.866183 -0.493177
H38   H     H_    0.792774 0.508368 0.911585 0.186350
H39   H     H_    0.854677 0.529734 0.861947 0.195378
H40   H     H_    0.776694 0.540064 0.817730 0.201241
N4    N     N_2   0.191539 0.275654 0.123699 -0.537682
H41   H     H_    0.170191 0.314707 0.074451 0.243710
C68   C     C_3   0.191226 0.077664 0.134599 -0.493376
H42   H     H_    0.206553 0.007013 0.089368 0.185852
H43   H     H_    0.144664 0.029279 0.138919 0.195045
H44   H     H_    0.222652 0.039483 0.183153 0.201102
N5    N     N_2   0.596690 0.825682 0.868081 -0.518097
H45   H     H_    0.626849 0.801724 0.913609 0.254009
C69   C     C_3   0.552744 0.967227 0.876849 -0.538586
H46   H     H_    0.533811 0.940575 0.925909 0.199490
H47   H     H_    0.514567 0.966149 0.832245 0.204494
H48   H     H_    0.574774 0.105620 0.880724 0.195560
N6    N     N_2   0.403120 0.323013 0.131961 -0.518233
H49   H     H_    0.372887 0.298940 0.086506 0.253300
C70   C     C_3   0.447418 0.463750 0.122814 -0.534956
H50   H     H_    0.466268 0.436169 0.073813 0.199438
H51   H     H_    0.485606 0.462649 0.167404 0.205888
H52   H     H_    0.425737 0.602428 0.118587 0.194483
O25   O     O_3   0.838303 0.152733 0.314728 -0.561403
C71   C     C_3   0.865660 0.254876 0.265893 -0.248519
H53   H     H_    0.832542 0.300774 0.219662 0.137361
H54   H     H_    0.902816 0.173299 0.248873 0.157427
H55   H     H_    0.886741 0.380200 0.292268 0.162423
O26   O     O_3   0.148899 0.583459 0.672769 -0.565211
C72   C     C_3   0.124534 0.719667 0.712230 -0.245145
H56   H     H_    0.160133 0.809250 0.742189 0.145481
H57   H     H_    0.095885 0.655375 0.747752 0.154843
H58   H     H_    0.094127 0.808724 0.675369 0.165113

loop_
_geom_bond_atom_site_label_1
_geom_bond_atom_site_label_2
_ccdc_geom_bond_type
C67   H40   S    
C22   C24   A    
C41   C43   S    
O25   C71   S    
C7    C29   A    
C48   C56   S    
O11   C59   A    
C34   N2    S    
C47   C55   S    
C72   H56   S    
O1    C3    A    
O2    C4    A    
C8    C57   S    
C2    O7    A    
C49   H11   S    
N5    H45   S    
O23   C65   S    
C23   C25   A    
O5    C3    A    
C36   C52   S    
O21   C61   S    
C42   C46   S    
C2    C39   S    
C13   C15   A    
C72   H57   S    
C5    C29   A    
O26   C72   S    
N2    C64   S    
H2    C24   S    
C11   C13   A    
O22   C62   S    
O16   C60   A    
C7    C27   A    
C61   H19   S    
C66   H35   S    
C35   C51   S    
C57   O18   A    
C27   N3    S    
C42   H16   S    
C14   H8    S    
C71   H55   S    
C36   C44   S    
C44   C50   S    
C69   H46   S    
C39   C55   T    
C12   C14   A    
C51   O23   S    
C18   C26   A    
C48   C52   S    
N6    H49   S    
C34   C42   S    
C47   C51   S    
C70   H51   S    
C19   C27   A    
O17   V3    S    
O6    C4    A    
C66   H36   S    
C33   N1    S    
C24   C26   A    
O6    V2    S    
O24   C66   S    
C71   H54   S    
C62   H21   S    
C3    C32   S    
C4    C31   S    
C6    C30   A    
N5    C69   S    
O13   V3    S    
C64   H29   S    
N4    H41   S    
C41   C45   S    
C67   H38   S    
C72   H58   S    
C50   C52   S    
C68   H44   S    
C49   C51   S    
C29   O21   S    
C43   C49   S    
C38   C54   T    
C5    H3    S    
C33   C41   S    
C46   C50   S    
C45   C47   S    
C68   H43   S    
C42   C44   S    
O4    V2    S    
O2    V1    S    
C46   H14   S    
O18   V4    S    
C11   N5    S    
C44   C54   S    
C69   H48   S    
C15   C17   A    
C7    C58   S    
N1    C63   S    
O1    V2    S    
C5    C21   A    
O12   C60   A    
C70   H52   S    
C61   H18   S    
O12   V3    S    
C25   H9    S    
O14   V4    S    
H1    C23   S    
C65   H33   S    
O4    C2    A    
O14   C58   A    
C45   H13   S    
C28   N4    S    
C34   C48   S    
C33   C35   S    
N3    H37   S    
C17   C31   A    
C62   H22   S    
C15   C19   A    
C20   C28   A    
C18   C32   A    
C37   C60   S    
C62   H20   S    
C20   C22   A    
C36   O26   S    
C37   C53   T    
C52   O24   S    
O19   V4    S    
O3    V1    S    
O16   V4    S    
C58   O17   A    
C65   H32   S    
C63   H24   S    
C13   H7    S    
C64   H30   S    
C19   C21   A    
C67   H39   S    
C35   O25   S    
C9    C31   A    
N1    H23   S    
C69   H47   S    
C6    H4    S    
C40   C56   T    
C35   C43   S    
O3    C1    A    
C64   H28   S    
C16   C20   A    
C63   H26   S    
C10   C32   A    
C9    C11   A    
C10   C12   A    
C43   C53   S    
C17   C25   A    
C33   C47   S    
C10   H6    S    
C66   H34   S    
C8    C30   A    
C1    O8    A    
C21   C23   A    
O11   V4    S    
O8    V2    S    
N2    H27   S    
C26   H10   S    
C14   C16   A    
N4    C68   S    
C71   H53   S    
C8    C28   A    
C30   O22   S    
O5    V1    S    
O13   C57   A    
C34   C36   S    
C1    C40   S    
C45   C49   S    
N6    C70   S    
C6    C22   A    
C61   H17   S    
C9    H5    S    
O15   C59   A    
C38   C59   S    
C12   N6    S    
C50   H12   S    
O20   V3    S    
O9    V2    S    
C41   H15   S    
N3    C67   S    
C46   C48   S    
O10   V1    S    
O15   V3    S    
C70   H50   S    
C68   H42   S    
O7    V1    S    
C16   C18   A    
C65   H31   S    
C63   H25   S    
