data_mof_unit_11532.cif
_audit_creation_date              2013-03-05T15:41:39-0500
_audit_creation_method            fapswitch 2.2
_symmetry_space_group_name_H-M    P1
_symmetry_Int_Tables_number       1
_space_group_crystal_system       triclinic
_cell_length_a                    17.251676
_cell_length_b                    8.68495
_cell_length_c                    7.453088
_cell_angle_alpha                 102.781937
_cell_angle_beta                  91.402773
_cell_angle_gamma                 93.039509
_cell_volume                      1086.73897682

loop_
_atom_site_label
_atom_site_type_symbol
_atom_site_description
_atom_site_fract_x
_atom_site_fract_y
_atom_site_fract_z
_atom_type_partial_charge
O1    O     O_R   0.505650 0.286040 0.618880 -0.583710
O2    O     O_R   0.494350 0.713960 0.381120 -0.583735
O3    O     O_R   0.490960 0.256910 0.309800 -0.585154
O4    O     O_R   0.509040 0.743090 0.690200 -0.585179
C1    C     C_R   0.497626 0.199768 0.453717 0.889582
C2    C     C_R   0.502374 0.800232 0.546283 0.889516
O5    O     O_R   0.394600 0.516230 0.672450 -0.591414
O6    O     O_R   0.605400 0.483770 0.327550 -0.591388
O7    O     O_R   0.379910 0.487100 0.363380 -0.587936
O8    O     O_R   0.620090 0.512900 0.636620 -0.587937
C3    C     C_R   0.351012 0.504371 0.524138 0.817291
C4    C     C_R   0.648991 0.495731 0.475874 0.817301
Cu1   Cu    Cu3+1 0.508700 0.517250 0.683000 0.960328
Cu2   Cu    Cu3+1 0.491300 0.482750 0.317000 0.960331
C5    C     C_R   0.266967 0.518419 0.533343 -0.098821
C6    C     C_R   0.733072 0.482243 0.466718 -0.099033
C7    C     C_R   0.222617 0.495211 0.367779 -0.240807
C8    C     C_R   0.777447 0.505924 0.632293 -0.240751
C9    C     C_R   0.143544 0.518545 0.368198 0.342865
C10   C     C_R   0.856621 0.483493 0.631936 0.342905
C11   C     C_R   0.107433 0.559436 0.538536 0.009371
C12   C     C_R   0.892758 0.442913 0.461568 0.009172
C13   C     C_R   0.151756 0.586613 0.703875 -0.103512
C14   C     C_R   0.848403 0.415189 0.296235 -0.103392
C15   C     C_R   0.231243 0.565497 0.701690 -0.176969
C16   C     C_R   0.768848 0.435510 0.298393 -0.176800
C17   C     C_2   0.023050 0.561663 0.548459 -0.064146
C18   C     C_2   0.977141 0.441017 0.451492 -0.064524
H1    H     H_    0.249747 0.463033 0.236234 0.190460
H2    H     H_    0.750263 0.537834 0.763798 0.190693
H3    H     H_    0.735517 0.414180 0.169317 0.170935
H4    H     H_    0.264561 0.586475 0.830758 0.170920
H5    H     H_    0.001476 0.344279 0.355404 0.176199
H6    H     H_    0.998727 0.658373 0.644610 0.176133
H7    H     H_    0.124290 0.620208 0.834765 0.222051
H8    H     H_    0.875889 0.381722 0.165350 0.221877
C19   C     C_2   0.496502 0.031996 0.427523 -0.361900
C20   C     C_2   0.503497 0.968004 0.572477 -0.361880
H9    H     H_    0.489916 0.960765 0.287682 0.180169
H10   H     H_    0.510084 0.039235 0.712318 0.180169
N1    N     N_2   0.478180 0.456750 0.041980 -0.218856
N2    N     N_2   0.521820 0.543250 0.958020 -0.218849
H11   H     H_    0.439066 0.378050 0.957450 0.227746
H12   H     H_    0.560934 0.621950 0.042550 0.227754
N3    N     N_R   0.898654 0.497618 0.804489 0.101047
O9    O     O_R   0.879781 0.600259 0.949739 -0.357558
O10   O     O_R   0.950362 0.397570 0.821836 -0.317058
N4    N     N_R   0.101554 0.504935 0.195720 0.100829
O11   O     O_R   0.050457 0.606189 0.178227 -0.317444
O12   O     O_R   0.119719 0.401029 0.050785 -0.356890

loop_
_geom_bond_atom_site_label_1
_geom_bond_atom_site_label_2
_geom_bond_distance
_ccdc_geom_bond_type
O5    C3    1.303316 A    
O7    Cu2   1.961672 S    
C2    C20   1.425678 S    
C19   C20   1.325522 D    
C8    H2    1.083269 S    
C1    C19   1.425680 S    
C7    H1    1.083272 S    
N1    N2    1.301482 D    
C8    C10   1.389886 A    
C10   N3    1.438713 S    
O6    C4    1.303303 A    
C15   H4    1.083149 S    
N4    O12   1.301796 A    
C11   C17   1.460368 S    
C16   H3    1.083137 S    
C19   H9    1.087821 S    
C12   C18   1.460284 S    
N3    O9    1.301396 A    
C20   H10   1.087821 S    
N1    H11   1.029154 S    
C14   H8    1.082921 S    
O3    Cu2   1.949932 S    
N2    H12   1.029156 S    
Cu2   N1    2.017609 S    
O1    C1    1.291670 A    
O8    C4    1.290059 A    
C6    C8    1.405685 A    
Cu1   N2    2.017609 S    
C7    C9    1.389687 A    
C14   C16   1.393055 A    
C18   H5    1.086689 S    
C13   H7    1.082893 S    
O7    C3    1.290053 A    
C17   H6    1.086678 S    
C6    C16   1.399529 A    
O2    Cu2   1.956105 S    
C12   C14   1.401756 A    
C5    C15   1.399593 A    
O1    Cu1   1.956105 S    
C4    C6    1.463479 S    
O5    Cu1   1.967532 S    
C13   C15   1.393117 A    
O4    C2    1.282804 A    
N3    O10   1.301442 A    
C17   C18   1.340287 D    
C5    C7    1.405723 A    
C9    N4    1.438513 S    
N4    O11   1.301797 A    
O6    Cu2   1.967535 S    
C9    C11   1.410193 A    
Cu1   Cu2   2.685081 S    
C3    C5    1.463483 S    
C11   C13   1.401768 A    
O2    C2    1.291670 A    
O4    Cu1   1.949932 S    
C10   C12   1.410395 A    
O3    C1    1.282804 A    
O8    Cu1   1.961671 S    
