data_mof_unit_42365.cif
_audit_creation_date              2013-03-05T15:55:19-0500
_audit_creation_method            fapswitch 2.2
_symmetry_space_group_name_H-M    P1
_symmetry_Int_Tables_number       1
_space_group_crystal_system       triclinic
_cell_length_a                    27.657807
_cell_length_b                    10.619619
_cell_length_c                    9.89894
_cell_angle_alpha                 89.933443
_cell_angle_beta                  90.024434
_cell_angle_gamma                 91.787858
_cell_volume                      2906.05329638

loop_
_atom_site_label
_atom_site_type_symbol
_atom_site_description
_atom_site_fract_x
_atom_site_fract_y
_atom_site_fract_z
_atom_type_partial_charge
O1    O     O_R   0.500000 0.316780 0.614690 -0.639902
O2    O     O_R   0.500000 0.316750 0.385360 -0.628362
C1    C     C_R   0.501329 0.260726 0.500110 0.858930
O3    O     O_R   0.428760 0.500030 0.614650 -0.633996
O4    O     O_R   0.428750 0.500010 0.385320 -0.640235
C2    C     C_R   0.406005 0.499211 0.499814 0.858750
Zn1   Zn    Zn3+2 0.500000 0.500020 0.653130 0.929660
Zn2   Zn    Zn3+2 0.500000 0.499980 0.346870 0.943043
O5    O     O_R   0.500000 0.683250 0.614640 -0.612600
O6    O     O_R   0.500000 0.683220 0.385310 -0.608720
O7    O     O_R   0.571250 0.499990 0.614680 -0.644442
O8    O     O_R   0.571240 0.499970 0.385350 -0.610103
C3    C     C_R   0.501401 0.739502 0.499873 0.881442
C4    C     C_R   0.594243 0.499789 0.500163 0.836485
C5    C     C_R   0.174874 0.388383 0.521889 0.512931
O9    O     O_2   0.197770 0.286878 0.569092 -0.552940
N1    N     N_R   0.200893 0.494847 0.486572 -0.358036
C6    C     C_R   0.179079 0.599901 0.439284 0.507479
C7    C     C_R   0.278472 0.492456 0.370856 -0.102599
C8    C     C_R   0.328593 0.493812 0.373867 -0.220308
C9    C     C_R   0.326772 0.497370 0.619352 -0.220587
C10   C     C_R   0.276440 0.496069 0.615930 -0.094284
C11   C     C_R   0.252377 0.494190 0.491577 0.315682
C12   C     C_R   0.101386 0.489873 0.455275 -0.053126
C13   C     C_R   0.124555 0.383766 0.506836 -0.027381
C14   C     C_R   0.097021 0.276517 0.543507 -0.130233
C15   C     C_R   0.128863 0.599634 0.423142 -0.023065
C16   C     C_R   0.353150 0.496892 0.498108 -0.042824
H1    H     H_    0.344929 0.499176 0.716339 0.167083
H2    H     H_    0.256137 0.497319 0.709404 0.144500
H3    H     H_    0.113706 0.195723 0.588814 0.192319
C17   C     C_R   0.647552 0.494687 0.497054 -0.092482
C18   C     C_R   0.973561 0.367540 0.432672 0.027074
C19   C     C_R   0.976085 0.598641 0.402422 0.056996
C20   C     C_R   0.949512 0.483030 0.419142 0.048261
C21   C     C_R   0.945737 0.252476 0.422041 -0.022477
C22   C     C_R   0.895440 0.254676 0.432439 -0.231175
C23   C     C_R   0.871761 0.368887 0.438066 -0.021784
C24   C     C_R   0.898515 0.483167 0.425201 -0.054299
C25   C     C_R   0.874245 0.597803 0.421149 -0.015655
C26   C     C_R   0.823942 0.596160 0.435309 0.502616
N2    N     N_R   0.798956 0.484309 0.451816 -0.356858
C27   C     C_R   0.821444 0.371677 0.451575 0.518509
C28   C     C_R   0.718247 0.463376 0.357020 -0.118508
C29   C     C_R   0.668670 0.467866 0.371174 -0.228828
C30   C     C_R   0.677784 0.515652 0.612588 0.061553
C31   C     C_R   0.728189 0.510656 0.594620 -0.110749
C32   C     C_R   0.747859 0.485357 0.468133 0.294527
O10   O     O_2   0.795144 0.263177 0.465359 -0.552098
C33   C     C_R   0.023792 0.373042 0.461058 0.065719
C34   C     C_R   0.050681 0.486647 0.437245 0.065011
C35   C     C_R   0.027185 0.597806 0.398814 0.042666
C36   C     C_R   0.047329 0.272014 0.522907 -0.129211
H4    H     H_    0.646819 0.449961 0.282051 0.174723
H5    H     H_    0.733800 0.443674 0.259172 0.141812
H6    H     H_    0.874585 0.166481 0.430185 0.187349
H7    H     H_    0.027488 0.189895 0.560142 0.147005
O11   O     O_2   0.206029 0.704075 0.408032 -0.550677
C37   C     C_R   0.105785 0.705836 0.374576 -0.124158
H8    H     H_    0.347998 0.492655 0.278873 0.168578
H9    H     H_    0.259761 0.490342 0.274700 0.142365
H10   H     H_    0.126269 0.790501 0.346548 0.198220
C38   C     C_R   0.950630 0.711800 0.395229 -0.212039
C39   C     C_R   0.900592 0.711191 0.405087 -0.139041
O12   O     O_2   0.800075 0.705135 0.433030 -0.555076
C40   C     C_R   0.055742 0.705413 0.363233 -0.208956
H11   H     H_    0.968569 0.803168 0.388351 0.147384
H12   H     H_    0.882687 0.800478 0.401910 0.185689
H13   H     H_    0.753166 0.526506 0.677223 0.125415
H14   H     H_    0.040401 0.790046 0.323752 0.164495
H15   H     H_    0.439049 0.109429 0.381470 0.142925
C41   C     C_R   0.582258 0.137667 0.625781 -0.177574
H16   H     H_    0.584298 0.239442 0.625671 0.151078
C42   C     C_R   0.620111 0.074778 0.686507 -0.112826
H17   H     H_    0.649719 0.127958 0.732923 0.147603
C43   C     C_R   0.620177 0.943725 0.685837 -0.124770
H18   H     H_    0.649827 0.894980 0.731723 0.145877
C44   C     C_R   0.582388 0.875222 0.624412 -0.190818
H19   H     H_    0.584476 0.773855 0.622697 0.133871
C45   C     C_R   0.543364 0.937493 0.564087 0.097925
C46   C     C_R   0.543303 0.069436 0.564596 0.098123
C47   C     C_R   0.504643 0.128754 0.499932 -0.089737
C48   C     C_R   0.468152 0.061840 0.431895 -0.209921
H20   H     H_    0.439107 0.881053 0.381129 0.159548
C49   C     C_R   0.468193 0.933255 0.431639 -0.191893
C50   C     C_R   0.504739 0.872074 0.499330 -0.103767
H21   H     H_    0.554543 0.641270 0.125253 0.153074
C51   C     C_R   0.436402 0.334966 0.140375 -0.164202
H22   H     H_    0.434236 0.329319 0.247470 0.199340
C52   C     C_R   0.405043 0.253725 0.070180 -0.195727
H23   H     H_    0.380601 0.190415 0.124807 0.157196
C53   C     C_R   0.405055 0.253638 0.930353 -0.182146
H24   H     H_    0.380611 0.190270 0.875915 0.162193
C54   C     C_R   0.436437 0.334769 0.859930 -0.157232
H25   H     H_    0.434317 0.328950 0.752816 0.204698
C55   C     C_R   0.468677 0.418554 0.927717 0.167874
C56   C     C_R   0.468667 0.418643 0.072406 0.172732
N3    N     N_R   0.499540 0.498800 0.142780 -0.121767
C57   C     C_R   0.530018 0.577770 0.071469 -0.117108
H26   H     H_    0.554340 0.641629 0.874315 0.144649
C58   C     C_R   0.529964 0.577836 0.928264 -0.115071
N4    N     N_R   0.499520 0.498720 0.857170 -0.121401
C59   C     C_3   0.656430 0.543528 0.751274 -0.397149
C60   C     C_3   0.692696 0.571623 0.865990 -0.378006
C61   C     C_3   0.666533 0.600668 0.997644 -0.874764
H27   H     H_    0.644340 0.685335 0.985324 0.256307
H28   H     H_    0.642732 0.519382 0.028185 0.257829
H29   H     H_    0.693459 0.619286 0.079006 0.264669
H30   H     H_    0.715390 0.488518 0.883207 0.228805
H31   H     H_    0.716304 0.654484 0.838917 0.236540
H32   H     H_    0.633449 0.626876 0.741355 0.205906
H33   H     H_    0.633563 0.460713 0.782832 0.226423
C62   C     C_2   0.966102 0.130410 0.381618 0.368485
H34   H     H_    0.947356 0.042644 0.408764 0.048625
O13   O     O_2   0.002290 0.126649 0.311264 -0.552876

loop_
_geom_bond_atom_site_label_1
_geom_bond_atom_site_label_2
_geom_bond_distance
_ccdc_geom_bond_type
C58   N4    1.366346 A    
C55   N4    1.376219 A    
C26   N2    1.365141 A    
C20   C24   1.411803 A    
C7    C8    1.386154 A    
C12   C15   1.407650 A    
C56   N3    1.376419 A    
C40   H14   1.078614 S    
C49   C50   1.390047 A    
Zn1   O7    2.007208 S    
C61   H28   1.110864 S    
N1    C11   1.425001 S    
C42   C43   1.391816 A    
C39   H12   1.083741 S    
C53   H24   1.082788 S    
C21   C22   1.395881 A    
C43   C44   1.394392 A    
C37   C40   1.388444 A    
O4    C2    1.296379 A    
O7    C4    1.300063 A    
C44   C45   1.414887 A    
C5    C13   1.398948 A    
C5    O9    1.349974 S    
C18   C21   1.427568 A    
O5    C3    1.282977 A    
C59   H32   1.109922 S    
C19   C20   1.420646 A    
C17   C29   1.409547 A    
Zn2   N3    2.020360 S    
C31   H13   1.080141 S    
C45   C50   1.410292 A    
C22   H6    1.084785 S    
H20   C49   1.084854 S    
C6    O11   1.350222 S    
C2    C16   1.461367 S    
Zn1   N4    2.019856 S    
C3    C50   1.408017 S    
C8    H8    1.083198 S    
H15   C48   1.084870 S    
C51   C56   1.410073 A    
C41   H16   1.080526 S    
C12   C34   1.412971 A    
C14   H3    1.083466 S    
C9    C10   1.392095 A    
O3    Zn1   2.006670 S    
C21   C62   1.484824 S    
C60   C61   1.527353 S    
C46   C47   1.410800 A    
H21   C57   1.081805 S    
C23   C24   1.407228 A    
C61   H29   1.110409 S    
C38   H11   1.078001 S    
C33   C36   1.411160 A    
C42   H17   1.082618 S    
C34   C35   1.416737 A    
C12   C13   1.408662 A    
O3    C2    1.299015 A    
C4    C17   1.477436 S    
C24   C25   1.408936 A    
C36   H7    1.080304 S    
C44   H19   1.079980 S    
C27   O10   1.350098 S    
C26   O12   1.350238 S    
C8    C16   1.404604 A    
C33   C34   1.416927 A    
C18   C33   1.416717 A    
C9    H1    1.083186 S    
C59   H33   1.111693 S    
O1    C1    1.282622 A    
C7    C11   1.396761 A    
C22   C23   1.397439 A    
C52   C53   1.384139 A    
C31   C32   1.395112 A    
Zn2   O8    2.006667 S    
C55   C56   1.432264 A    
C1    C47   1.407338 S    
C53   C54   1.390719 A    
N1    C6    1.366869 A    
N2    C32   1.422890 S    
C43   H18   1.082762 S    
C54   C55   1.410115 A    
C41   C42   1.394844 A    
C25   C26   1.397938 A    
C57   C58   1.417572 A    
C9    C16   1.404904 A    
C51   C52   1.390546 A    
C29   H4    1.082810 S    
C47   C48   1.390299 A    
N2    C27   1.365260 A    
C14   C36   1.388687 A    
C35   C40   1.413059 A    
C28   C29   1.380693 A    
C62   H34   1.085861 S    
C61   H27   1.110937 S    
C5    N1    1.366339 A    
C30   C31   1.408117 A    
C37   H10   1.083570 S    
C10   H2    1.082881 S    
C48   C49   1.365563 A    
O1    Zn1   1.983228 S    
C17   C30   1.429987 A    
O2    Zn2   1.982349 S    
C6    C15   1.397858 A    
C41   C46   1.415762 A    
O8    C4    1.302269 A    
C45   C46   1.401261 A    
O6    C3    1.282540 A    
O4    Zn2   2.007211 S    
C30   C59   1.527652 S    
C19   C35   1.414071 A    
C25   C39   1.396825 A    
O2    C1    1.282716 A    
C13   C14   1.397886 A    
C23   C27   1.399370 A    
C15   C37   1.397831 A    
C60   H31   1.111854 S    
C28   H5    1.083247 S    
C52   H23   1.082830 S    
C60   H30   1.111773 S    
C7    H9    1.083149 S    
C19   C38   1.413284 A    
C18   C20   1.419509 A    
C54   H25   1.063672 S    
C38   C39   1.387246 A    
Zn1   O5    1.982351 S    
C51   H22   1.063357 S    
Zn2   O6    1.983227 S    
N3    C57   1.366455 A    
C59   C60   1.538102 S    
C10   C11   1.398978 A    
H26   C58   1.081494 S    
C28   C32   1.386700 A    
C62   O13   1.221281 D    
