data_mof_unit_17539.cif
_audit_creation_date              2012-12-11T14:52:35-0500
_audit_creation_method            fapswitch 2.2
_symmetry_space_group_name_H-M    P1
_symmetry_Int_Tables_number       1
_space_group_crystal_system       triclinic
_cell_length_a                    18.848603
_cell_length_b                    10.887276
_cell_length_c                    18.848234
_cell_angle_alpha                 90.327032
_cell_angle_beta                  90.933167
_cell_angle_gamma                 90.102156
_cell_volume                      3867.26224027

loop_
_atom_site_label
_atom_site_type_symbol
_atom_type_description
_atom_site_fract_x
_atom_site_fract_y
_atom_site_fract_z
_atom_type_partial_charge
Br1   Br    Br    0.094322 0.697536 0.433869 -0.323488
Br2   Br    Br    0.838587 0.809504 0.605127 -0.370972
Br3   Br    Br    0.594344 0.197616 0.433857 -0.323540
Br4   Br    Br    0.338577 0.309508 0.605128 -0.370991
C1    C     C_R   0.274342 0.038297 0.855630 0.585167
C2    C     C_R   0.690680 0.546407 0.035193 0.404645
C3    C     C_3   0.025379 0.324873 0.065031 0.032377
C4    C     C_R   0.797972 0.022510 0.961341 0.382978
C5    C     C_R   0.190680 0.046409 0.035192 0.404649
C6    C     C_R   0.294153 0.505969 0.034429 0.325116
C7    C     C_R   0.697656 0.534482 0.962048 0.307760
C8    C     C_R   0.794158 0.005979 0.034431 0.325116
C9    C     C_R   0.197656 0.034484 0.962048 0.307754
C10   C     C_R   0.248170 0.579700 0.075088 -0.044015
C11   C     C_R   0.762256 0.564494 0.930384 -0.037513
C12   C     C_R   0.748170 0.079703 0.075088 -0.044018
C13   C     C_R   0.728063 0.042078 0.146276 0.580334
C14   C     C_R   0.262256 0.064494 0.930384 -0.037510
C15   C     C_R   0.210347 0.674972 0.042339 0.301609
C16   C     C_R   0.820561 0.601640 0.973354 0.331770
C17   C     C_R   0.710341 0.174967 0.042338 0.301609
C18   C     C_R   0.320561 0.101640 0.973354 0.331778
C19   C     C_R   0.213137 0.689019 0.969852 -0.187679
C20   C     C_R   0.813981 0.609474 0.045645 -0.139437
C21   C     C_R   0.713131 0.189011 0.969850 -0.187677
C22   C     C_R   0.313981 0.109473 0.045645 -0.139427
C23   C     C_R   0.255564 0.611699 0.928445 -0.109320
C24   C     C_R   0.774342 0.538297 0.855630 0.585165
C25   C     C_R   0.748765 0.587321 0.077062 -0.084048
C26   C     C_R   0.755564 0.111698 0.928445 -0.109323
C27   C     C_R   0.248765 0.087321 0.077062 -0.084040
C28   C     C_R   0.528420 0.732366 0.544677 -0.121952
C29   C     C_R   0.536844 0.728454 0.472271 -0.092415
C30   C     C_R   0.028443 0.232391 0.544682 -0.121935
C31   C     C_R   0.036872 0.228478 0.472276 -0.092419
C32   C     C_R   0.516076 0.828395 0.429776 0.026015
C33   C     C_R   0.497724 0.835281 0.575913 0.023704
C34   C     C_R   0.016076 0.328396 0.429776 0.026045
C35   C     C_R   0.228063 0.542077 0.146276 0.580340
C36   C     C_R   0.997718 0.335285 0.575911 0.023744
C37   C     C_R   0.488867 0.934402 0.461146 -0.102213
C38   C     C_R   0.479661 0.937995 0.534243 -0.067659
C39   C     C_R   0.988835 0.434382 0.461138 -0.102194
C40   C     C_R   0.979626 0.437978 0.534234 -0.067649
C41   C     C_R   0.444267 0.818119 0.863211 0.541863
C42   C     C_R   0.556121 0.817603 0.136833 0.553368
C43   C     C_R   0.944267 0.318119 0.863211 0.541864
C44   C     C_R   0.056122 0.317603 0.136833 0.553368
C45   C     C_R   0.185688 0.606899 0.539806 0.405528
C46   C     C_3   0.517360 0.719504 0.968278 -0.045558
C47   C     C_R   0.783274 0.704304 0.477212 0.372609
C48   C     C_R   0.685691 0.106934 0.539799 0.405521
C49   C     C_R   0.283270 0.204305 0.477211 0.372611
C50   C     C_R   0.181397 0.621484 0.467847 0.132758
C51   C     C_R   0.783406 0.692845 0.549771 0.121317
C52   C     C_R   0.681407 0.121526 0.467840 0.132753
C53   C     C_R   0.283403 0.192843 0.549770 0.121320
C54   C     C_R   0.240758 0.588554 0.426000 -0.037559
C55   C     C_R   0.746350 0.594685 0.579594 -0.035973
C56   C     C_R   0.740765 0.088572 0.425995 -0.037572
C57   C     C_3   0.471938 0.730542 0.035160 -0.081126
C58   C     C_R   0.246352 0.094676 0.579592 -0.035973
C59   C     C_R   0.306885 0.568416 0.458167 0.385994
C60   C     C_R   0.699953 0.521823 0.537308 0.316636
C61   C     C_R   0.806888 0.068414 0.458165 0.385985
C62   C     C_R   0.199961 0.021804 0.537304 0.316626
C63   C     C_R   0.313016 0.575986 0.531118 -0.112888
C64   C     C_R   0.699065 0.535567 0.464671 -0.181921
C65   C     C_R   0.813017 0.075981 0.531117 -0.112901
C66   C     C_R   0.199074 0.035549 0.464667 -0.181929
C67   C     C_R   0.252055 0.592882 0.572072 -0.047523
C68   C     C_3   0.017361 0.219505 0.968278 -0.045553
C69   C     C_R   0.743038 0.622643 0.434243 -0.076703
C70   C     C_R   0.752056 0.092891 0.572069 -0.047545
C71   C     C_R   0.243040 0.122637 0.434241 -0.076697
C72   C     C_R   0.261951 0.641277 0.853539 0.570434
C73   C     C_R   0.739106 0.635269 0.148424 0.565828
C74   C     C_R   0.761951 0.141277 0.853540 0.570429
C75   C     C_R   0.239106 0.135269 0.148424 0.565832
C76   C     C_R   0.269931 0.048387 0.647398 0.576799
C77   C     C_R   0.727904 0.047667 0.354093 0.587923
C78   C     C_R   0.769930 0.548389 0.647399 0.576788
C79   C     C_3   0.971939 0.230541 0.035160 -0.081120
C80   C     C_R   0.227902 0.547662 0.354095 0.587933
C81   C     C_R   0.470095 0.824141 0.647005 0.548734
C82   C     C_R   0.532916 0.823088 0.354897 0.554515
C83   C     C_R   0.970093 0.324141 0.647004 0.548733
C84   C     C_R   0.032915 0.323088 0.354897 0.554509
C85   C     C_R   0.260123 0.635727 0.643780 0.591353
C86   C     C_R   0.738182 0.644822 0.359263 0.559760
C87   C     C_R   0.760124 0.135729 0.643779 0.591337
C88   C     C_R   0.238183 0.144819 0.359262 0.559757
C89   C     C_3   0.483006 0.931433 0.032458 -0.068665
C90   C     C_R   0.297966 0.522502 0.961340 0.382981
C91   C     C_3   0.528134 0.920414 0.964756 -0.075419
C92   C     C_3   0.983006 0.431432 0.032459 -0.068668
C93   C     C_3   0.028134 0.420415 0.964756 -0.075420
C94   C     C_3   0.429204 0.836729 0.001501 -0.151153
C95   C     C_3   0.570985 0.814095 0.998746 -0.139301
C96   C     C_3   0.929204 0.336727 0.001501 -0.151154
C97   C     C_3   0.070985 0.314097 0.998745 -0.139303
C98   C     C_3   0.474833 0.825606 0.935210 0.037998
C99   C     C_3   0.525379 0.824873 0.065031 0.032379
C100  C     C_3   0.974832 0.325606 0.935210 0.037998
Cr1   Cr    Cr6+3 0.229630 0.835900 0.747350 1.165505
Cr2   Cr    Cr6+3 0.614200 0.677120 0.250660 1.126657
Cr3   Cr    Cr6+3 0.885800 0.177120 0.749340 1.128081
Cr4   Cr    Cr6+3 0.114200 0.177120 0.250660 1.126659
Cr5   Cr    Cr6+3 0.770370 0.835900 0.252650 1.167614
Cr6   Cr    Cr6+3 0.729630 0.335900 0.747350 1.165502
Cr7   Cr    Cr6+3 0.270370 0.335900 0.252650 1.167611
Cr8   Cr    Cr6+3 0.387410 0.989850 0.750850 1.142560
Cr9   Cr    Cr6+3 0.612590 0.989850 0.249150 1.109452
Cr10  Cr    Cr6+3 0.887410 0.489850 0.750850 1.142569
Cr11  Cr    Cr6+3 0.112590 0.489850 0.249150 1.109455
Cr12  Cr    Cr6+3 0.385800 0.677120 0.749340 1.128079
F1    F     F_    0.126103 0.621168 0.578884 -0.545742
F2    F     F_    0.626495 0.523590 0.064087 -0.529597
F3    F     F_    0.841454 0.949633 0.922806 -0.527035
F4    F     F_    0.126494 0.023593 0.064086 -0.529597
F5    F     F_    0.332761 0.414113 0.064350 -0.560856
F6    F     F_    0.641206 0.495463 0.922298 -0.588264
F7    F     F_    0.832772 0.914133 0.064354 -0.560850
F8    F     F_    0.141205 0.995466 0.922297 -0.588264
F9    F     F_    0.168326 0.751997 0.079896 -0.544293
F10   F     F_    0.885145 0.628660 0.946414 -0.555031
F11   F     F_    0.668315 0.251986 0.079893 -0.544286
F12   F     F_    0.822619 0.796101 0.449200 -0.534931
F13   F     F_    0.385146 0.128658 0.946414 -0.555030
F14   F     F_    0.626105 0.121218 0.578872 -0.545742
F15   F     F_    0.322609 0.296112 0.449201 -0.534951
F16   F     F_    0.365263 0.544379 0.419164 -0.551262
F17   F     F_    0.659410 0.431259 0.565031 -0.554160
F18   F     F_    0.865265 0.044358 0.419165 -0.551237
F19   F     F_    0.159424 0.931230 0.565025 -0.554168
F20   F     F_    0.341442 0.449617 0.922802 -0.527037
H1    H     H_    0.370504 0.845268 0.001270 0.101838
H2    H     H_    0.550756 0.998182 0.934660 0.176068
H3    H     H_    0.969899 0.518218 0.060388 0.177419
H4    H     H_    0.050754 0.498184 0.934660 0.176071
H5    H     H_    0.530952 0.631926 0.941475 0.246599
H6    H     H_    0.448763 0.652414 0.064548 0.194554
H7    H     H_    0.030953 0.131927 0.941475 0.246604
H8    H     H_    0.948765 0.152412 0.064548 0.194564
H9    H     H_    0.182429 0.762652 0.946353 0.243175
H10   H     H_    0.859553 0.640395 0.076697 0.213895
H11   H     H_    0.682418 0.262638 0.946350 0.243182
H12   H     H_    0.629662 0.804906 0.998985 0.120335
H13   H     H_    0.359553 0.140393 0.076697 0.213895
H14   H     H_    0.542748 0.652434 0.575753 0.184348
H15   H     H_    0.560202 0.646621 0.449683 0.174702
H16   H     H_    0.042791 0.152476 0.575764 0.184313
H17   H     H_    0.060255 0.146663 0.449692 0.174658
H18   H     H_    0.473534 0.012578 0.429164 0.179784
H19   H     H_    0.454818 0.018083 0.557388 0.190553
H20   H     H_    0.973480 0.512539 0.429151 0.179750
H21   H     H_    0.954759 0.518048 0.557374 0.190510
H22   H     H_    0.870504 0.345265 0.001270 0.101837
H23   H     H_    0.129662 0.304909 0.998984 0.120339
H24   H     H_    0.365467 0.570881 0.555297 0.207484
H25   H     H_    0.665041 0.476969 0.432188 0.201404
H26   H     H_    0.865466 0.070861 0.555298 0.207503
H27   H     H_    0.165056 0.976943 0.432182 0.201394
H28   H     H_    0.469901 0.018219 0.060388 0.177421
O1    O     O_R   0.214270 0.709000 0.827470 -0.510056
O2    O     O_R   0.543270 0.717630 0.330160 -0.494111
O3    O     O_R   0.956730 0.217630 0.669840 -0.505879
O4    O     O_R   0.043270 0.217630 0.330160 -0.494103
O5    O     O_R   0.320620 0.625640 0.672920 -0.509107
O6    O     O_R   0.679380 0.625640 0.327080 -0.524130
O7    O     O_R   0.820620 0.125640 0.672920 -0.509106
O8    O     O_R   0.179380 0.125640 0.327080 -0.524133
O9    O     O_3   0.334280 0.834290 0.749180 -0.342306
O10   O     O_3   0.665720 0.834290 0.250820 -0.333223
O11   O     O_3   0.834280 0.334290 0.749180 -0.342309
O12   O     O_R   0.785730 0.709000 0.172530 -0.493474
O13   O     O_3   0.165720 0.334290 0.250820 -0.333225
O14   O     O_R   0.236160 0.958490 0.823130 -0.471681
O15   O     O_R   0.763840 0.958490 0.176870 -0.457055
O16   O     O_R   0.736160 0.458490 0.823130 -0.471678
O17   O     O_R   0.263840 0.458490 0.176870 -0.457056
O18   O     O_R   0.332080 0.075470 0.831280 -0.423192
O19   O     O_R   0.667920 0.075470 0.168720 -0.447466
O20   O     O_R   0.832080 0.575470 0.831280 -0.423194
O21   O     O_R   0.167920 0.575470 0.168720 -0.447470
O22   O     O_R   0.446300 0.918110 0.826620 -0.470317
O23   O     O_R   0.714270 0.209000 0.827470 -0.510060
O24   O     O_R   0.553700 0.918110 0.173380 -0.506294
O25   O     O_R   0.946300 0.418110 0.826620 -0.470315
O26   O     O_R   0.053700 0.418110 0.173380 -0.506298
O27   O     O_R   0.457110 0.716200 0.831760 -0.486704
O28   O     O_R   0.542890 0.716200 0.168240 -0.461697
O29   O     O_R   0.957110 0.216200 0.831760 -0.486700
O30   O     O_R   0.042890 0.216200 0.168240 -0.461697
O31   O     O_R   0.320980 0.624310 0.823030 -0.447377
O32   O     O_R   0.679020 0.624310 0.176970 -0.440217
O33   O     O_R   0.820980 0.124310 0.823030 -0.447373
O34   O     O_R   0.285730 0.209000 0.172530 -0.493469
O35   O     O_R   0.179020 0.124310 0.176970 -0.440217
O36   O     O_R   0.213890 0.710430 0.665540 -0.395337
O37   O     O_R   0.786110 0.710430 0.334460 -0.424631
O38   O     O_R   0.713890 0.210430 0.665540 -0.395341
O39   O     O_R   0.286110 0.210430 0.334460 -0.424633
O40   O     O_R   0.235810 0.959820 0.673020 -0.435707
O41   O     O_R   0.764190 0.959820 0.326980 -0.415766
O42   O     O_R   0.735810 0.459820 0.673020 -0.435704
O43   O     O_R   0.264190 0.459820 0.326980 -0.415763
O44   O     O_R   0.331700 0.076900 0.669350 -0.483323
O45   O     O_R   0.445950 0.919440 0.676520 -0.491071
O46   O     O_R   0.668300 0.076900 0.330650 -0.492710
O47   O     O_R   0.831700 0.576900 0.669350 -0.483329
O48   O     O_R   0.168300 0.576900 0.330650 -0.492713
O49   O     O_R   0.554050 0.919440 0.323480 -0.488359
O50   O     O_R   0.945950 0.419440 0.676520 -0.491060
O51   O     O_R   0.054050 0.419440 0.323480 -0.488347
O52   O     O_R   0.456730 0.717630 0.669840 -0.505884

loop_
_geom_bond_atom_site_label_1
_geom_bond_atom_site_label_2
_ccdc_geom_bond_type
C70   C87   S    
C68   H7    S    
C3    C79   S    
C95   H12   S    
C12   C17   A    
C84   O51   A    
C51   C55   A    
C37   C38   A    
Cr10  O50   S    
Cr7   O43   S    
C95   C99   S    
C57   C94   S    
C82   O2    A    
C55   C78   S    
Cr9   O49   S    
Cr1   O14   S    
Cr12  O52   S    
C6    F5    S    
C66   H27   S    
C89   C99   S    
C92   H3    S    
Cr5   O12   S    
C53   C58   A    
Cr3   O7    S    
Cr6   O11   S    
C3    C92   S    
C19   H9    S    
C46   C95   S    
C9    C14   A    
C30   C36   A    
C47   F12   S    
Cr2   O2    S    
C36   C83   S    
C33   C81   S    
C57   C99   S    
C73   O32   A    
Cr9   O46   S    
C78   O47   A    
C48   C70   A    
Br2   C51   S    
Cr7   O34   S    
Cr8   O22   S    
C79   H8    S    
Cr11  O21   S    
C91   C95   S    
C41   O22   A    
C63   C67   A    
C68   C97   S    
C6    C90   A    
C45   C50   A    
C96   C100  S    
C29   C32   A    
C30   C31   A    
Br3   C52   S    
C33   C38   A    
C5    C9    A    
C20   C25   A    
C10   C35   S    
Cr12  O31   S    
C7    C11   A    
C41   O27   A    
Cr1   O36   S    
C83   O3    A    
C8    C12   A    
Cr1   O1    S    
C12   C13   S    
C84   O4    A    
Br4   C53   S    
Cr12  O5    S    
C90   F20   S    
C63   H24   S    
C49   F15   S    
C74   O33   A    
C19   C23   A    
C17   F11   S    
C93   H4    S    
C44   O26   A    
C61   F18   S    
C91   C98   S    
C86   O37   A    
C13   O15   A    
C77   O46   A    
Cr4   O4    S    
C22   C27   A    
C89   C91   S    
Cr10  O25   S    
Cr1   O9    S    
C40   H21   S    
Cr2   O6    S    
Cr12  O9    S    
C32   C37   A    
C49   C71   A    
C59   C63   A    
Cr2   O10   S    
C11   C16   A    
Cr3   O3    S    
Cr6   O23   S    
C75   O35   A    
C58   C62   A    
C94   H1    S    
C48   C52   A    
C87   O38   A    
C54   C59   A    
C47   C69   A    
C65   C70   A    
C31   C34   A    
C65   H26   S    
Cr8   O44   S    
C21   H11   S    
C29   H15   S    
C81   O52   A    
Cr7   O39   S    
C2    C7    A    
Cr3   O33   S    
C9    F8    S    
C30   H16   S    
Cr5   O10   S    
Cr1   O40   S    
Cr8   O18   S    
C1    C14   S    
C68   C100  S    
C89   H28   S    
C32   C82   S    
C64   C69   A    
C94   C98   S    
Cr9   O24   S    
C15   F9    S    
C52   C56   A    
C34   C84   S    
Cr5   O15   S    
Cr9   O19   S    
C26   C74   S    
Cr10  O47   S    
C43   O25   A    
C15   C19   A    
C39   C40   A    
Cr2   O28   S    
C16   F10   S    
C72   O31   A    
C54   C80   S    
C75   O34   A    
C56   C77   S    
C13   O19   A    
C67   C85   S    
Cr6   O16   S    
C4    C8    A    
C92   C93   S    
C86   O6    A    
C80   O48   A    
C55   C60   A    
Cr11  O51   S    
C72   O1    A    
Cr6   O42   S    
Cr11  O13   S    
C28   C33   A    
Cr5   O41   S    
C24   O16   A    
C35   O17   A    
C88   O39   A    
C71   C88   S    
Br1   C50   S    
Cr11  O48   S    
Cr10  O11   S    
C76   O44   A    
Cr12  O27   S    
C56   C61   A    
C46   C98   S    
C73   O12   A    
C79   C96   S    
Cr4   O8    S    
C18   F13   S    
C45   C67   A    
C45   F1    S    
C7    F6    S    
Cr4   O30   S    
C23   C72   S    
Cr10  O20   S    
C60   C64   A    
C1    O18   A    
C78   O42   A    
C77   O41   A    
C37   H18   S    
C50   C54   A    
C58   C76   S    
C21   C26   A    
C5    F4    S    
C85   O36   A    
C17   C21   A    
C60   F17   S    
C91   H2    S    
C49   C53   A    
C43   C100  S    
Cr3   O29   S    
C44   O30   A    
C14   C18   A    
C10   C15   A    
C43   O29   A    
C22   H13   S    
C31   H17   S    
C42   O28   A    
C28   H14   S    
C81   O45   A    
C2    C25   A    
C69   C86   S    
Cr2   O32   S    
C46   H5    S    
C27   C75   S    
Cr11  O26   S    
C42   C99   S    
C62   C66   A    
Cr7   O17   S    
C87   O7    A    
Cr6   O38   S    
C4    C26   A    
C28   C29   A    
Cr4   O35   S    
Cr5   O37   S    
C38   H19   S    
C24   O20   A    
C82   O49   A    
C85   O5    A    
C34   C39   A    
C20   H10   S    
C3    C44   S    
C48   F14   S    
C80   O43   A    
C11   C24   S    
C76   O40   A    
C8    F7    S    
Cr3   O11   S    
C88   O8    A    
C61   C65   A    
C92   C96   S    
C83   O50   A    
C59   F16   S    
Cr4   O13   S    
Cr8   O9    S    
C47   C51   A    
C6    C10   A    
C1    O14   A    
C93   C100  S    
C41   C98   S    
C5    C27   A    
C68   C79   S    
C18   C22   A    
C62   F19   S    
C35   O21   A    
C96   H22   S    
C57   H6    S    
C36   C40   A    
Cr8   O45   S    
C25   C73   S    
C97   H23   S    
C64   H25   S    
C3    C97   S    
C66   C71   A    
Cr7   O13   S    
C46   C57   S    
C23   C90   A    
C74   O23   A    
C42   O24   A    
C89   C94   S    
C16   C20   A    
C93   C97   S    
C39   H20   S    
C4    F3    S    
C2    F2    S    
Cr9   O10   S    
