data_mof_unit_8764.cif
_audit_creation_date              2012-12-11T17:12:46-0500
_audit_creation_method            fapswitch 2.2
_symmetry_space_group_name_H-M    P1
_symmetry_Int_Tables_number       1
_space_group_crystal_system       triclinic
_cell_length_a                    17.248685
_cell_length_b                    6.887621
_cell_length_c                    14.389591
_cell_angle_alpha                 89.437857
_cell_angle_beta                  110.232319
_cell_angle_gamma                 90.605426
_cell_volume                      1603.91342539

loop_
_atom_site_label
_atom_site_type_symbol
_atom_type_description
_atom_site_fract_x
_atom_site_fract_y
_atom_site_fract_z
_atom_type_partial_charge
O1    O     O_R   0.314130 0.635770 0.168990 -0.522591
O2    O     O_R   0.685870 0.364230 0.831010 -0.522591
O3    O     O_R   0.185870 0.135770 0.331010 -0.546941
O4    O     O_R   0.814130 0.864230 0.668990 -0.546941
O5    O     O_R   0.146800 0.302460 0.139760 -0.543608
O6    O     O_R   0.853200 0.697540 0.860240 -0.543609
O7    O     O_R   0.353200 0.802460 0.360240 -0.534320
O8    O     O_R   0.646800 0.197540 0.639760 -0.534325
C1    C     C_R   0.114031 0.475683 0.112786 0.734061
C2    C     C_R   0.885970 0.524317 0.887213 0.734056
C3    C     C_R   0.385969 0.975979 0.387225 0.730944
C4    C     C_R   0.614031 0.024021 0.612774 0.730975
O9    O     O_R   0.311100 0.305780 0.157130 -0.548625
O10   O     O_R   0.688900 0.694220 0.842870 -0.548624
O11   O     O_R   0.188900 0.805780 0.342870 -0.523240
O12   O     O_R   0.811100 0.194220 0.657130 -0.523239
O13   O     O_R   0.351340 0.139640 0.348510 -0.542964
O14   O     O_R   0.648660 0.860360 0.651490 -0.542960
O15   O     O_R   0.148660 0.639640 0.151490 -0.533031
O16   O     O_R   0.851340 0.360360 0.848510 -0.533030
C5    C     C_R   0.334150 0.476220 0.137707 0.732537
C6    C     C_R   0.665850 0.523780 0.862293 0.732533
C7    C     C_R   0.165726 0.973128 0.362310 0.732579
C8    C     C_R   0.834273 0.026873 0.637690 0.732621
C9    C     C_1   0.533594 0.008743 0.533055 -0.183115
C10   C     C_1   0.466406 0.991257 0.466944 -0.183109
C11   C     C_1   0.966421 0.509098 0.966961 -0.181608
C12   C     C_1   0.033579 0.490902 0.033039 -0.181609
O17   O     O_3   0.263010 0.470920 0.312770 -0.367611
O18   O     O_3   0.736990 0.529080 0.687230 -0.367614
O19   O     O_3   0.236990 0.970920 0.187230 -0.364868
O20   O     O_3   0.763010 0.029080 0.812770 -0.364868
V1    V     V_3+5 0.247590 0.194450 0.238360 1.442840
V2    V     V_3+5 0.752410 0.805550 0.761640 1.442845
V3    V     V_3+5 0.252410 0.694450 0.261640 1.490297
V4    V     V_3+5 0.747590 0.305550 0.738360 1.490288
C13   C     C_R   0.114538 0.975725 0.426174 -0.170035
C14   C     C_R   0.885465 0.024282 0.573829 -0.170076
C15   C     C_R   0.385114 0.493099 0.073928 -0.171656
C16   C     C_R   0.614886 0.506901 0.926072 -0.171651
C17   C     C_R   0.907237 0.135819 0.423567 -0.195351
C18   C     C_R   0.092770 0.864209 0.576442 -0.195381
C19   C     C_R   0.592149 0.353357 0.067692 -0.192604
C20   C     C_R   0.407851 0.646645 0.932309 -0.192605
C21   C     C_R   0.856968 0.122370 0.481654 0.224798
C22   C     C_R   0.143043 0.877670 0.518359 0.224822
C23   C     C_R   0.642728 0.387181 0.011286 0.225806
C24   C     C_R   0.357273 0.612821 0.988715 0.225804
C25   C     C_R   0.964981 0.937369 0.606417 0.267466
C26   C     C_R   0.035020 0.062627 0.393584 0.267463
C27   C     C_R   0.535776 0.594851 0.898909 0.267251
C28   C     C_R   0.464225 0.405149 0.101092 0.267253
C29   C     C_R   0.014269 0.949401 0.545750 0.021528
C30   C     C_R   0.985734 0.050606 0.454253 0.021520
C31   C     C_R   0.486078 0.561364 0.957831 0.021966
C32   C     C_R   0.513922 0.438637 0.042170 0.021971
H1    H     H_    0.883784 0.212645 0.353415 0.174423
H2    H     H_    0.116225 0.787400 0.646599 0.174412
H3    H     H_    0.615084 0.260186 0.132403 0.174769
H4    H     H_    0.384917 0.739817 0.867599 0.174781
O21   O     O_3   0.002394 0.155386 0.302605 -0.656237
H5    H     H_    0.033278 0.119812 0.258958 0.281023
O22   O     O_3   0.997604 0.844593 0.697392 -0.656236
H6    H     H_    0.966721 0.880169 0.741040 0.281023
O23   O     O_3   0.496194 0.291051 0.185399 -0.656362
H7    H     H_    0.463897 0.306854 0.229622 0.281563
O24   O     O_3   0.503807 0.708949 0.814601 -0.656362
H8    H     H_    0.536103 0.693145 0.770378 0.281563
N1    N     N_2   0.222453 0.789584 0.552868 -0.505502
H9    H     H_    0.225766 0.667859 0.596428 0.255029
C33   C     C_3   0.290194 0.923169 0.597429 -0.520823
H10   H     H_    0.284966 0.986190 0.665827 0.190786
H11   H     H_    0.290722 0.041968 0.544898 0.186556
H12   H     H_    0.349662 0.844508 0.617209 0.210088
N2    N     N_2   0.777569 0.210506 0.447164 -0.505505
H13   H     H_    0.774284 0.332329 0.403678 0.255037
C34   C     C_3   0.709820 0.076998 0.402501 -0.520848
H14   H     H_    0.715023 0.014275 0.334025 0.190782
H15   H     H_    0.650354 0.155645 0.382821 0.210102
H16   H     H_    0.709309 0.957983 0.454927 0.186575
N3    N     N_2   0.278360 0.702894 0.960001 -0.502623
H17   H     H_    0.275753 0.835019 0.924644 0.256100
C35   C     C_3   0.209919 0.577117 0.907089 -0.524349
H18   H     H_    0.214875 0.533634 0.835167 0.189171
H19   H     H_    0.150888 0.655505 0.892418 0.209955
H20   H     H_    0.208688 0.445232 0.951601 0.186519
N4    N     N_2   0.721641 0.297110 0.040002 -0.502622
H21   H     H_    0.724251 0.164994 0.075367 0.256096
C36   C     C_3   0.790083 0.422896 0.092902 -0.524358
H22   H     H_    0.785123 0.466421 0.164817 0.189176
H23   H     H_    0.791318 0.554754 0.048377 0.186519
H24   H     H_    0.849112 0.344501 0.107585 0.209956

loop_
_geom_bond_atom_site_label_1
_geom_bond_atom_site_label_2
_ccdc_geom_bond_type
C2    C11   S    
C16   C23   A    
C31   C32   A    
O1    C5    A    
C25   O22   S    
O3    C7    A    
N4    H21   S    
C18   H2    S    
N3    H17   S    
C14   C25   A    
C34   H14   S    
O7    C3    A    
C26   C30   A    
O20   V4    S    
C18   C29   A    
C18   C22   A    
O4    C8    A    
O3    V1    S    
O17   V1    S    
C24   N3    S    
O8    V4    S    
N1    C33   S    
C14   C21   A    
C1    O15   A    
C2    O16   A    
C22   N1    S    
O5    V1    S    
O2    C6    A    
C8    C14   S    
O19   V1    S    
C36   H23   S    
C19   H3    S    
O11   C7    A    
C15   C28   A    
O12   C8    A    
O9    V1    S    
N1    H9    S    
O13   V1    S    
O11   V3    S    
N3    C35   S    
C34   H15   S    
O4    V2    S    
O18   V2    S    
O24   H8    S    
C33   H11   S    
C3    C10   S    
C9    C10   T    
C7    C13   S    
O6    V2    S    
O20   V2    S    
N2    H13   S    
O5    C1    A    
O14   V2    S    
C35   H18   S    
C5    C15   S    
O8    C4    A    
C6    C16   S    
O9    C5    A    
C27   O24   S    
C36   H24   S    
N2    C34   S    
C35   H19   S    
N4    C36   S    
O19   V3    S    
O1    V3    S    
C34   H16   S    
O2    V4    S    
C3    O13   A    
O7    V3    S    
O10   V2    S    
C33   H12   S    
C29   C30   A    
C16   C27   A    
O17   V3    S    
O18   V4    S    
C4    C9    S    
C21   N2    S    
O10   C6    A    
C36   H22   S    
C17   H1    S    
C33   H10   S    
O15   V3    S    
O12   V4    S    
C13   C26   A    
C20   C31   A    
C20   H4    S    
C25   C29   A    
C27   C31   A    
O21   H5    S    
C17   C30   A    
O6    C2    A    
O22   H6    S    
O16   V4    S    
C28   C32   A    
C19   C32   A    
C35   H20   S    
O23   H7    S    
C4    O14   A    
C11   C12   T    
C26   O21   S    
C17   C21   A    
C13   C22   A    
C19   C23   A    
C28   O23   S    
C20   C24   A    
C1    C12   S    
C23   N4    S    
C15   C24   A    
