data_mof_unit_26857.cif
_audit_creation_date              2012-12-11T15:48:10-0500
_audit_creation_method            fapswitch 2.2
_symmetry_space_group_name_H-M    P1
_symmetry_Int_Tables_number       1
_space_group_crystal_system       triclinic
_cell_length_a                    6.967887
_cell_length_b                    17.674706
_cell_length_c                    19.521319
_cell_angle_alpha                 108.534136
_cell_angle_beta                  89.081883
_cell_angle_gamma                 90.682424
_cell_volume                      2279.11054404

loop_
_atom_site_label
_atom_site_type_symbol
_atom_type_description
_atom_site_fract_x
_atom_site_fract_y
_atom_site_fract_z
_atom_type_partial_charge
O1    O     O_R   0.494330 0.415710 0.413720 -0.530852
O2    O     O_R   0.819360 0.430070 0.560210 -0.521012
O3    O     O_R   0.994320 0.584290 0.586280 -0.551128
C1    C     C_R   0.649493 0.415018 0.581443 0.737279
O4    O     O_R   0.823740 0.406290 0.412670 -0.500200
O5    O     O_R   0.998730 0.560340 0.437690 -0.542475
C2    C     C_R   0.654446 0.383624 0.384357 0.768659
O6    O     O_R   0.489920 0.439660 0.562310 -0.516636
O7    O     O_3   0.662330 0.550570 0.508380 -0.377610
V1    V     V_3+5 0.935370 0.490620 0.498440 1.654225
O8    O     O_R   0.328720 0.569930 0.439790 -0.511297
C3    C     C_R   0.161396 0.586207 0.419152 0.731265
O9    O     O_R   0.324340 0.593710 0.587330 -0.532904
C4    C     C_R   0.155954 0.619821 0.613155 0.707831
V2    V     V_3+5 0.435940 0.509380 0.501560 1.658273
O10   O     O_3   0.159110 0.449430 0.491620 -0.329431
C5    C     C_R   0.319520 0.729453 0.715896 -0.142876
C6    C     C_R   0.306105 0.797716 0.778236 0.322763
C7    C     C_R   0.127556 0.816154 0.815017 -0.261118
C8    C     C_R   0.964206 0.776621 0.778165 0.321899
C9    C     C_R   0.982055 0.733660 0.704646 0.362771
C10   C     C_R   0.152249 0.692752 0.679813 -0.353329
C11   C     C_R   0.304225 0.635888 0.321746 0.307672
C12   C     C_R   0.155488 0.638895 0.372234 -0.194632
C13   C     C_R   0.002046 0.692466 0.378634 0.267691
C14   C     C_R   0.991297 0.739990 0.331974 0.002798
C15   C     C_R   0.132990 0.730806 0.276540 0.005869
C16   C     C_R   0.288487 0.677152 0.269989 -0.007792
C17   C     C_R   0.841899 0.796614 0.339265 -0.137946
C18   C     C_R   0.824903 0.838200 0.288689 0.329782
C19   C     C_R   0.969519 0.831790 0.235522 0.066989
C20   C     C_R   0.121849 0.776845 0.228669 -0.024158
C21   C     C_R   0.263467 0.768288 0.173815 0.055061
C22   C     C_R   0.410108 0.711134 0.164062 -0.064975
C23   C     C_R   0.422197 0.665360 0.211339 -0.094452
C24   C     C_R   0.966350 0.880581 0.189788 0.390804
C25   C     C_R   0.107822 0.871011 0.134973 -0.203793
C26   C     C_R   0.255106 0.816470 0.128673 -0.183898
H1    H     H_    0.363326 0.811790 0.087194 0.164507
C27   C     C_R   0.761133 0.199102 0.881838 -0.115863
C28   C     C_R   0.626703 0.135701 0.870171 -0.174211
C29   C     C_R   0.502195 0.118299 0.811398 0.352428
C30   C     C_R   0.501498 0.167168 0.766420 0.029954
C31   C     C_R   0.637553 0.229920 0.776388 0.042040
C32   C     C_R   0.770846 0.246617 0.834186 -0.034188
C33   C     C_R   0.357804 0.157295 0.714646 -0.191592
C34   C     C_R   0.355075 0.202779 0.667886 -0.001410
C35   C     C_R   0.506654 0.257994 0.670048 0.022738
C36   C     C_R   0.637146 0.276379 0.728596 0.055339
C37   C     C_R   0.765018 0.341644 0.739428 0.010233
C38   C     C_R   0.908774 0.354452 0.792787 -0.085879
C39   C     C_R   0.908124 0.309607 0.841235 -0.091938
C40   C     C_R   0.532463 0.295312 0.615701 -0.021789
C41   C     C_R   0.639293 0.367363 0.632041 -0.171593
C42   C     C_R   0.742567 0.393362 0.697205 -0.019424
H2    H     H_    0.238841 0.116806 0.712967 0.172756
C43   C     C_R   0.778864 0.254943 0.296576 0.429317
C44   C     C_R   0.766701 0.192012 0.230742 -0.195533
H3    H     H_    0.871659 0.144664 0.218484 0.117829
C45   C     C_R   0.619863 0.188213 0.181379 -0.140826
C46   C     C_R   0.482750 0.250004 0.197834 -0.067985
C47   C     C_R   0.488211 0.311975 0.265086 -0.134896
C48   C     C_R   0.639940 0.315974 0.314587 -0.154584
O11   O     O_R   0.774940 0.060470 0.937800 -0.544069
O12   O     O_R   0.440880 0.093730 0.087350 -0.551485
O13   O     O_R   0.266130 0.939630 0.062280 -0.544729
C49   C     C_R   0.609614 0.117947 0.114215 0.734201
O14   O     O_R   0.445480 0.069960 0.939820 -0.501156
O15   O     O_R   0.270770 0.915690 0.913690 -0.495921
C50   C     C_R   0.615471 0.085359 0.918763 0.817249
O16   O     O_R   0.770300 0.084410 0.086380 -0.547988
O17   O     O_3   0.602600 0.949510 0.991670 -0.366754
V3    V     V_3+5 0.329470 0.009370 0.001550 1.579287
O18   O     O_R   0.940760 0.906160 0.912560 -0.541508
C51   C     C_R   0.111084 0.882966 0.884897 0.784230
O19   O     O_R   0.936150 0.929930 0.060100 -0.540601
C52   C     C_R   0.103097 0.916963 0.083110 0.676399
V4    V     V_3+5 0.828930 0.990450 0.998310 1.535333
O20   O     O_3   0.105670 0.050490 0.008320 -0.376597
C53   C     C_2   0.504861 0.701695 0.683829 0.928235
O21   O     O_2   0.549017 0.712918 0.626957 -0.533799
O22   O     O_R   0.608294 0.649780 0.709943 -0.628354
H4    H     H_    0.710148 0.620046 0.674476 0.292048
C54   C     C_2   0.545371 0.694985 0.101277 0.793781
O23   O     O_2   0.484045 0.669354 0.039765 -0.529398
O24   O     O_R   0.741888 0.708609 0.112779 -0.644099
H5    H     H_    0.818918 0.695646 0.066032 0.317949
C55   C     C_2   0.560856 0.598518 0.192248 0.856941
O25   O     O_2   0.732341 0.612048 0.202548 -0.544574
O26   O     O_R   0.494397 0.520420 0.161186 -0.602906
H6    H     H_    0.601931 0.479988 0.150040 0.344786
C56   C     C_2   0.886068 0.214050 0.945256 0.794663
O27   O     O_2   0.826314 0.253074 0.005153 -0.533921
O28   O     O_R   0.069002 0.180525 0.936427 -0.631542
H7    H     H_    0.140912 0.194497 0.983480 0.322641
O29   O     O_3   0.383961 0.052010 0.798750 -0.625425
H8    H     H_    0.378247 0.025123 0.745892 0.294099
C57   C     C_2   0.178528 0.197381 0.624448 0.797374
O30   O     O_2   0.116148 0.256661 0.613168 -0.532177
O31   O     O_R   0.078356 0.124979 0.599234 -0.648805
H9    H     H_    0.958505 0.129267 0.571944 0.322812
C58   C     C_2   0.475869 0.251768 0.539772 0.776885
O32   O     O_2   0.406823 0.286924 0.501410 -0.532213
O33   O     O_R   0.501415 0.169144 0.512481 -0.656039
H10   H     H_    0.457513 0.145698 0.460691 0.315275
C59   C     C_2   0.800751 0.478392 0.726694 0.768640
O34   O     O_2   0.718255 0.521709 0.780347 -0.515420
O35   O     O_R   0.955082 0.507707 0.696032 -0.641290
H11   H     H_    0.989123 0.564691 0.724966 0.287534
C60   C     C_2   0.074501 0.408974 0.793947 0.812591
O36   O     O_2   0.179460 0.396701 0.740809 -0.527102
O37   O     O_R   0.110299 0.473699 0.855832 -0.620383
H12   H     H_    0.226837 0.506052 0.849883 0.333554
O38   O     O_3   0.459353 0.849265 0.800689 -0.591661
H13   H     H_    0.539131 0.847799 0.757798 0.332429
C61   C     C_2   0.059538 0.329395 0.896758 0.850357
O39   O     O_2   0.026011 0.376670 0.956675 -0.489812
O40   O     O_R   0.242595 0.297019 0.878977 -0.655548
H14   H     H_    0.334697 0.315659 0.920802 0.327919
O41   O     O_3   0.921671 0.256082 0.345229 -0.605211
H15   H     H_    0.007756 0.209934 0.324375 0.304342
C62   C     C_2   0.338000 0.252465 0.143552 0.811045
O42   O     O_2   0.390670 0.251959 0.083362 -0.544109
O43   O     O_R   0.142623 0.256168 0.161624 -0.660921
H16   H     H_    0.058421 0.257905 0.120328 0.321299
C63   C     C_2   0.336453 0.373460 0.280770 0.835979
O44   O     O_2   0.205100 0.372010 0.322587 -0.520437
O45   O     O_R   0.336414 0.428995 0.243547 -0.623747
H17   H     H_    0.219680 0.464732 0.255716 0.316752
O46   O     O_3   0.786213 0.782906 0.810200 -0.599132
H18   H     H_    0.803081 0.778468 0.859088 0.313079
O47   O     O_3   0.873908 0.758919 0.658104 -0.605307
H19   H     H_    0.925902 0.736726 0.608195 0.298603
O48   O     O_3   0.465961 0.593336 0.325191 -0.617784
H20   H     H_    0.576496 0.630243 0.329113 0.332456
O49   O     O_3   0.860913 0.698573 0.430433 -0.621216
H21   H     H_    0.924573 0.701614 0.476267 0.289306
C64   C     C_2   0.715427 0.821615 0.404256 0.880111
O50   O     O_2   0.777301 0.867323 0.460732 -0.519787
O51   O     O_R   0.527171 0.792721 0.400915 -0.680338
H22   H     H_    0.455820 0.813741 0.448794 0.308495
O52   O     O_3   0.670515 0.887896 0.291986 -0.598021
H23   H     H_    0.556581 0.868028 0.312075 0.304318
O53   O     O_3   0.828653 0.939155 0.201289 -0.598932
H24   H     H_    0.885519 0.985867 0.190624 0.272675

loop_
_geom_bond_atom_site_label_1
_geom_bond_atom_site_label_2
_ccdc_geom_bond_type
C31   C36   A    
C46   C62   S    
C63   O44   D    
C28   C29   A    
C41   C42   A    
C7    C8    A    
C1    O6    A    
O45   H17   S    
C6    O38   S    
O38   H13   S    
C43   C44   A    
C40   C41   A    
O35   H11   S    
C17   C64   S    
C14   C15   A    
C17   C18   A    
C34   C57   S    
C29   O29   S    
C9    C10   A    
C24   C25   A    
C25   C26   A    
O19   V4    S    
C6    C7    A    
C19   C24   A    
O5    C3    A    
C26   H1    S    
C28   C50   S    
C59   O34   D    
C44   C45   A    
V2    O10   S    
O12   V3    S    
C61   O39   D    
C22   C23   A    
C36   C37   A    
C13   O49   S    
O40   H14   S    
O37   H12   S    
O17   V4    S    
C60   O36   D    
O8    V2    S    
C54   O23   D    
C19   C20   A    
C16   C23   A    
C61   O40   S    
O47   H19   S    
O12   C49   A    
C11   C12   A    
O15   V3    S    
O1    V2    S    
O11   C50   A    
O7    V1    S    
C46   C47   A    
C55   O25   D    
O9    C4    A    
C58   O32   D    
C22   C54   S    
O33   H10   S    
C5    C6    A    
C39   C61   S    
O51   H22   S    
C27   C32   A    
O18   C51   A    
C42   C59   S    
C38   C39   A    
C12   C13   A    
C45   C49   S    
C53   O22   S    
C47   C63   S    
V4    O20   S    
C53   O21   D    
C32   C39   A    
O14   V3    S    
O13   V3    S    
C25   C52   S    
C5    C53   S    
C27   C56   S    
C45   C46   A    
O2    C1    A    
C30   C31   A    
C9    O47   S    
C47   C48   A    
C23   C55   S    
C34   C35   A    
C40   C58   S    
C37   C42   A    
O29   H8    S    
C56   O28   S    
C37   C38   A    
V3    O20   S    
C11   C16   A    
O19   C52   A    
C58   O33   S    
C2    C48   S    
O3    C4    A    
C64   O51   S    
C43   O41   S    
C35   C36   A    
C55   O26   S    
C57   O30   D    
O6    V2    S    
C57   O31   S    
O9    V2    S    
C44   H3    S    
C29   C30   A    
C62   O43   S    
O2    V1    S    
O41   H15   S    
O24   H5    S    
O4    C2    A    
O13   C52   A    
C33   C34   A    
C27   C28   A    
C63   O45   S    
C11   O48   S    
C1    C41   S    
C15   C20   A    
O1    C2    A    
O11   V4    S    
C31   C32   A    
C21   C26   A    
C43   C48   A    
C8    O46   S    
O17   V3    S    
O5    V1    S    
O8    C3    A    
O48   H20   S    
C35   C40   A    
C38   C60   S    
C3    C12   S    
C5    C10   A    
C18   O52   S    
O53   H24   S    
C20   C21   A    
C4    C10   S    
C7    C51   S    
O46   H18   S    
C13   C14   A    
O4    V1    S    
O3    V1    S    
V1    O10   S    
O26   H6    S    
C18   C19   A    
C59   O35   S    
C56   O27   D    
C21   C22   A    
O15   C51   A    
C49   O16   A    
O7    V2    S    
O28   H7    S    
C30   C33   A    
C60   O37   S    
C64   O50   D    
C8    C9    A    
C14   C17   A    
O14   C50   A    
O22   H4    S    
O18   V4    S    
C33   H2    S    
C15   C16   A    
O52   H23   S    
C54   O24   S    
O31   H9    S    
C62   O42   D    
C24   O53   S    
O16   V4    S    
O49   H21   S    
O43   H16   S    
