data_mof_unit_6500.cif
_audit_creation_date              2012-12-11T20:10:41-0500
_audit_creation_method            fapswitch 2.2
_symmetry_space_group_name_H-M    P1
_symmetry_Int_Tables_number       1
_space_group_crystal_system       triclinic
_cell_length_a                    8.360366
_cell_length_b                    16.108052
_cell_length_c                    18.733441
_cell_angle_alpha                 111.994587
_cell_angle_beta                  90.713108
_cell_angle_gamma                 84.267235
_cell_volume                      2326.65357594

loop_
_atom_site_label
_atom_site_type_symbol
_atom_type_description
_atom_site_fract_x
_atom_site_fract_y
_atom_site_fract_z
_atom_type_partial_charge
Ba1   Ba    Ba6+2 0.333520 0.539550 0.472180 1.639355
Ba2   Ba    Ba6+2 0.856270 0.460520 0.527840 1.646755
C1    C     C_3   0.878568 0.807007 0.282455 -0.369530
C2    C     C_R   0.445736 0.404358 0.075478 0.033112
C3    C     C_R   0.306219 0.364088 0.044324 -0.085589
C4    C     C_3   0.436758 0.744829 0.318213 0.472525
C5    C     C_R   0.243009 0.369818 0.976818 -0.091222
C6    C     C_R   0.321354 0.413033 0.937056 0.035712
C7    C     C_R   0.464703 0.451001 0.965805 0.016709
C8    C     C_R   0.259724 0.416830 0.868277 -0.120605
C9    C     C_R   0.343610 0.453465 0.824140 -0.041930
C10   C     C_R   0.486295 0.493836 0.853640 -0.001937
C11   C     C_R   0.545453 0.492873 0.924998 -0.011531
C12   C     C_3   0.950529 0.748796 0.325724 0.470900
C13   C     C_R   0.290423 0.450302 0.751075 -0.040461
C14   C     C_R   0.378708 0.486764 0.709061 -0.268781
C15   C     C_R   0.513849 0.531482 0.738638 0.088407
C16   C     C_3   0.365257 0.800980 0.273199 -0.312831
C17   C     C_R   0.567920 0.536805 0.812940 -0.025863
C18   C     C_R   0.668459 0.486187 0.065537 -0.007979
C19   C     C_R   0.727285 0.484911 0.136877 0.004476
C20   C     C_R   0.639772 0.446592 0.179631 -0.043413
C21   C     C_R   0.504139 0.402981 0.145871 -0.048147
C22   C     C_R   0.699579 0.583905 0.848480 -0.028503
C23   C     C_3   0.093125 0.298491 0.273626 0.415716
C24   C     C_R   0.763933 0.578077 0.916523 0.030935
C25   C     C_R   0.686644 0.532554 0.955155 0.001937
C26   C     C_R   0.749351 0.528161 0.024740 0.018781
C27   C     C_R   0.906209 0.616255 0.946155 -0.074961
C28   C     C_3   0.640930 0.744688 0.678002 0.292304
C29   C     C_R   0.970981 0.609344 0.013308 -0.094365
C30   C     C_R   0.892557 0.566324 0.053596 0.031800
C31   C     C_R   0.870804 0.524258 0.166268 -0.022387
C32   C     C_R   0.954047 0.562291 0.122667 -0.106125
C33   C     C_R   0.923351 0.526553 0.239425 -0.004354
C34   C     C_3   0.186474 0.280685 0.199743 -0.322575
C35   C     C_R   0.832089 0.492788 0.282123 -0.283313
C36   C     C_R   0.689999 0.454761 0.255037 0.068765
C37   C     C_2   0.392248 0.239949 0.490188 -0.299094
C38   C     C_R   0.803276 0.755057 0.523548 -0.149454
C39   C     C_2   0.242235 0.112183 0.414065 0.072783
C40   C     C_3   0.644265 0.845685 0.726189 -0.122078
C41   C     C_2   0.254133 0.202404 0.442399 0.051550
C42   C     C_2   0.504128 0.186696 0.509293 -0.029795
C43   C     C_3   0.460869 0.095028 0.501827 -0.089298
C44   C     C_3   0.372509 0.049399 0.428103 0.052782
C45   C     C_3   0.613215 0.253101 0.688222 0.359450
C46   C     C_2   0.592910 0.030442 0.510588 -0.069834
C47   C     C_2   0.563247 0.977441 0.548974 0.175773
C48   C     C_R   0.824889 0.940024 0.593346 -0.047084
C49   C     C_R   0.687801 0.909118 0.553223 -0.055396
C50   C     C_R   0.947183 0.879916 0.602303 0.038407
C51   C     C_R   0.935250 0.787040 0.567609 0.139802
C52   C     C_3   0.564660 0.265111 0.342509 0.296295
C53   C     C_R   0.672338 0.815638 0.520743 0.007639
C54   C     C_3   0.574887 0.162822 0.307333 -0.406237
C55   C     C_3   0.203492 0.727154 0.728070 0.483730
C56   C     C_3   0.659404 0.250487 0.766172 -0.343143
C57   C     C_3   0.174484 0.703869 0.798872 -0.112917
C58   C     C_3   0.152219 0.245281 0.699249 0.339820
C59   C     C_3   0.097508 0.169585 0.720052 -0.347672
C60   C     C_R   0.526207 0.447512 0.035790 0.004760
H1    H     H_    0.527915 0.874616 0.756967 0.146542
H2    H     H_    0.157676 0.339459 0.183087 0.060043
H3    H     H_    0.837762 0.763223 0.225284 0.116842
H4    H     H_    0.300498 0.758772 0.222546 0.098592
H5    H     H_    0.571060 0.323842 0.696608 -0.008599
H6    H     H_    0.514488 0.209626 0.665995 -0.064380
H7    H     H_    0.753082 0.296529 0.791680 0.144122
H8    H     H_    0.263149 0.266547 0.731195 -0.065191
H9    H     H_    0.199626 0.118586 0.715826 0.058213
H10   H     H_    0.002478 0.136660 0.680727 0.146788
H11   H     H_    0.335935 0.484605 0.653692 0.064748
H12   H     H_    0.445373 0.292813 0.370267 0.013985
H13   H     H_    0.441320 0.368815 0.174429 0.091917
H14   H     H_    0.756208 0.624097 0.823166 0.105337
H15   H     H_    0.081567 0.638844 0.034343 0.068329
H16   H     H_    0.066012 0.590383 0.142350 0.109828
H17   H     H_    0.706416 0.019958 0.479199 0.068049
H18   H     H_    0.280156 0.857548 0.310422 0.104521
H19   H     H_    0.462399 0.829545 0.252633 0.113204
H20   H     H_    0.762586 0.714490 0.654623 0.030425
H21   H     H_    0.557073 0.736771 0.629939 -0.010153
H22   H     H_    0.909349 0.853061 0.430127 0.131917
H23   H     H_    0.689571 0.135347 0.273680 0.119723
H24   H     H_    0.096519 0.840852 0.394500 0.184835
H25   H     H_    0.784044 0.812530 0.805760 0.212892
H26   H     H_    0.877708 0.864830 0.757239 0.192133
H27   H     H_    0.661208 0.882392 0.687951 0.047549
H28   H     H_    0.658719 0.284488 0.386240 0.074660
H29   H     H_    0.472551 0.141094 0.268687 0.131364
H30   H     H_    0.571928 0.134938 0.352988 0.061622
H31   H     H_    0.167919 0.864783 0.783635 0.160741
H32   H     H_    0.288898 0.829389 0.704624 0.183940
H33   H     H_    0.969619 0.848319 0.273786 0.111565
H34   H     H_    0.293507 0.675179 0.689358 0.039216
H35   H     H_    0.074692 0.750732 0.835694 0.078727
H36   H     H_    0.336135 0.776171 0.873879 0.203304
H37   H     H_    0.297360 0.682358 0.885959 0.165519
H38   H     H_    0.908167 0.224137 0.223859 0.184020
H39   H     H_    0.866718 0.306987 0.309333 0.183522
H40   H     H_    0.316978 0.271778 0.209197 0.130533
H41   H     H_    0.552278 0.272359 0.805701 0.065541
H42   H     H_    0.706021 0.180929 0.759661 0.111207
H43   H     H_    0.178514 0.220162 0.636182 0.012804
H44   H     H_    0.339473 0.713912 0.335517 0.119531
H45   H     H_    0.136884 0.634758 0.779250 0.087992
H46   H     H_    0.049241 0.196808 0.780304 0.112883
H47   H     H_    0.245377 0.327521 0.071490 0.062436
H48   H     H_    0.133853 0.339035 0.955018 0.068832
H49   H     H_    0.147377 0.389204 0.849171 0.099228
H50   H     H_    0.968734 0.650586 0.916805 0.061346
H51   H     H_    0.495131 0.631187 0.222962 0.167303
H52   H     H_    0.603085 0.637133 0.300120 0.153977
H53   H     H_    0.872503 0.496592 0.338253 0.069465
H54   H     H_    0.011990 0.105518 0.375669 0.213407
H55   H     H_    0.158039 0.074888 0.305768 0.183734
H56   H     H_    0.852779 0.710817 0.333643 0.004591
H57   H     H_    0.034997 0.954058 0.704309 0.154225
H58   H     H_    0.131033 0.956149 0.626979 0.199030
H59   H     H_    0.411231 0.309501 0.502121 0.061405
H60   H     H_    0.790448 0.647091 0.423257 0.153371
H61   H     H_    0.722291 0.633910 0.505699 0.206191
H62   H     H_    0.320068 0.988036 0.554797 0.192012
H63   H     H_    0.408451 0.056091 0.633863 0.153642
H64   H     H_    0.773342 0.852381 0.315240 0.109498
H65   H     H_    0.109969 0.368488 0.312588 0.068241
H66   H     H_    0.153728 0.218714 0.152875 0.098419
N1    N     N_3   0.004163 0.805187 0.401443 -0.467197
N2    N     N_3   0.415762 0.991169 0.591849 -0.490833
N3    N     N_3   0.769513 0.863459 0.783614 -0.496624
N4    N     N_3   0.260567 0.816218 0.753111 -0.502501
N5    N     N_3   0.319234 0.708489 0.844040 -0.512411
N6    N     N_3   0.924337 0.291345 0.256501 -0.522559
N7    N     N_3   0.555255 0.674857 0.268844 -0.508671
N8    N     N_3   0.125940 0.071243 0.358148 -0.510386
N9    N     N_3   0.079984 0.913962 0.648974 -0.493847
N10   N     N_3   0.806405 0.660294 0.481618 -0.449011
O1    O     O_2   0.402610 0.439360 0.314250 -0.468221
O2    O     O_2   0.838729 0.186963 0.495747 -0.485398
O3    O     O_3   0.747081 0.221035 0.637310 -0.560538
O4    O     O_3   0.648560 0.446300 0.404730 -0.500976
O5    O     O_3   0.025080 0.609480 0.556050 -0.439383
O6    O     O_2   0.948320 0.280590 0.426090 -0.472737
O7    O     O_3   0.149695 0.233622 0.303642 -0.660521
O8    O     O_2   0.966031 0.485360 0.752680 -0.476340
O9    O     O_3   0.028583 0.316241 0.720753 -0.564607
O10   O     O_3   0.108870 0.604000 0.387500 -0.445795
O11   O     O_2   0.257017 0.539621 0.249125 -0.503815
O12   O     O_3   0.055853 0.727947 0.692181 -0.673712
O13   O     O_3   0.587719 0.296313 0.283490 -0.639954
O14   O     O_3   0.083034 0.692415 0.282035 -0.629964
O15   O     O_2   0.241370 0.719440 0.573960 -0.474180
O16   O     O_3   0.507090 0.652150 0.432150 -0.505804
O17   O     O_2   0.334698 0.813063 0.500947 -0.464558
O18   O     O_3   0.512308 0.802187 0.382433 -0.626446
O19   O     O_2   0.787080 0.560670 0.685800 -0.447277
O20   O     O_3   0.541120 0.553770 0.595290 -0.510243
O21   O     O_3   0.080800 0.396070 0.612520 -0.452465
O22   O     O_3   0.586009 0.703638 0.725335 -0.628796
O23   O     O_3   0.164600 0.390590 0.443970 -0.477377
O24   O     O_3   0.682580 0.347920 0.567870 -0.466072
P1    P     P_3+3 0.582960 0.413890 0.320860 0.967470
P2    P     P_3+3 0.071690 0.707860 0.593450 1.024731
P3    P     P_3+3 0.500655 0.769884 0.461849 0.948931
P4    P     P_3+3 0.606720 0.586180 0.679160 0.983693
P5    P     P_3+3 0.692993 0.233363 0.551137 0.977520
P6    P     P_3+3 0.094209 0.586788 0.289396 0.932966
P7    P     P_3+3 0.130773 0.276716 0.404423 0.931726
P8    P     P_3+3 0.097061 0.409664 0.709334 0.968348

loop_
_geom_bond_atom_site_label_1
_geom_bond_atom_site_label_2
_ccdc_geom_bond_type
C6    C7    A    
O21   P8    S    
Ba2   O6    S    
C45   H6    S    
C27   H50   S    
Ba2   O24   S    
C41   P7    S    
C1    H64   S    
C5    C6    A    
C34   H66   S    
C43   C44   S    
C42   C43   S    
C28   O22   S    
H36   N5    S    
C24   C25   A    
C35   C36   A    
C46   H17   S    
Ba1   O20   S    
C33   C35   A    
C22   C24   A    
C52   H28   S    
C15   P4    S    
O10   P6    S    
C55   C57   S    
C19   C31   A    
C13   C14   A    
C20   C36   A    
C2    C60   A    
H22   N1    S    
C16   H19   S    
H37   N5    S    
C34   H40   S    
Ba1   Ba2   S    
H25   N3    S    
C28   H21   S    
C59   H46   S    
C7    C11   A    
Ba1   O4    S    
C55   N4    S    
C15   C17   A    
C52   H12   S    
C9    C13   A    
H63   N2    S    
C54   H29   S    
Ba1   P2    S    
C14   C15   A    
C47   C49   S    
C55   H34   S    
C38   N10   S    
C48   C50   A    
C39   C44   S    
O16   P3    S    
C40   N3    S    
C58   O9    S    
O22   P4    S    
H31   N4    S    
Ba2   P4    S    
Ba1   O1    S    
O9    P8    S    
O23   P7    S    
C59   H9    S    
O2    P5    D    
Ba1   O23   S    
C51   P2    S    
C19   C20   A    
Ba2   O5    S    
C39   C41   D    
C1    H3    S    
O11   P6    D    
H58   N9    S    
C33   P6    S    
Ba2   O23   S    
C45   H5    S    
O14   P6    S    
H38   N6    S    
C29   H15   S    
C52   C54   S    
C4    C16   S    
O7    P7    S    
O3    P5    S    
O15   P2    D    
C7    C60   A    
H57   N9    S    
C26   C30   A    
H60   N10   S    
O4    P1    S    
C3    C5    A    
C2    C21   A    
Ba2   O21   S    
C37   C41   S    
C18   C26   A    
C48   C49   A    
H39   N6    S    
O6    P7    D    
C57   N5    S    
H32   N4    S    
C14   H11   S    
C13   P8    S    
C58   C59   S    
C42   P5    S    
C30   C32   A    
C28   H20   S    
C4    N7    S    
Ba1   O5    S    
C29   C30   A    
H61   N10   S    
C58   H8    S    
Ba2   O20   S    
C38   C53   A    
C55   O12   S    
C50   N9    S    
C4    H44   S    
H62   N2    S    
C8    H49   S    
H24   N1    S    
C10   C11   A    
Ba1   O15   S    
C23   N6    S    
C37   C42   D    
C1    C12   S    
C35   H53   S    
C59   H10   S    
C16   H18   S    
C36   P1    S    
H52   N7    S    
O13   P1    S    
O8    P8    D    
C57   H35   S    
C56   H42   S    
C53   P3    S    
O5    P2    S    
C50   C51   A    
O20   P4    S    
C12   H56   S    
C43   C46   S    
C46   C47   D    
C28   C40   S    
C22   H14   S    
C21   H13   S    
C2    C3    A    
O19   P4    D    
C23   O7    S    
C9    C10   A    
C56   H7    S    
C52   O13   S    
H54   N8    S    
C16   H4    S    
O12   P2    S    
C47   N2    S    
C45   O3    S    
C37   H59   S    
C5    H48   S    
C40   H27   S    
O1    P1    D    
C17   C22   A    
C23   H65   S    
C27   C29   A    
C32   H16   S    
C45   C56   S    
C54   H23   S    
C3    H47   S    
O18   P3    S    
O17   P3    D    
Ba2   O19   S    
Ba2   O4    S    
C10   C17   A    
C31   C33   A    
C31   C32   A    
C49   C53   A    
C18   C60   A    
Ba1   O16   S    
C57   H45   S    
C8    C9    A    
C23   C34   S    
O24   P5    S    
C54   H30   S    
C18   C19   A    
Ba1   P1    S    
C24   C27   A    
C6    C8    A    
C38   C51   A    
H51   N7    S    
C12   O14   S    
C25   C26   A    
C20   C21   A    
C11   C25   A    
Ba1   O10   S    
C1    H33   S    
C56   H41   S    
H26   N3    S    
C34   H2    S    
H55   N8    S    
C40   H1    S    
C39   N8    S    
C4    O18   S    
C58   H43   S    
C12   N1    S    
