data_mof_unit_16052.cif
_audit_creation_date              2012-12-10T17:03:57-0500
_audit_creation_method            fapswitch 2.2
_symmetry_space_group_name_H-M    P1
_symmetry_Int_Tables_number       1
_space_group_crystal_system       triclinic
_cell_length_a                    10.096109
_cell_length_b                    11.108124
_cell_length_c                    15.628442
_cell_angle_alpha                 99.30942
_cell_angle_beta                  80.223546
_cell_angle_gamma                 111.114127
_cell_volume                      1601.62221685

loop_
_atom_site_label
_atom_site_type_symbol
_atom_type_description
_atom_site_fract_x
_atom_site_fract_y
_atom_site_fract_z
_atom_type_partial_charge
C1    C     C_R   0.552431 0.744216 0.512652 0.773058
C2    C     C_R   0.443739 0.254612 0.495175 0.764880
C3    C     C_R   0.376241 0.299500 0.041636 0.496935
C4    C     C_R   0.691936 0.492084 0.911474 0.467079
C5    C     C_R   0.275347 0.257906 0.981957 0.422697
C6    C     C_R   0.790512 0.550279 0.973017 0.394591
C7    C     C_2   0.564514 0.880249 0.542149 0.208291
C8    C     C_2   0.421062 0.114224 0.488038 0.217693
C9    C     C_2   0.529987 0.945605 0.488490 0.350333
C10   C     C_2   0.515593 0.075773 0.519787 0.357480
C11   C     C_2   0.924707 0.490030 0.490781 0.297403
C12   C     C_2   0.076022 0.511115 0.508358 0.305908
C13   C     C_R   0.412736 0.480744 0.662060 0.846398
C14   C     C_R   0.587233 0.518581 0.337604 0.872537
C15   C     C_R   0.360144 0.442163 0.751723 -0.245449
C16   C     C_R   0.640380 0.537003 0.243877 -0.262301
C17   C     C_R   0.189185 0.300675 0.854985 0.520458
C18   C     C_R   0.830626 0.623996 0.127132 0.548382
C19   C     C_R   0.222234 0.350266 0.773371 0.003523
C20   C     C_R   0.784490 0.612163 0.216871 -0.026477
C21   C     C_R   0.457992 0.485971 0.813716 0.513273
C22   C     C_R   0.544129 0.483581 0.180666 0.466628
C23   C     C_R   0.435528 0.416637 0.886281 -0.128615
C24   C     C_R   0.595824 0.476344 0.090536 -0.140567
C25   C     C_R   0.298528 0.325288 0.908185 -0.258828
C26   C     C_R   0.740111 0.549975 0.063405 -0.228555
C27   C     C_R   0.543902 0.441737 0.940673 -0.140193
C28   C     C_R   0.503739 0.406838 0.026180 -0.158907
Cu1   Cu    Cu3+1 0.362980 0.479380 0.485080 0.949675
Cu2   Cu    Cu3+1 0.637020 0.520620 0.514920 0.934495
N1    N     N_2   0.842890 0.551600 0.537350 -0.151306
N2    N     N_2   0.157110 0.448400 0.462650 -0.156163
O1    O     O_R   0.426810 0.668300 0.492040 -0.559110
O2    O     O_R   0.573190 0.331700 0.507960 -0.568770
O3    O     O_R   0.658240 0.703130 0.517240 -0.608081
O4    O     O_R   0.341760 0.296870 0.482760 -0.585259
O5    O     O_R   0.319390 0.472820 0.610170 -0.603877
O6    O     O_R   0.680610 0.527180 0.389830 -0.595228
O7    O     O_R   0.550820 0.507640 0.635370 -0.532587
O8    O     O_R   0.449180 0.492360 0.364630 -0.520667
O9    O     O_3   0.152891 0.152416 0.998006 -0.523923
C29   C     C_3   0.167419 0.042538 0.943091 -0.257693
H1    H     H_    0.236839 0.002849 0.969314 0.141983
H2    H     H_    0.209547 0.061882 0.874159 0.156731
H3    H     H_    0.059995 0.967375 0.941487 0.172485
O10   O     O_3   0.937275 0.593363 0.946990 -0.553795
C30   C     C_3   0.977407 0.683792 0.885082 -0.212709
H4    H     H_    0.902914 0.738887 0.889857 0.136486
H5    H     H_    0.988954 0.634289 0.818080 0.186933
H6    H     H_    0.084482 0.755035 0.896245 0.154749
O11   O     O_3   0.398379 0.444025 0.207317 -0.523906
C31   C     C_3   0.349562 0.546741 0.202689 -0.236151
H7    H     H_    0.363071 0.569457 0.134284 0.139523
H8    H     H_    0.404609 0.635415 0.245238 0.174719
H9    H     H_    0.233630 0.516512 0.226419 0.181737
O12   O     O_3   0.575972 0.597315 0.802303 -0.540929
C32   C     C_3   0.548208 0.701814 0.857063 -0.395989
H10   H     H_    0.528249 0.685381 0.927192 0.169617
H11   H     H_    0.456463 0.720526 0.838197 0.162392
H12   H     H_    0.644019 0.790294 0.849527 0.181486
C33   C     C_3   0.886961 0.689595 0.282918 -0.749541
H13   H     H_    0.837021 0.749893 0.331819 0.217178
H14   H     H_    0.916680 0.623838 0.315805 0.245133
H15   H     H_    0.989461 0.756330 0.253627 0.251224
C34   C     C_3   0.110402 0.301843 0.710469 -0.788143
H16   H     H_    0.080930 0.383748 0.697560 0.234204
H17   H     H_    0.151988 0.255650 0.648565 0.233382
H18   H     H_    0.010220 0.227344 0.735580 0.237668
O13   O     O_3   0.051145 0.221304 0.880129 -0.565276
C35   C     C_3   0.976038 0.299909 0.929071 -0.242167
H19   H     H_    0.025928 0.351615 0.989046 0.186321
H20   H     H_    0.865441 0.236980 0.950040 0.160987
H21   H     H_    0.968988 0.370673 0.888767 0.193428
O14   O     O_3   0.964768 0.710349 0.102049 -0.541780
C36   C     C_3   0.952218 0.832990 0.102213 -0.288414
H22   H     H_    0.900778 0.866204 0.165904 0.147676
H23   H     H_    0.891139 0.831834 0.049060 0.152479
H24   H     H_    0.061048 0.905269 0.091388 0.216444
O15   O     O_3   0.350601 0.228001 0.111394 -0.508425
C37   C     C_3   0.448763 0.161048 0.099999 -0.294018
H25   H     H_    0.555958 0.227552 0.115690 0.156998
H26   H     H_    0.457723 0.110376 0.032809 0.116535
H27   H     H_    0.410298 0.086025 0.146097 0.197603
O16   O     O_3   0.743517 0.477155 0.823830 -0.564170
C38   C     C_3   0.715788 0.344216 0.794537 -0.267887
H28   H     H_    0.723476 0.287452 0.844978 0.117551
H29   H     H_    0.796974 0.336446 0.738595 0.173075
H30   H     H_    0.608990 0.300194 0.771103 0.208657
O17   O     O_3   0.590772 0.156300 0.586902 -0.566229
C39   C     C_3   0.739236 0.176926 0.569903 -0.248997
H31   H     H_    0.775098 0.135518 0.504185 0.094821
H32   H     H_    0.771865 0.137165 0.620195 0.190445
H33   H     H_    0.798017 0.282549 0.577144 0.180873
O18   O     O_3   0.505219 0.890338 0.403824 -0.557242
C40   C     C_3   0.623669 0.954552 0.345815 -0.351776
H34   H     H_    0.634062 0.057783 0.346013 0.164786
H35   H     H_    0.607165 0.905996 0.278688 0.192679
H36   H     H_    0.724519 0.948169 0.361249 0.127740
O19   O     O_3   0.324319 0.028770 0.434200 -0.550977
C41   C     C_3   0.189925 0.984832 0.484710 -0.292577
H37   H     H_    0.145994 0.064883 0.506283 0.154343
H38   H     H_    0.195420 0.940106 0.542263 0.140702
H39   H     H_    0.114231 0.908990 0.443755 0.194481
O20   O     O_3   0.566584 0.927714 0.630486 -0.582912
C42   C     C_3   0.650188 0.882506 0.672017 -0.349470
H40   H     H_    0.758426 0.898147 0.635053 0.157051
H41   H     H_    0.593952 0.778988 0.682623 0.194283
H42   H     H_    0.665412 0.939058 0.737106 0.185088
C43   C     C_3   0.141481 0.617122 0.578564 -0.769549
H43   H     H_    0.082791 0.595985 0.643611 0.169154
H44   H     H_    0.245678 0.628446 0.592444 0.277048
H45   H     H_    0.155637 0.713138 0.559593 0.200816
C44   C     C_3   0.867154 0.397912 0.412079 -0.799156
H46   H     H_    0.927836 0.437030 0.350843 0.194314
H47   H     H_    0.861613 0.298695 0.416183 0.171779
H48   H     H_    0.756918 0.375231 0.404913 0.278954
C45   C     C_3   0.117840 0.335152 0.398716 -0.478783
H49   H     H_    0.212680 0.307160 0.373416 0.263326
H50   H     H_    0.039800 0.249853 0.429503 0.141651
H51   H     H_    0.091239 0.356487 0.338555 0.179416
C46   C     C_3   0.867104 0.636647 0.618326 -0.498654
H52   H     H_    0.776237 0.671395 0.639553 0.245461
H53   H     H_    0.867862 0.582846 0.671938 0.216250
H54   H     H_    0.956257 0.728791 0.609579 0.139619

loop_
_geom_bond_atom_site_label_1
_geom_bond_atom_site_label_2
_ccdc_geom_bond_type
C17   O13   S    
O9    C29   S    
C40   H34   S    
C18   C26   A    
N2    C45   S    
C3    O15   S    
C32   H10   S    
C40   H36   S    
C1    O1    A    
C30   H5    S    
C38   H28   S    
C15   C19   A    
C42   H41   S    
Cu1   O4    S    
Cu2   O3    S    
C3    C28   A    
C8    O19   S    
C24   C26   A    
Cu1   N2    S    
C43   H44   S    
Cu2   N1    S    
C32   H11   S    
Cu1   O1    S    
O12   C32   S    
Cu2   O6    S    
C18   C20   A    
C20   C33   S    
C33   H14   S    
C12   C43   S    
C46   H54   S    
O19   C41   S    
C10   O17   S    
C34   H17   S    
C35   H19   S    
C23   C27   A    
C9    C10   S    
C13   O5    A    
C33   H13   S    
C31   H9    S    
C44   H48   S    
C2    O2    A    
C11   N1    D    
C18   O14   S    
C12   N2    D    
O13   C35   S    
C29   H2    S    
C37   H27   S    
O20   C42   S    
C31   H8    S    
C30   H6    S    
C38   H29   S    
C21   C23   A    
C42   H42   S    
C46   H53   S    
O14   C36   S    
Cu2   O2    S    
O11   C31   S    
O16   C38   S    
N1    C46   S    
C37   H26   S    
C43   H45   S    
C32   H12   S    
C41   H39   S    
C29   H3    S    
C33   H15   S    
C36   H22   S    
Cu1   Cu2   S    
C14   O6    A    
C39   H32   S    
C30   H4    S    
C4    O16   S    
C16   C20   A    
C34   H18   S    
C35   H21   S    
C41   H38   S    
C36   H23   S    
C46   H52   S    
C5    C25   A    
C4    C6    A    
C7    O20   S    
C13   C15   S    
C14   C16   S    
C45   H51   S    
C29   H1    S    
C4    C27   A    
C31   H7    S    
C1    O3    A    
C39   H33   S    
C44   H46   S    
C38   H30   S    
C2    O4    A    
C7    C9    D    
C5    O9    S    
O10   C30   S    
C16   C22   A    
C6    O10   S    
C1    C7    S    
C2    C8    S    
C24   C28   A    
C37   H25   S    
C3    C5    A    
C21   O12   S    
C11   C12   S    
C40   H35   S    
C42   H40   S    
C17   C25   A    
C45   H50   S    
C43   H43   S    
C39   H31   S    
C6    C26   A    
Cu1   O8    S    
C41   H37   S    
C17   C19   A    
Cu2   O7    S    
C19   C34   S    
C22   C24   A    
C23   C25   A    
O18   C40   S    
C11   C44   S    
C36   H24   S    
C13   O7    A    
C14   O8    A    
O15   C37   S    
C15   C21   A    
C8    C10   D    
C34   H16   S    
Cu1   O5    S    
C27   C28   A    
C35   H20   S    
O17   C39   S    
C45   H49   S    
C9    O18   S    
C22   O11   S    
C44   H47   S    
