data_mof_unit_18344.cif
_audit_creation_date              2013-03-05T16:05:51-0500
_audit_creation_method            fapswitch 2.2
_symmetry_space_group_name_H-M    P1
_symmetry_Int_Tables_number       1
_space_group_crystal_system       triclinic
_cell_length_a                    14.818479
_cell_length_b                    15.418698
_cell_length_c                    15.764138
_cell_angle_alpha                 90.152402
_cell_angle_beta                  103.477531
_cell_angle_gamma                 81.380002
_cell_volume                      3461.11077718

loop_
_atom_site_label
_atom_site_type_symbol
_atom_site_description
_atom_site_fract_x
_atom_site_fract_y
_atom_site_fract_z
_atom_type_partial_charge
O1    O     O_R   0.383120 0.605620 0.475300 -0.617664
O2    O     O_R   0.531890 0.639510 0.506740 -0.621692
C1    C     C_R   0.441166 0.662688 0.489197 0.882753
O3    O     O_R   0.425580 0.483050 0.607130 -0.622222
O4    O     O_R   0.574360 0.516930 0.638570 -0.616813
C2    C     C_R   0.500223 0.500513 0.661439 0.893559
Zn1   Zn    Zn3+2 0.400660 0.477370 0.479010 0.997884
Zn2   Zn    Zn3+2 0.599340 0.522630 0.520990 0.934031
O5    O     O_R   0.468110 0.360490 0.493260 -0.590080
O6    O     O_R   0.616880 0.394380 0.524700 -0.628415
O7    O     O_R   0.425640 0.483070 0.361430 -0.546262
O8    O     O_R   0.574420 0.516950 0.392870 -0.634664
C3    C     C_R   0.558801 0.337400 0.515105 0.876044
C4    C     C_R   0.499822 0.499743 0.338597 0.913974
C5    C     C_3   0.440277 0.437818 0.938277 -0.060121
C6    C     C_3   0.464482 0.599090 0.944509 0.014401
C7    C     C_3   0.438114 0.594182 0.036454 0.251914
H1    H     H_    0.392895 0.414208 0.056124 0.233440
H2    H     H_    0.366450 0.470857 0.916939 0.207125
H3    H     H_    0.523138 0.637770 0.953337 0.111121
C8    C     C_1   0.499134 0.500604 0.249847 -0.138746
C9    C     C_3   0.504172 0.503995 0.917799 0.075416
C10   C     C_3   0.458688 0.424625 0.038254 -0.431804
C11   C     C_3   0.500705 0.505339 0.083678 0.126732
C12   C     C_3   0.605204 0.497739 0.072256 -0.111600
C13   C     C_3   0.607286 0.476950 0.975751 -0.081575
C14   C     C_1   0.499617 0.502322 0.174849 0.056516
C15   C     C_1   0.503149 0.503421 0.825860 0.066471
C16   C     C_1   0.501227 0.502172 0.750292 -0.174736
H4    H     H_    0.627601 0.405366 0.974101 0.228058
H5    H     H_    0.506815 0.362872 0.059256 0.211972
H6    H     H_    0.625415 0.563093 0.081297 0.152452
C17   C     C_R   0.405877 0.755759 0.496098 -0.114191
C18   C     C_R   0.594330 0.244617 0.538159 -0.055225
C19   C     C_R   0.281322 0.875211 0.507367 0.172162
C20   C     C_R   0.311264 0.786436 0.492238 -0.167854
C21   C     C_R   0.471525 0.812636 0.515862 -0.259619
C22   C     C_R   0.446983 0.898614 0.538382 0.094057
C23   C     C_R   0.350389 0.931970 0.529966 0.099681
C24   C     C_R   0.516821 0.953412 0.563543 0.053873
C25   C     C_R   0.488634 0.044523 0.561550 0.064114
C26   C     C_R   0.393091 0.077126 0.556625 -0.185246
C27   C     C_R   0.325772 0.021566 0.543311 -0.228992
C28   C     C_R   0.613706 0.919843 0.590368 -0.268710
C29   C     C_R   0.682485 0.974899 0.604112 0.151212
C30   C     C_R   0.654213 0.066120 0.587104 0.140048
C31   C     C_R   0.556768 0.100105 0.563725 0.037318
C32   C     C_R   0.719942 0.124602 0.591546 -0.204299
C33   C     C_R   0.689964 0.213227 0.568211 -0.212459
C34   C     C_R   0.529096 0.187959 0.536261 -0.207311
H7    H     H_    0.254034 0.050693 0.540538 0.142429
H8    H     H_    0.455893 0.212626 0.509920 0.190225
H9    H     H_    0.741448 0.256918 0.573338 0.161770
H10   H     H_    0.262021 0.740358 0.477580 0.172951
H11   H     H_    0.542624 0.789132 0.511716 0.168860
H12   H     H_    0.369045 0.145459 0.565599 0.144565
H13   H     H_    0.637353 0.850369 0.603368 0.145330
H14   H     H_    0.794724 0.102943 0.611935 0.151019
N1    N     N_R   0.731690 0.552720 0.548990 -0.096271
N2    N     N_R   0.268300 0.447240 0.450950 -0.156359
C35   C     C_R   0.846598 0.618330 0.648622 -0.307186
C36   C     C_R   0.753548 0.609131 0.613772 0.016863
C37   C     C_R   0.798438 0.505409 0.514850 -0.052517
C38   C     C_R   0.894836 0.504915 0.553147 -0.049551
C39   C     C_R   0.919450 0.565744 0.619639 0.117704
C40   C     C_R   0.966612 0.450958 0.522685 -0.010520
C41   C     C_R   0.059629 0.469992 0.548647 -0.004620
C42   C     C_R   0.085484 0.511979 0.628799 0.085857
C43   C     C_R   0.015684 0.569323 0.658250 0.136364
C44   C     C_R   0.950835 0.379046 0.466873 0.153081
C45   C     C_R   0.013101 0.353614 0.413833 -0.185733
C46   C     C_R   0.097063 0.387401 0.425413 0.072899
C47   C     C_R   0.123067 0.444001 0.494456 0.008033
C48   C     C_R   0.157332 0.361616 0.370917 -0.347554
C49   C     C_R   0.243579 0.391279 0.385224 0.471465
C50   C     C_R   0.209052 0.476551 0.502611 -0.154719
H15   H     H_    0.230010 0.524729 0.550104 0.158577
H16   H     H_    0.997679 0.304495 0.365428 0.148871
H17   H     H_    0.859721 0.664185 0.700262 0.155251
H18   H     H_    0.698488 0.645112 0.640324 0.133572
H19   H     H_    0.774762 0.467581 0.458692 0.128154
H20   H     H_    0.138571 0.317233 0.318461 0.173684
C51   C     C_3   0.437527 0.350449 0.888245 -0.395680
C52   C     C_3   0.530986 0.290777 0.893892 -0.853047
H21   H     H_    0.576585 0.322204 0.860671 0.252736
H22   H     H_    0.567377 0.272229 0.962491 0.248685
H23   H     H_    0.517244 0.229414 0.859567 0.253602
H24   H     H_    0.390340 0.312012 0.912521 0.217096
H25   H     H_    0.404582 0.365991 0.818009 0.214835
C53   C     C_3   0.784728 0.933046 0.631946 -0.418041
C54   C     C_3   0.829355 0.921230 0.553702 -0.863557
H26   H     H_    0.794711 0.874507 0.508166 0.266319
H27   H     H_    0.822955 0.984645 0.518047 0.260706
H28   H     H_    0.905071 0.894523 0.576411 0.249867
H29   H     H_    0.824837 0.972345 0.682102 0.201786
H30   H     H_    0.791049 0.867341 0.663649 0.203838
C55   C     C_3   0.177700 0.910349 0.500205 -0.415852
C56   C     C_3   0.109060 0.844628 0.474209 -0.871967
H31   H     H_    0.111525 0.819092 0.408702 0.265937
H32   H     H_    0.125507 0.789573 0.523227 0.256232
H33   H     H_    0.036499 0.877913 0.471340 0.254832
H34   H     H_    0.169656 0.936543 0.564232 0.214290
H35   H     H_    0.155591 0.965287 0.450684 0.209529
C57   C     C_3   0.044169 0.635119 0.728398 -0.385599
C58   C     C_3   0.030653 0.727756 0.688619 -0.844530
H36   H     H_    0.078184 0.729913 0.643943 0.261441
H37   H     H_    0.957275 0.748866 0.651528 0.253534
H38   H     H_    0.048190 0.774691 0.741280 0.271045
H39   H     H_    0.004486 0.633395 0.779852 0.201501
H40   H     H_    0.118810 0.620187 0.763491 0.267769
N3    N     N_R   0.305415 0.361856 0.330457 0.219376
O9    O     O_R   0.288227 0.396275 0.252009 -0.363789
O10   O     O_R   0.359534 0.286479 0.348339 -0.416865
C59   C     C_3   0.180243 0.479458 0.690780 -0.424265
C60   C     C_3   0.168353 0.432864 0.772304 -0.809670
H41   H     H_    0.129853 0.477496 0.811638 0.267316
H42   H     H_    0.129594 0.376775 0.753103 0.253966
H43   H     H_    0.238250 0.407019 0.814211 0.241144
H44   H     H_    0.223731 0.429366 0.660660 0.214844
H45   H     H_    0.221210 0.533983 0.708090 0.252877
C61   C     C_3   0.878771 0.319682 0.471809 -0.429948
C62   C     C_3   0.923940 0.223896 0.493739 -0.864488
H46   H     H_    0.954049 0.194808 0.440046 0.254842
H47   H     H_    0.980040 0.219315 0.554886 0.264739
H48   H     H_    0.869999 0.184501 0.503158 0.247585
H49   H     H_    0.842930 0.339045 0.524748 0.213003
H50   H     H_    0.825652 0.323518 0.408657 0.205577
N4    N     N_R   0.389060 0.647046 0.875517 0.253959
O11   O     O_R   0.323065 0.608118 0.829099 -0.411722
O12   O     O_R   0.392862 0.727841 0.854815 -0.382042
N5    N     N_R   0.336234 0.589373 0.025744 0.197914
O13   O     O_R   0.308873 0.549614 0.085883 -0.386743
O14   O     O_R   0.273655 0.649169 0.978204 -0.333513
C63   C     C_3   0.451752 0.681016 0.087957 -0.358350
C64   C     C_3   0.549912 0.704281 0.124142 -0.977200
H51   H     H_    0.590586 0.657286 0.177489 0.262162
H52   H     H_    0.588085 0.709089 0.072063 0.262501
H53   H     H_    0.542834 0.769846 0.153373 0.277345
H54   H     H_    0.410979 0.737380 0.044832 0.260153
H55   H     H_    0.418571 0.680323 0.144369 0.234305
C65   C     C_3   0.683764 0.520394 0.945057 -0.438661
C66   C     C_3   0.737637 0.458929 0.891173 -0.853730
H56   H     H_    0.776664 0.400218 0.931571 0.256377
H57   H     H_    0.689403 0.437314 0.832946 0.262632
H58   H     H_    0.788923 0.493606 0.868934 0.258825
H59   H     H_    0.652418 0.581873 0.905952 0.221809
H60   H     H_    0.736637 0.538943 0.001758 0.216071
C67   C     C_3   0.685395 0.441634 0.141507 -0.388790
C68   C     C_3   0.676790 0.345455 0.155224 -0.850782
H61   H     H_    0.617030 0.339617 0.184952 0.262359
H62   H     H_    0.670122 0.310100 0.093388 0.246477
H63   H     H_    0.741481 0.313071 0.201535 0.245180
H64   H     H_    0.753304 0.443275 0.123514 0.215850
H65   H     H_    0.691723 0.473382 0.205619 0.205541

loop_
_geom_bond_atom_site_label_1
_geom_bond_atom_site_label_2
_geom_bond_distance
_ccdc_geom_bond_type
C64   H53   1.110658 S    
C22   C24   1.418166 A    
C11   C12   1.587309 S    
C7    N5    1.492605 S    
C25   C26   1.413811 A    
C19   C20   1.411694 A    
C11   C14   1.442034 S    
N4    O11   1.300824 A    
C59   C60   1.532061 S    
C64   H51   1.109784 S    
C40   C44   1.426461 A    
C29   C30   1.413751 A    
C5    H2    1.109871 S    
C58   H37   1.108472 S    
C37   H19   1.077407 S    
C4    C8    1.396812 S    
C36   H18   1.082101 S    
C15   C16   1.185122 T    
C52   H22   1.107081 S    
C61   H50   1.111432 S    
C68   H62   1.107048 S    
Zn2   N1    2.030920 S    
C63   H55   1.112718 S    
C57   H39   1.109759 S    
O7    C4    1.293701 A    
C33   H9    1.080473 S    
C1    C17   1.464697 S    
C60   H41   1.108356 S    
C17   C20   1.398107 A    
C64   H52   1.108534 S    
O5    C3    1.301123 A    
C26   H12   1.080381 S    
C65   C66   1.530371 S    
C5    C9    1.573412 S    
N3    O9    1.300778 A    
C6    C7    1.591449 S    
C60   H42   1.111696 S    
C34   H8    1.077495 S    
C10   C11   1.571277 S    
C52   H23   1.110441 S    
C44   C45   1.397715 A    
C41   C47   1.426068 A    
C13   C65   1.565906 S    
C59   H44   1.108483 S    
C6    H3    1.108664 S    
C12   H6    1.093252 S    
C5    C10   1.544161 S    
C51   H24   1.112105 S    
C8    C14   1.184353 T    
C9    C15   1.445906 S    
C66   H58   1.110556 S    
C67   H65   1.112128 S    
C48   H20   1.084544 S    
O3    Zn1   1.970871 S    
C57   C58   1.527720 S    
C55   C56   1.530299 S    
C31   C34   1.394404 A    
C50   H15   1.080088 S    
C22   C23   1.422003 A    
C51   H25   1.111775 S    
C58   H38   1.110422 S    
C30   C32   1.413444 A    
C18   C34   1.392128 A    
C7    C11   1.610471 S    
C48   C49   1.390601 A    
C41   C42   1.416597 A    
C53   H29   1.109922 S    
C52   H21   1.109088 S    
C46   C48   1.393949 A    
C68   H63   1.110630 S    
C54   H26   1.110927 S    
C42   C43   1.419382 A    
C23   C27   1.403186 A    
C12   C13   1.560263 S    
N2    C50   1.360406 A    
C17   C21   1.387618 A    
H1    C10   1.109458 S    
C61   H49   1.106965 S    
O1    C1    1.303889 A    
C38   C40   1.422930 A    
C19   C23   1.427296 A    
C21   C22   1.388835 A    
C54   H27   1.109610 S    
Zn1   O7    1.977578 S    
C51   C52   1.527574 S    
C28   H13   1.080474 S    
Zn2   O8    1.970870 S    
C60   H43   1.107591 S    
C25   C31   1.413540 A    
N3    O10   1.300124 A    
C67   C68   1.527539 S    
C53   H30   1.112351 S    
C29   C53   1.517560 S    
C6    N4    1.472650 S    
C61   C62   1.532083 S    
C55   H35   1.111492 S    
C65   H59   1.109951 S    
O3    C2    1.294431 A    
C32   C33   1.394440 A    
O8    C4    1.292364 A    
C13   H4    1.101561 S    
C56   H32   1.109408 S    
C9    C13   1.582269 S    
C47   C50   1.416644 A    
C66   H57   1.108358 S    
C26   C27   1.389489 A    
C62   H47   1.111073 S    
N5    O13   1.302202 A    
Zn1   N2    2.031282 S    
C63   H54   1.112104 S    
C28   C29   1.400630 A    
C43   C57   1.528079 S    
Zn1   O5    1.911734 S    
C30   C31   1.421848 A    
C24   C25   1.402559 A    
N1    C36   1.352727 A    
C6    C9    1.589566 S    
O1    Zn1   1.954670 S    
N1    C37   1.352730 A    
O2    Zn2   1.911735 S    
C55   H34   1.111552 S    
C46   C47   1.412430 A    
N5    O14   1.301946 A    
O6    C3    1.304117 A    
N4    O12   1.301297 A    
O4    Zn2   1.977581 S    
C5    C51   1.560206 S    
C32   H14   1.080024 S    
C63   C64   1.529199 S    
C56   H33   1.110687 S    
C58   H36   1.109776 S    
N2    C49   1.365756 A    
C49   N3    1.425799 S    
C38   C39   1.424943 A    
C62   H48   1.109622 S    
O2    C1    1.301847 A    
C3    C18   1.464127 S    
C68   H61   1.108818 S    
C54   H28   1.109801 S    
C57   H40   1.105239 S    
C44   C61   1.521956 S    
C27   H7    1.081203 S    
C53   C54   1.528012 S    
O4    C2    1.292062 A    
C35   H17   1.079227 S    
C39   C43   1.423364 A    
C40   C41   1.418180 A    
C12   C67   1.563454 S    
C35   C36   1.388646 A    
C20   H10   1.080066 S    
C65   H60   1.110854 S    
C37   C38   1.414158 A    
C21   H11   1.078491 S    
C35   C39   1.413209 A    
C24   C28   1.415397 A    
C2    C16   1.397506 S    
C45   C46   1.393074 A    
C18   C33   1.396301 A    
Zn2   O6    1.954671 S    
C56   H31   1.110794 S    
C67   H64   1.111078 S    
C42   C59   1.526393 S    
C7    C63   1.578437 S    
C66   H56   1.110830 S    
C62   H46   1.109360 S    
C19   C55   1.527828 S    
C45   H16   1.084243 S    
C59   H45   1.106500 S    
C10   H5    1.101308 S    
