data_mof_unit_68348.cif
_audit_creation_date              2012-12-11T14:04:15-0500
_audit_creation_method            fapswitch 2.2
_symmetry_space_group_name_H-M    P1
_symmetry_Int_Tables_number       1
_space_group_crystal_system       triclinic
_cell_length_a                    20.263777
_cell_length_b                    22.145073
_cell_length_c                    8.62558
_cell_angle_alpha                 90.000065
_cell_angle_beta                  103.820724
_cell_angle_gamma                 89.999879
_cell_volume                      3758.60330872

loop_
_atom_site_label
_atom_site_type_symbol
_atom_type_description
_atom_site_fract_x
_atom_site_fract_y
_atom_site_fract_z
_atom_type_partial_charge
Ba1   Ba    Ba6+2 0.999900 0.456810 0.844860 1.960237
Ba2   Ba    Ba6+2 0.999900 0.543190 0.344860 1.960231
Ba3   Ba    Ba6+2 0.499900 0.956810 0.844860 1.960236
Ba4   Ba    Ba6+2 0.499900 0.043190 0.344860 1.960234
C1    C     C_3   0.073496 0.188607 0.715114 0.370399
C2    C     C_3   0.073495 0.811393 0.215114 0.370401
C3    C     C_3   0.573497 0.688607 0.715114 0.370400
C4    C     C_3   0.573493 0.311394 0.215109 0.370416
C5    C     C_R   0.138157 0.686617 0.831931 0.027057
C6    C     C_R   0.138157 0.313383 0.331931 0.027055
C7    C     C_R   0.638157 0.186618 0.831932 0.027059
C8    C     C_R   0.638157 0.813383 0.331931 0.027057
C9    C     C_R   0.189435 0.728040 0.898907 -0.063218
C10   C     C_R   0.189435 0.271960 0.398907 -0.063217
C11   C     C_R   0.689434 0.228041 0.898909 -0.063223
C12   C     C_R   0.689435 0.771960 0.398908 -0.063217
C13   C     C_R   0.221041 0.728114 0.065310 -0.026585
C14   C     C_R   0.221040 0.271885 0.565309 -0.026585
C15   C     C_R   0.721039 0.228116 0.065311 -0.026586
C16   C     C_R   0.721040 0.771885 0.565310 -0.026586
C17   C     C_R   0.199996 0.681486 0.158695 0.505556
C18   C     C_R   0.199995 0.318514 0.658695 0.505555
C19   C     C_R   0.699995 0.181486 0.158696 0.505556
C20   C     C_R   0.699995 0.818514 0.658696 0.505553
C21   C     C_R   0.153056 0.636755 0.087231 -0.029943
C22   C     C_R   0.153056 0.363245 0.587230 -0.029942
C23   C     C_R   0.653056 0.136755 0.087231 -0.029942
C24   C     C_R   0.653056 0.863245 0.587231 -0.029941
C25   C     C_R   0.820415 0.266020 0.290572 -0.091519
C26   C     C_R   0.820416 0.733981 0.790572 -0.091526
C27   C     C_R   0.320416 0.766019 0.290571 -0.091525
C28   C     C_R   0.320416 0.233981 0.790571 -0.091525
C29   C     C_R   0.870892 0.307815 0.357600 0.044087
C30   C     C_R   0.870892 0.692185 0.857600 0.044082
C31   C     C_R   0.370893 0.807814 0.357599 0.044081
C32   C     C_R   0.370893 0.192185 0.857599 0.044081
C33   C     C_R   0.844517 0.365497 0.109666 0.003546
C34   C     C_R   0.844517 0.634503 0.609665 0.003552
C35   C     C_R   0.344519 0.865495 0.109663 0.003563
C36   C     C_R   0.344519 0.134504 0.609663 0.003564
C37   C     C_R   0.787353 0.328146 0.052516 0.576148
C38   C     C_R   0.787354 0.671855 0.552514 0.576227
C39   C     C_R   0.287356 0.828144 0.052512 0.576221
C40   C     C_R   0.287356 0.171856 0.552512 0.576241
C41   C     C_R   0.776464 0.274531 0.136497 0.008528
C42   C     C_R   0.776465 0.725469 0.636496 0.008525
C43   C     C_R   0.276466 0.774530 0.136495 0.008512
C44   C     C_R   0.276466 0.225470 0.636494 0.008512
C45   C     C_3   0.999468 0.218020 0.115011 0.713966
C46   C     C_3   0.999467 0.781980 0.615011 0.713965
C47   C     C_3   0.499469 0.718019 0.115010 0.713965
C48   C     C_3   0.499468 0.281980 0.615010 0.713964
C49   C     C_R   0.886310 0.354127 0.261925 0.090923
C50   C     C_R   0.886310 0.645873 0.761925 0.090904
C51   C     C_R   0.386311 0.854126 0.261924 0.090899
C52   C     C_R   0.386311 0.145874 0.761924 0.090894
C53   C     C_3   0.988847 0.148558 0.108661 1.160588
C54   C     C_3   0.988846 0.851441 0.608660 1.160588
C55   C     C_3   0.488849 0.648558 0.108660 1.160589
C56   C     C_3   0.488846 0.351442 0.608661 1.160588
C57   C     C_3   0.200673 0.467850 0.308506 0.361502
C58   C     C_3   0.200673 0.532150 0.808506 0.361503
C59   C     C_3   0.700673 0.967850 0.308506 0.361502
C60   C     C_3   0.700673 0.032150 0.808506 0.361503
C61   C     C_3   0.268535 0.435888 0.370498 0.991506
C62   C     C_3   0.268535 0.564112 0.870498 0.991508
C63   C     C_3   0.768535 0.935888 0.370498 0.991510
C64   C     C_3   0.768535 0.064112 0.870498 0.991508
C65   C     C_3   0.773581 0.505628 0.806310 0.315647
C66   C     C_3   0.773550 0.494404 0.306298 0.315640
C67   C     C_3   0.273583 0.005631 0.806317 0.315650
C68   C     C_3   0.273575 0.994377 0.306313 0.315647
C69   C     C_3   0.712157 0.547284 0.785828 0.757081
C70   C     C_3   0.712127 0.452747 0.285827 0.757214
C71   C     C_3   0.212159 0.047287 0.785838 0.757079
C72   C     C_3   0.212151 0.952721 0.285837 0.757114
C73   C     C_3   0.029912 0.246062 0.686613 0.361989
C74   C     C_3   0.029911 0.753938 0.186614 0.361987
C75   C     C_3   0.529913 0.746063 0.686613 0.361988
C76   C     C_3   0.529910 0.253938 0.186612 0.361977
C77   C     C_R   0.122370 0.640475 0.925394 -0.344417
C78   C     C_R   0.122370 0.359525 0.425394 -0.344419
C79   C     C_R   0.622371 0.140475 0.925394 -0.344416
C80   C     C_R   0.622371 0.859525 0.425394 -0.344418
H1    H     H_    0.038336 0.272009 0.798498 0.032053
H2    H     H_    0.038336 0.727991 0.298498 0.032053
H3    H     H_    0.538337 0.772010 0.798497 0.032052
H4    H     H_    0.538336 0.227991 0.298498 0.032055
H5    H     H_    0.261959 0.396411 0.444262 -0.180618
H6    H     H_    0.261959 0.603589 0.944261 -0.180622
H7    H     H_    0.761959 0.896411 0.444261 -0.180622
H8    H     H_    0.761959 0.103589 0.944260 -0.180620
H9    H     H_    0.758205 0.466699 0.724212 0.110585
H10   H     H_    0.758160 0.533350 0.224279 0.110649
H11   H     H_    0.258207 0.966704 0.724214 0.110603
H12   H     H_    0.258196 0.033309 0.224231 0.110617
H13   H     H_    0.816373 0.530547 0.776915 -0.028902
H14   H     H_    0.816326 0.469496 0.276806 -0.028805
H15   H     H_    0.316376 0.030551 0.776928 -0.028920
H16   H     H_    0.316363 0.969460 0.276899 -0.028895
H17   H     H_    0.669082 0.522226 0.814492 0.145133
H18   H     H_    0.669063 0.477795 0.314568 0.145092
H19   H     H_    0.169083 0.022229 0.814499 0.145110
H20   H     H_    0.169079 0.977777 0.314515 0.145098
H21   H     H_    0.049687 0.274522 0.602360 -0.007136
H22   H     H_    0.049686 0.725478 0.102360 -0.007135
H23   H     H_    0.549687 0.774523 0.602358 -0.007136
H24   H     H_    0.549685 0.225478 0.102359 -0.007136
H25   H     H_    0.125832 0.199644 0.705644 0.034334
H26   H     H_    0.125831 0.800356 0.205644 0.034331
H27   H     H_    0.625833 0.699645 0.705646 0.034333
H28   H     H_    0.625828 0.300358 0.205631 0.034324
H29   H     H_    0.078044 0.171228 0.837194 0.113914
H30   H     H_    0.078044 0.828773 0.337194 0.113913
H31   H     H_    0.578045 0.671228 0.837193 0.113916
H32   H     H_    0.578044 0.328772 0.337190 0.113907
H33   H     H_    0.818517 0.226935 0.362425 0.220755
H34   H     H_    0.818516 0.773065 0.862426 0.220759
H35   H     H_    0.318517 0.726935 0.362425 0.220759
H36   H     H_    0.318516 0.273065 0.862426 0.220760
H37   H     H_    0.204491 0.758486 0.816649 0.202957
H38   H     H_    0.204491 0.241514 0.316648 0.202958
H39   H     H_    0.704489 0.258488 0.816652 0.202953
H40   H     H_    0.704491 0.741514 0.316650 0.202956
H41   H     H_    0.089587 0.604693 0.868645 0.132292
H42   H     H_    0.089586 0.395307 0.368645 0.132293
H43   H     H_    0.589587 0.104693 0.868645 0.132290
H44   H     H_    0.589587 0.895308 0.368645 0.132292
H45   H     H_    0.178505 0.477714 0.411460 -0.120761
H46   H     H_    0.178505 0.522286 0.911460 -0.120762
H47   H     H_    0.678505 0.977714 0.411459 -0.120762
H48   H     H_    0.678505 0.022286 0.911459 -0.120764
H49   H     H_    0.166232 0.438089 0.221572 -0.074478
H50   H     H_    0.166232 0.561911 0.721572 -0.074479
H51   H     H_    0.666232 0.938089 0.221571 -0.074477
H52   H     H_    0.666231 0.061911 0.721571 -0.074477
O1    O     O_2   0.866180 0.413660 0.823810 -0.440257
O2    O     O_2   0.866180 0.586340 0.323810 -0.440265
O3    O     O_2   0.366180 0.913660 0.823810 -0.440252
O4    O     O_2   0.366180 0.086340 0.323810 -0.440255
O5    O     O_3   0.212328 0.479051 0.732159 -0.584999
O6    O     O_3   0.212328 0.520949 0.232158 -0.584999
O7    O     O_3   0.712328 0.979051 0.732159 -0.584999
O8    O     O_3   0.712328 0.020949 0.232159 -0.584999
O9    O     O_3   0.060379 0.232765 0.069421 -0.620832
O10   O     O_3   0.060379 0.767235 0.569422 -0.620832
O11   O     O_3   0.560380 0.732765 0.069421 -0.620833
O12   O     O_3   0.560379 0.267235 0.569421 -0.620835
O13   O     O_3   0.077880 0.530130 0.092320 -0.477994
O14   O     O_3   0.077880 0.469870 0.592320 -0.477995
O15   O     O_3   0.577880 0.030130 0.092320 -0.477994
O16   O     O_3   0.577880 0.969870 0.592320 -0.477995
O17   O     O_3   0.922050 0.469730 0.097400 -0.415047
O18   O     O_3   0.922050 0.530270 0.597400 -0.415027
O19   O     O_3   0.422050 0.969730 0.097400 -0.415053
O20   O     O_3   0.422050 0.030270 0.597400 -0.415047
O21   O     O_3   0.976760 0.360270 0.628090 -0.456746
O22   O     O_3   0.976760 0.639730 0.128090 -0.456747
O23   O     O_3   0.476760 0.860270 0.628090 -0.456748
O24   O     O_3   0.476760 0.139730 0.128090 -0.456748
O25   O     O_2   0.865840 0.309414 0.679331 -0.369415
O26   O     O_2   0.865839 0.690586 0.179330 -0.369403
O27   O     O_2   0.365840 0.809413 0.679329 -0.369401
O28   O     O_2   0.365838 0.190585 0.179329 -0.369397
O29   O     O_3   0.792498 0.486104 0.964970 -0.642477
O30   O     O_3   0.792504 0.513890 0.464976 -0.642545
O31   O     O_3   0.292497 0.986103 0.964974 -0.642484
O32   O     O_3   0.292499 0.013895 0.464976 -0.642501
O33   O     O_3   0.959654 0.233675 0.630521 -0.489648
O34   O     O_3   0.959653 0.766325 0.130522 -0.489648
O35   O     O_3   0.459655 0.733675 0.630522 -0.489647
O36   O     O_3   0.459652 0.266324 0.130522 -0.489648
O37   O     O_2   0.133470 0.412980 0.865660 -0.413988
O38   O     O_2   0.133470 0.587020 0.365660 -0.413988
O39   O     O_2   0.633470 0.912980 0.865660 -0.413988
O40   O     O_2   0.633470 0.087020 0.365660 -0.413988
O41   O     O_3   0.022720 0.360150 0.061220 -0.420516
O42   O     O_3   0.022720 0.639850 0.561220 -0.420514
O43   O     O_3   0.522720 0.860150 0.061220 -0.420516
O44   O     O_3   0.522720 0.139850 0.561220 -0.420514
O45   O     O_2   0.139936 0.317342 0.014582 -0.410393
O46   O     O_2   0.139936 0.682658 0.514582 -0.410394
O47   O     O_2   0.639936 0.817342 0.014583 -0.410392
O48   O     O_2   0.639936 0.182658 0.514583 -0.410394
P1    P     P_3+3 0.859590 0.433890 0.993820 1.168216
P2    P     P_3+3 0.859590 0.566110 0.493820 1.168194
P3    P     P_3+3 0.359590 0.933890 0.993820 1.168224
P4    P     P_3+3 0.359590 0.066110 0.493820 1.168219
P5    P     P_3+3 0.140130 0.433190 0.695710 1.114449
P6    P     P_3+3 0.140130 0.566810 0.195710 1.114448
P7    P     P_3+3 0.640130 0.933190 0.695710 1.114449
P8    P     P_3+3 0.640130 0.066810 0.195710 1.114449
P9    P     P_3+3 0.089681 0.307349 0.121054 1.101429
P10   P     P_3+3 0.089681 0.692650 0.621054 1.101429
P11   P     P_3+3 0.589682 0.807350 0.121054 1.101428
P12   P     P_3+3 0.589681 0.192651 0.621055 1.101425
P13   P     P_3+3 0.916880 0.697582 0.072675 1.205545
P14   P     P_3+3 0.916880 0.302418 0.572675 1.205542
P15   P     P_3+3 0.416880 0.197581 0.072675 1.205547
P16   P     P_3+3 0.416881 0.802418 0.572674 1.205546
Cl1   Cl    Cl    0.328412 0.486291 0.490204 -0.282977
Cl2   Cl    Cl    0.328412 0.513709 0.990205 -0.282977
Cl3   Cl    Cl    0.828412 0.986291 0.490205 -0.282978
Cl4   Cl    Cl    0.828412 0.013709 0.990205 -0.282978
F1    F     F_    0.293544 0.415963 0.243707 -0.586217
F2    F     F_    0.293544 0.584036 0.743706 -0.586217
F3    F     F_    0.793543 0.915963 0.243706 -0.586217
F4    F     F_    0.793544 0.084037 0.743706 -0.586217
F5    F     F_    0.692802 0.567052 0.629571 -0.636571
F6    F     F_    0.692746 0.433005 0.129553 -0.636448
F7    F     F_    0.192805 0.067058 0.629583 -0.636547
F8    F     F_    0.192791 0.932956 0.129578 -0.636516
Cl5   Cl    Cl    0.731145 0.610939 0.915407 -0.677349
Cl6   Cl    Cl    0.731135 0.389071 0.415319 -0.677408
Cl7   Cl    Cl    0.231147 0.110941 0.915423 -0.677330
Cl8   Cl    Cl    0.231144 0.889062 0.415401 -0.677340
Cl9   Cl    Cl    0.920035 0.126396 0.193880 -0.385052
Cl10  Cl    Cl    0.920034 0.873603 0.693880 -0.385054
Cl11  Cl    Cl    0.420037 0.626395 0.193880 -0.385047
Cl12  Cl    Cl    0.420034 0.373603 0.693879 -0.385050
F9    F     F_    0.741787 0.346847 0.919411 -0.644891
F10   F     F_    0.741791 0.653155 0.419403 -0.644894
F11   F     F_    0.241792 0.846844 0.919402 -0.644861
F12   F     F_    0.241792 0.153156 0.419400 -0.644863
F13   F     F_    0.223631 0.678059 0.318598 -0.661143
F14   F     F_    0.223630 0.321941 0.818598 -0.661143
F15   F     F_    0.723630 0.178060 0.318599 -0.661144
F16   F     F_    0.723630 0.821940 0.818598 -0.661143
Cl13  Cl    Cl    0.960411 0.395680 0.332750 -0.670134
Cl14  Cl    Cl    0.960412 0.604320 0.832749 -0.670138
Cl15  Cl    Cl    0.460412 0.895680 0.332749 -0.670139
Cl16  Cl    Cl    0.460412 0.104320 0.832749 -0.670139
Cl17  Cl    Cl    0.041466 0.129764 0.576355 -0.267669
Cl18  Cl    Cl    0.041464 0.870236 0.076356 -0.267657
Cl19  Cl    Cl    0.541468 0.629764 0.576354 -0.267675
Cl20  Cl    Cl    0.541459 0.370237 0.076354 -0.267623
Cl21  Cl    Cl    0.928072 0.253531 0.987062 -0.667540
Cl22  Cl    Cl    0.928071 0.746468 0.487062 -0.667545
Cl23  Cl    Cl    0.428072 0.753530 0.987060 -0.667544
Cl24  Cl    Cl    0.428072 0.246469 0.487060 -0.667544
Cl25  Cl    Cl    0.002713 0.240847 0.312572 -0.701876
Cl26  Cl    Cl    0.002713 0.759153 0.812572 -0.701875
Cl27  Cl    Cl    0.502714 0.740846 0.312571 -0.701875
Cl28  Cl    Cl    0.502712 0.259153 0.812571 -0.701881
Cl29  Cl    Cl    0.969360 0.119452 0.910164 -0.377966
Cl30  Cl    Cl    0.969358 0.880547 0.410163 -0.377969
Cl31  Cl    Cl    0.469361 0.619452 0.910163 -0.377960
Cl32  Cl    Cl    0.469360 0.380548 0.410165 -0.377972
F17   F     F_    0.047439 0.120525 0.193528 -0.561285
F18   F     F_    0.047437 0.879475 0.693527 -0.561281
F19   F     F_    0.547441 0.620525 0.193527 -0.561295
F20   F     F_    0.547438 0.379475 0.693530 -0.561282

loop_
_geom_bond_atom_site_label_1
_geom_bond_atom_site_label_2
_ccdc_geom_bond_type
Ba2   O14   S    
C71   H19   S    
C60   H52   S    
C80   H44   S    
O32   P4    S    
C53   F17   S    
C24   C80   A    
C28   C44   A    
Ba4   P8    S    
C39   F11   S    
C32   P15   S    
C68   C72   S    
C50   Cl14  S    
C75   H3    S    
C56   F20   S    
C57   H49   S    
C62   H6    S    
O43   P11   S    
C11   C15   A    
O18   P2    S    
O26   P13   D    
Ba1   O37   S    
O13   P6    S    
Ba1   P5    S    
C11   H39   S    
O25   P14   D    
C70   F6    S    
C10   H38   S    
C60   C64   S    
C69   F5    S    
C12   C16   A    
O2    P2    D    
Ba4   O44   S    
C34   C38   A    
O16   P7    S    
C65   H9    S    
C21   P6    S    
C66   O30   S    
O39   P7    D    
C62   F2    S    
C67   H11   S    
C2    C74   S    
C64   Cl4   S    
C75   O35   S    
O6    P6    S    
C25   C29   A    
C65   O29   S    
C74   O34   S    
O22   P13   S    
C45   C53   S    
C52   Cl16  S    
O36   P15   S    
O21   P14   S    
C38   C42   A    
C25   H33   S    
C3    H31   S    
Ba3   O43   S    
C2    H30   S    
C5    C9    A    
C48   C56   S    
C36   P4    S    
Ba1   O41   S    
O12   P12   S    
C33   P1    S    
C60   H48   S    
C36   C52   A    
C16   C42   S    
C66   C70   S    
O47   P11   D    
C59   O8    S    
C65   C69   S    
Ba2   O42   S    
O46   P10   D    
C19   C23   A    
O10   P10   S    
C20   C24   A    
O9    P9    S    
O44   P12   S    
O28   P15   D    
C57   H45   S    
C70   H18   S    
C33   C49   A    
C72   F8    S    
Ba2   O13   S    
C69   H17   S    
C2    Cl18  S    
C48   Cl24  S    
C73   H1    S    
C14   C44   S    
C48   O12   S    
C1    Cl17  S    
C70   Cl6   S    
C21   C77   A    
C68   O32   S    
C69   Cl5   S    
C7    C11   A    
C28   H36   S    
O3    P3    D    
O17   P1    S    
C22   P5    S    
C31   P16   S    
O24   P15   S    
O1    P1    D    
O20   P4    S    
C47   C55   S    
C29   C49   A    
C8    C12   A    
Ba4   O16   S    
C59   C63   S    
C48   Cl28  S    
C26   C30   A    
C31   C51   A    
C46   C54   S    
C13   C43   S    
C46   Cl22  S    
O5    P5    S    
C7    P12   S    
C45   Cl21  S    
C6    C10   A    
C6    P9    S    
C77   H41   S    
O19   P3    S    
C58   C62   S    
C5    P10   S    
C35   C39   A    
C26   H34   S    
C8    C80   A    
C7    C79   A    
C34   P2    S    
C67   H15   S    
O37   P5    D    
C6    C78   A    
O29   P1    S    
C25   C41   A    
C59   H51   S    
C2    H26   S    
Ba2   O2    S    
C15   C19   A    
C72   H20   S    
Ba2   P2    S    
C64   F4    S    
O35   P16   S    
C32   C52   A    
Ba3   P7    S    
Ba4   O4    S    
C9    H37   S    
C72   Cl8   S    
C1    H29   S    
C34   C50   A    
C47   O11   S    
Ba2   O22   S    
O31   P3    S    
Ba4   O19   S    
C63   H7    S    
Ba4   O40   S    
Ba3   O16   S    
O4    P4    D    
C45   O9    S    
Ba1   O14   S    
Ba3   O23   S    
Ba1   O21   S    
O30   P2    S    
O11   P11   S    
C75   H23   S    
C27   H35   S    
O41   P9    S    
O38   P6    D    
C3    Cl19  S    
C40   F12   S    
C4    Cl20  S    
Ba3   O39   S    
O15   P8    S    
O27   P16   D    
C56   Cl32  S    
Ba2   O17   S    
C59   H47   S    
C55   F19   S    
C8    P11   S    
C27   C31   A    
C54   F18   S    
Ba3   O3    S    
C23   P8    S    
C76   O36   S    
C58   O5    S    
C1    C73   S    
Ba3   Ba4   S    
C24   P7    S    
C28   C32   A    
C65   H13   S    
Ba1   O1    S    
C3    C75   S    
C66   H14   S    
C68   H16   S    
Ba4   O15   S    
C17   C21   A    
O23   P16   S    
C63   F3    S    
C37   C41   A    
O42   P10   S    
C61   Cl1   S    
C66   H10   S    
C14   C18   A    
C10   C14   A    
C26   C42   A    
C47   Cl27  S    
Ba2   P6    S    
C79   H43   S    
Ba1   O13   S    
C46   Cl26  S    
Ba3   P3    S    
C19   F15   S    
C15   C41   S    
C30   C50   A    
C18   F14   S    
C60   O7    S    
Ba1   P1    S    
C35   C51   A    
C17   F13   S    
C76   H24   S    
Ba3   O15   S    
C58   H46   S    
C63   Cl3   S    
C9    C13   A    
C74   H22   S    
C62   Cl2   S    
C58   H50   S    
C56   Cl12  S    
C12   H40   S    
C35   P3    S    
C76   H4    S    
O48   P12   D    
Ba2   O38   S    
O14   P5    S    
C67   C71   S    
C45   Cl25  S    
C54   Cl10  S    
C30   P13   S    
C46   O10   S    
C61   H5    S    
Ba4   O24   S    
C55   Cl31  S    
C53   Cl9   S    
C29   P14   S    
C55   Cl11  S    
C73   O33   S    
Ba1   Ba2   S    
C67   O31   S    
C71   Cl7   S    
Ba3   O20   S    
C64   H8    S    
C4    H28   S    
C3    H27   S    
C20   F16   S    
C57   C61   S    
C33   C37   A    
Ba1   O18   S    
C73   H21   S    
C37   F9    S    
O40   P8    D    
C4    H32   S    
C23   C79   A    
C68   H12   S    
C27   C43   A    
C57   O6    S    
C36   C40   A    
C54   Cl30  S    
C61   F1    S    
O8    P8    S    
C53   Cl29  S    
C22   C78   A    
C74   H2    S    
C18   C22   A    
C51   Cl15  S    
C49   Cl13  S    
C4    C76   S    
O7    P7    S    
C71   F7    S    
C47   Cl23  S    
O45   P9    D    
C1    H25   S    
C38   F10   S    
C39   C43   A    
C16   C20   A    
O34   P13   S    
C78   H42   S    
Ba4   P4    S    
C40   C44   A    
C5    C77   A    
O33   P14   S    
C13   C17   A    
