data_mof_unit_27420.cif
_audit_creation_date              2012-12-11T14:43:30-0500
_audit_creation_method            fapswitch 2.2
_symmetry_space_group_name_H-M    P1
_symmetry_Int_Tables_number       1
_space_group_crystal_system       triclinic
_cell_length_a                    20.869442
_cell_length_b                    7.098206
_cell_length_c                    16.402804
_cell_angle_alpha                 90.001452
_cell_angle_beta                  92.371543
_cell_angle_gamma                 90.000141
_cell_volume                      2427.75804085

loop_
_atom_site_label
_atom_site_type_symbol
_atom_type_description
_atom_site_fract_x
_atom_site_fract_y
_atom_site_fract_z
_atom_type_partial_charge
O1    O     O_R   0.564840 0.505290 0.579830 -0.537331
O2    O     O_R   0.435160 0.005290 0.420170 -0.537335
O3    O     O_R   0.556720 0.179930 0.409350 -0.537586
O4    O     O_R   0.443280 0.679930 0.590650 -0.537584
C1    C     C_R   0.570349 0.344982 0.380971 0.698210
C2    C     C_R   0.429652 0.844986 0.619030 0.698218
O5    O     O_R   0.572280 0.175810 0.578530 -0.542348
O6    O     O_R   0.427720 0.675810 0.421470 -0.542358
O7    O     O_R   0.450830 0.001920 0.590540 -0.536462
O8    O     O_R   0.549170 0.501920 0.409460 -0.536461
C3    C     C_R   0.589819 0.343128 0.605007 0.691921
C4    C     C_R   0.410181 0.843123 0.394992 0.691924
O9    O     O_3   0.460130 0.338030 0.503750 -0.372150
O10   O     O_3   0.539870 0.838030 0.496250 -0.372144
V1    V     V_3+5 0.507400 0.064560 0.499310 1.416071
V2    V     V_3+5 0.492600 0.564560 0.500690 1.416063
C5    C     C_R   0.147265 0.920769 0.162997 -0.095314
C6    C     C_R   0.852740 0.420752 0.836995 -0.095280
C7    C     C_R   0.357532 0.841346 0.331164 -0.060466
C8    C     C_R   0.642466 0.341366 0.668837 -0.060452
C9    C     C_R   0.301154 0.669591 0.221170 -0.161949
C10   C     C_R   0.698815 0.169695 0.778875 -0.161917
C11   C     C_R   0.353070 0.688445 0.276862 -0.172127
C12   C     C_R   0.646902 0.188541 0.723177 -0.172118
C13   C     C_R   0.308936 0.978131 0.327748 -0.227586
C14   C     C_R   0.691084 0.478086 0.672219 -0.227573
C15   C     C_R   0.255531 0.958354 0.272521 0.129116
C16   C     C_R   0.744485 0.458316 0.727455 0.129119
C17   C     C_R   0.251083 0.802554 0.218188 0.118464
C18   C     C_R   0.748908 0.302587 0.781824 0.118459
C19   C     C_R   0.197092 0.784153 0.162552 0.057795
C20   C     C_R   0.802899 0.284185 0.837461 0.057786
C21   C     C_R   0.152962 0.072303 0.218258 -0.168871
C22   C     C_R   0.847066 0.572222 0.781703 -0.168884
C23   C     C_R   0.206167 0.091297 0.271796 -0.179957
C24   C     C_R   0.793868 0.591199 0.728152 -0.179930
H1    H     H_    0.115869 0.178941 0.219715 0.139403
H2    H     H_    0.884172 0.678817 0.780229 0.139351
H3    H     H_    0.300723 0.547513 0.181939 0.160301
H4    H     H_    0.699224 0.047683 0.818141 0.160299
H5    H     H_    0.208630 0.210888 0.312894 0.126090
H6    H     H_    0.791423 0.710735 0.687026 0.126076
H7    H     H_    0.389914 0.580772 0.277957 0.125935
H8    H     H_    0.610039 0.080926 0.722108 0.125908
H9    H     H_    0.311436 0.095631 0.369999 0.119325
H10   H     H_    0.688604 0.595524 0.629939 0.119307
C25   C     C_R   0.380643 0.882602 0.836530 -0.149697
C26   C     C_R   0.619360 0.382429 0.163468 -0.149695
H11   H     H_    0.469840 0.864172 0.776697 0.104613
H12   H     H_    0.530163 0.363972 0.223300 0.104619
H13   H     H_    0.300907 0.914486 0.957367 0.141177
H14   H     H_    0.699095 0.414271 0.042630 0.141191
H15   H     H_    0.404394 0.891135 0.896443 0.116934
H16   H     H_    0.595610 0.390878 0.103552 0.116934
C27   C     C_R   0.389119 0.855454 0.690385 -0.038696
C28   C     C_R   0.610882 0.355436 0.309617 -0.038688
C29   C     C_R   0.077977 0.896939 0.732423 -0.165027
C30   C     C_R   0.922022 0.397048 0.267579 -0.165028
C31   C     C_R   0.112397 0.881989 0.661979 -0.119433
C32   C     C_R   0.887603 0.382145 0.338024 -0.119433
C33   C     C_R   0.179196 0.875919 0.666410 -0.154318
C34   C     C_R   0.820804 0.376038 0.333593 -0.154322
C35   C     C_R   0.213754 0.885290 0.742379 0.076808
C36   C     C_R   0.786246 0.385326 0.257623 0.076810
C37   C     C_R   0.177955 0.902439 0.814682 0.061637
C38   C     C_R   0.822045 0.402424 0.185318 0.061636
C39   C     C_R   0.282492 0.877850 0.748980 0.074294
C40   C     C_R   0.717509 0.377847 0.251023 0.074294
C41   C     C_R   0.313461 0.888592 0.827704 0.127063
C42   C     C_R   0.686540 0.388485 0.172295 0.127060
C43   C     C_R   0.277393 0.906058 0.897290 -0.169436
C44   C     C_R   0.722608 0.405912 0.102708 -0.169429
C45   C     C_R   0.210842 0.913137 0.891005 -0.154384
C46   C     C_R   0.789159 0.413042 0.108994 -0.154376
C47   C     C_R   0.321896 0.860576 0.680526 -0.212392
C48   C     C_R   0.678105 0.360627 0.319479 -0.212391
C49   C     C_R   0.418061 0.866854 0.768474 -0.167283
C50   C     C_R   0.581941 0.366717 0.231525 -0.167287
C51   C     C_R   0.109761 0.907539 0.808951 -0.075543
C52   C     C_R   0.890239 0.407561 0.191049 -0.075542
H17   H     H_    0.302140 0.852373 0.618892 0.091428
H18   H     H_    0.697860 0.352510 0.381116 0.091421
H19   H     H_    0.026040 0.899789 0.727258 0.101166
H20   H     H_    0.973959 0.399934 0.272744 0.101170
H21   H     H_    0.202268 0.863600 0.609146 0.106713
H22   H     H_    0.797731 0.363754 0.390858 0.106712
H23   H     H_    0.087007 0.874168 0.603163 0.117351
H24   H     H_    0.912993 0.374387 0.396842 0.117352
H25   H     H_    0.185253 0.927281 0.946763 0.130700
H26   H     H_    0.814749 0.427159 0.053236 0.130711
O11   O     O_R   0.950790 0.256670 0.090520 -0.530233
O12   O     O_R   0.049210 0.756670 0.909480 -0.530237
O13   O     O_R   0.927720 0.590370 0.921470 -0.537377
O14   O     O_R   0.072280 0.090370 0.078530 -0.537384
C53   C     C_R   0.908699 0.421852 0.896879 0.713503
C54   C     C_R   0.091302 0.921855 0.103120 0.713506
O15   O     O_R   0.943270 0.586180 0.090640 -0.537643
O16   O     O_R   0.056730 0.086180 0.909360 -0.537644
O17   O     O_R   0.064850 0.759970 0.079840 -0.522325
O18   O     O_R   0.935150 0.259970 0.920160 -0.522328
C55   C     C_R   0.930160 0.417542 0.118818 0.680550
C56   C     C_R   0.069840 0.917538 0.881182 0.680548
O19   O     O_3   0.039850 0.428050 0.996240 -0.355372
O20   O     O_3   0.960150 0.928050 0.003760 -0.355373
V3    V     V_3+5 0.992610 0.701540 0.000700 1.499042
V4    V     V_3+5 0.007390 0.201540 0.999300 1.499032
I1    I     I_    0.193985 0.560401 0.074232 -0.444296
I2    I     I_    0.805993 0.060483 0.925800 -0.444318

loop_
_geom_bond_atom_site_label_1
_geom_bond_atom_site_label_2
_ccdc_geom_bond_type
C35   C37   A    
C28   C48   A    
C15   C17   A    
C29   C51   A    
C1    C28   S    
C24   H6    S    
O1    C3    A    
C2    C27   S    
O2    C4    A    
C2    O7    A    
O20   V4    S    
C32   H24   S    
C37   C45   A    
C14   C16   A    
O5    C3    A    
C34   H22   S    
H13   C43   S    
C37   C51   A    
C36   C40   A    
C27   C49   A    
C29   C31   A    
C30   C32   A    
C38   C46   A    
C54   O17   A    
C28   C50   A    
C32   C34   A    
C26   C50   A    
C41   C43   A    
C25   C41   A    
C34   C36   A    
O13   V3    S    
C8    C12   A    
C29   H19   S    
C51   C56   S    
C30   C52   A    
C25   H15   S    
C27   C47   A    
O5    V1    S    
O6    V2    S    
C6    C53   S    
O11   V4    S    
C5    C21   A    
O11   C55   A    
C7    C13   A    
H12   C50   S    
O20   V3    S    
O17   V3    S    
C35   C39   A    
C3    C8    S    
C31   C33   A    
C44   C46   A    
C48   H18   S    
C5    C54   S    
C53   O18   A    
C47   H17   S    
C15   C23   A    
O16   C56   A    
C9    C17   A    
C21   H1    S    
C39   C41   A    
C36   C38   A    
O4    V2    S    
C26   H16   S    
H14   C44   S    
C30   H20   S    
C9    H3    S    
O6    C4    A    
C10   H4    S    
C33   C35   A    
O19   V3    S    
O1    V2    S    
O14   C54   A    
O2    V1    S    
C6    C22   A    
C33   H21   S    
O4    C2    A    
C9    C11   A    
C13   C15   A    
C12   H8    S    
C10   C12   A    
C6    C20   A    
C25   C49   A    
C13   H9    S    
O3    V1    S    
C7    C11   A    
C43   C45   A    
O14   V4    S    
C10   C18   A    
C22   H2    S    
C11   H7    S    
C19   I1    S    
C26   C42   A    
O3    C1    A    
O12   C56   A    
C40   C48   A    
C38   C52   A    
O18   V4    S    
O16   V4    S    
C52   C55   S    
C46   H26   S    
C16   C18   A    
O7    V1    S    
O15   V3    S    
C1    O8    A    
C17   C19   A    
O8    V2    S    
C18   C20   A    
O13   C53   A    
C8    C14   A    
C5    C19   A    
C4    C7    S    
C21   C23   A    
H11   C49   S    
O19   V4    S    
C22   C24   A    
C23   H5    S    
C31   H23   S    
C14   H10   S    
C45   H25   S    
O12   V3    S    
C39   C47   A    
C16   C24   A    
C40   C42   A    
C20   I2    S    
O9    V2    S    
O10   V1    S    
C42   C44   A    
O15   C55   A    
