data_mof_unit_57049.cif
_audit_creation_date              2012-12-10T17:43:32-0500
_audit_creation_method            fapswitch 2.2
_symmetry_space_group_name_H-M    P1
_symmetry_Int_Tables_number       1
_space_group_crystal_system       triclinic
_cell_length_a                    14.983568
_cell_length_b                    10.60415
_cell_length_c                    9.930355
_cell_angle_alpha                 90.40707
_cell_angle_beta                  89.886062
_cell_angle_gamma                 89.879606
_cell_volume                      1577.76779964

loop_
_atom_site_label
_atom_site_type_symbol
_atom_type_description
_atom_site_fract_x
_atom_site_fract_y
_atom_site_fract_z
_atom_type_partial_charge
C1    C     C_R   0.497507 0.260893 0.499689 0.887769
C2    C     C_R   0.184913 0.469066 0.617356 -0.249950
C3    C     C_R   0.230994 0.500882 0.500054 -0.064073
C4    C     C_R   0.326841 0.500123 0.500107 0.843586
C5    C     C_R   0.185607 0.533390 0.382467 -0.253079
C6    C     C_R   0.345791 0.129621 0.386512 -0.181585
C7    C     C_R   0.273965 0.062818 0.332922 -0.124220
C8    C     C_R   0.274016 0.931651 0.335304 -0.132120
C9    C     C_R   0.346057 0.866938 0.390819 -0.171599
C10   C     C_R   0.420255 0.933263 0.443785 0.063754
C11   C     C_R   0.419791 0.065232 0.441989 0.081349
C12   C     C_R   0.907185 0.533988 0.379301 0.056322
C13   C     C_R   0.492980 0.128708 0.499206 -0.133702
C14   C     C_R   0.564170 0.066335 0.558463 -0.192774
C15   C     C_R   0.565965 0.937480 0.559011 0.131794
C16   C     C_R   0.499268 0.739330 0.500376 0.909783
C17   C     C_R   0.494640 0.871783 0.501226 -0.163740
C18   C     C_R   0.511810 0.268680 0.119321 0.217734
C19   C     C_R   0.471975 0.163388 0.058454 -0.191667
C20   C     C_R   0.424454 0.177660 0.938544 -0.224973
C21   C     C_R   0.428198 0.292686 0.870673 -0.147604
C22   C     C_R   0.473640 0.394952 0.928899 0.141550
C23   C     C_R   0.953305 0.436460 0.734052 -0.163475
C24   C     C_R   0.492875 0.389075 0.068182 0.104762
C25   C     C_R   0.512689 0.607808 0.072355 -0.104406
C26   C     C_R   0.517895 0.606186 0.929113 -0.089089
C27   C     C_R   0.673181 0.499976 0.499834 0.928870
C28   C     C_R   0.814580 0.532773 0.381612 -0.177590
C29   C     C_R   0.769101 0.500500 0.499363 -0.081468
C30   C     C_R   0.814915 0.468927 0.616550 -0.206589
C31   C     C_R   0.907083 0.468940 0.616940 0.124196
C32   C     C_R   0.953548 0.501626 0.498309 0.029554
C33   C     C_R   0.045914 0.436758 0.734551 -0.202453
C34   C     C_R   0.092595 0.469106 0.617731 0.122023
C35   C     C_R   0.046436 0.501630 0.499022 0.068421
C36   C     C_R   0.093299 0.533953 0.381136 0.078872
C37   C     C_R   0.047516 0.566218 0.263829 -0.249485
C38   C     C_R   0.954711 0.566528 0.261813 0.159115
H1    H     H_    0.777089 0.557721 0.292795 0.201950
H2    H     H_    0.917821 0.410732 0.824965 0.177869
H3    H     H_    0.080970 0.411608 0.825916 0.154126
H4    H     H_    0.220765 0.443190 0.707903 0.156252
H5    H     H_    0.222024 0.559043 0.292217 0.161316
H6    H     H_    0.083918 0.591103 0.173428 0.167827
H7    H     H_    0.619556 0.118421 0.601600 0.178168
H8    H     H_    0.523421 0.695456 0.126087 0.163375
H9    H     H_    0.392423 0.302340 0.777296 0.182528
H10   H     H_    0.342222 0.231434 0.385184 0.145640
H11   H     H_    0.217741 0.113014 0.290659 0.147426
H12   H     H_    0.217785 0.879827 0.295000 0.146242
H13   H     H_    0.342359 0.765213 0.392975 0.144768
H14   H     H_    0.483579 0.069849 0.097843 0.174934
H15   H     H_    0.391626 0.097417 0.892559 0.169136
H16   H     H_    0.778923 0.443314 0.707205 0.177298
H17   H     H_    0.533844 0.692149 0.876441 0.172441
I1    I     I_    0.681141 0.849228 0.641825 -0.322652
I2    I     I_    0.642108 0.234270 0.196865 -0.308226
I3    I     I_    0.892957 0.617290 0.077056 -0.377881
N1    N     N_R   0.499150 0.498800 0.142780 -0.117785
N2    N     N_R   0.499120 0.498720 0.857170 -0.116840
O1    O     O_R   0.500000 0.316780 0.614690 -0.633995
O2    O     O_R   0.499990 0.316750 0.385360 -0.608773
O3    O     O_R   0.367850 0.499980 0.614680 -0.635857
O4    O     O_R   0.367840 0.499960 0.385350 -0.636581
O5    O     O_R   0.500010 0.683250 0.614640 -0.608143
O6    O     O_R   0.500000 0.683220 0.385310 -0.629572
O7    O     O_R   0.632160 0.500040 0.614650 -0.602847
O8    O     O_R   0.632150 0.500020 0.385320 -0.597534
Zn1   Zn    Zn3+2 0.500010 0.500020 0.653130 0.963823
Zn2   Zn    Zn3+2 0.499990 0.499980 0.346870 0.967755

loop_
_geom_bond_atom_site_label_1
_geom_bond_atom_site_label_2
_ccdc_geom_bond_type
C8    C9    A    
C5    C36   A    
C6    C7    A    
C18   C24   A    
O4    Zn2   S    
C27   C29   S    
C29   C30   A    
C11   C13   A    
C9    C10   A    
C4    O4    A    
C18   I2    S    
C31   C32   A    
C9    H13   S    
O3    Zn1   S    
C3    C5    A    
C33   H3    S    
C1    O2    A    
C2    C34   A    
C37   H6    S    
C33   C34   A    
C5    H5    S    
C7    C8    A    
C38   I3    S    
C13   C14   A    
C26   H17   S    
C12   C38   A    
C30   H16   S    
C4    O3    A    
O2    Zn2   S    
O6    Zn2   S    
C16   O6    A    
C6    H10   S    
N2    Zn1   S    
C12   C28   A    
C24   N1    A    
O5    Zn1   S    
C25   H8    S    
N1    Zn2   S    
C36   C37   A    
C37   C38   A    
C2    H4    S    
C2    C3    A    
C14   H7    S    
C22   N2    A    
C30   C31   A    
C15   I1    S    
C22   C24   A    
C23   C31   A    
C27   O7    A    
C10   C11   A    
C10   C17   A    
C28   H1    S    
C23   H2    S    
C32   C35   A    
C8    H12   S    
C1    C13   S    
C20   C21   A    
C7    H11   S    
O8    Zn2   S    
C34   C35   A    
O1    Zn1   S    
C6    C11   A    
C15   C17   A    
C18   C19   A    
C14   C15   A    
C28   C29   A    
C16   O5    A    
C25   N1    A    
C27   O8    A    
O7    Zn1   S    
C25   C26   A    
C21   C22   A    
C26   N2    A    
C19   H14   S    
C12   C32   A    
C3    C4    S    
C19   C20   A    
C16   C17   S    
C21   H9    S    
C20   H15   S    
C23   C33   A    
C35   C36   A    
C1    O1    A    
