data_mof_unit_54898.cif
_audit_creation_date              2012-10-26T17:12:27-0400
_audit_creation_method            fapswitch 2.2
_symmetry_space_group_name_H-M    P1
_symmetry_Int_Tables_number       1
_space_group_crystal_system       triclinic
_cell_length_a                    16.891186
_cell_length_b                    16.893117
_cell_length_c                    16.893123
_cell_angle_alpha                 67.458331
_cell_angle_beta                  67.463553
_cell_angle_gamma                 67.466663
_cell_volume                      3951.21809918

loop_
_atom_site_label
_atom_site_type_symbol
_atom_type_description
_atom_site_fract_x
_atom_site_fract_y
_atom_site_fract_z
_atom_type_partial_charge
C1    C     C_R   0.026275 0.828793 0.565225 0.560146
C2    C     C_R   0.016358 0.568770 0.830781 0.549837
C3    C     C_R   0.169175 0.983766 0.431182 0.549372
C4    C     C_R   0.828790 0.026302 0.565212 0.560620
C5    C     C_R   0.484752 0.971794 0.729720 -0.114017
C6    C     C_R   0.544050 0.946100 0.290972 -0.116944
C7    C     C_R   0.054599 0.708937 0.455755 -0.112488
C8    C     C_R   0.029738 0.269778 0.514436 -0.115566
C9    C     C_R   0.730471 0.485857 0.969594 -0.116129
C10   C     C_R   0.291222 0.544333 0.944756 -0.111731
C11   C     C_R   0.269639 0.030044 0.514291 -0.116184
C12   C     C_R   0.983738 0.169184 0.431189 0.549868
C13   C     C_R   0.708873 0.054907 0.455700 -0.111729
C14   C     C_R   0.515268 0.270348 0.028102 -0.113997
C15   C     C_R   0.456000 0.709081 0.053630 -0.116924
C16   C     C_R   0.945666 0.544115 0.291077 -0.112420
C17   C     C_R   0.971479 0.484890 0.729838 -0.115594
C18   C     C_R   0.549756 0.008552 0.545436 0.036250
C19   C     C_R   0.453976 0.993413 0.449546 0.036065
C20   C     C_R   0.008089 0.549902 0.545558 0.035960
C21   C     C_R   0.992932 0.454110 0.449712 0.035955
C22   C     C_R   0.546135 0.550556 0.006211 0.036065
C23   C     C_R   0.830835 0.568832 0.016195 0.549439
C24   C     C_R   0.450363 0.454652 0.991107 0.036249
C25   C     C_R   0.588559 0.011044 0.454540 0.011957
C26   C     C_R   0.411558 0.004374 0.535888 0.012888
C27   C     C_R   0.997579 0.463372 0.587800 0.012948
C28   C     C_R   0.990203 0.545077 0.411046 0.012000
C29   C     C_R   0.455183 0.589219 0.008854 0.011899
C30   C     C_R   0.536919 0.412447 0.001579 0.012689
C31   C     C_R   0.544943 0.990710 0.410898 0.011906
C32   C     C_R   0.463198 0.998093 0.587644 0.012713
C33   C     C_R   0.411581 0.545566 0.988520 0.011954
C34   C     C_R   0.171213 0.434790 0.973680 0.560571
C35   C     C_R   0.588567 0.464216 0.995254 0.012858
C36   C     C_R   0.003869 0.411717 0.536067 0.012944
C37   C     C_R   0.010561 0.588699 0.454662 0.012004
C38   C     C_R   0.432947 0.976298 0.680586 -0.146049
C39   C     C_R   0.589839 0.963835 0.332579 -0.146066
C40   C     C_R   0.037072 0.667238 0.409882 -0.142838
C41   C     C_R   0.025808 0.318755 0.566111 -0.145949
C42   C     C_R   0.681541 0.434194 0.973371 -0.146552
C43   C     C_R   0.333014 0.590293 0.962044 -0.142757
C44   C     C_R   0.318588 0.026245 0.565930 -0.146588
C45   C     C_R   0.568776 0.016338 0.830789 0.563395
C46   C     C_R   0.667128 0.037496 0.409796 -0.142792
C47   C     C_R   0.567128 0.319503 0.023485 -0.146011
C48   C     C_R   0.410263 0.667533 0.035735 -0.146059
C49   C     C_R   0.963332 0.589945 0.332708 -0.142794
C50   C     C_R   0.975817 0.433138 0.680741 -0.146045
C51   C     C_R   0.562622 0.001666 0.688002 0.008810
C52   C     C_R   0.449859 0.965255 0.319326 0.008666
C53   C     C_R   0.035449 0.680476 0.549945 0.009466
C54   C     C_R   0.999346 0.311687 0.436911 0.010130
C55   C     C_R   0.688473 0.563293 0.000127 0.009730
C56   C     C_R   0.434759 0.973765 0.171206 0.546914
C57   C     C_R   0.319654 0.450140 0.964085 0.009545
C58   C     C_R   0.311596 0.999618 0.436797 0.009758
C59   C     C_R   0.680415 0.035700 0.549893 0.009567
C60   C     C_R   0.437413 0.312043 0.998214 0.008792
C61   C     C_R   0.550186 0.680723 0.034542 0.008672
C62   C     C_R   0.964921 0.449924 0.319424 0.009483
C63   C     C_R   0.001407 0.562716 0.688081 0.010185
C64   C     C_R   0.607781 0.015784 0.735722 -0.025424
C65   C     C_R   0.398844 0.965644 0.268334 -0.027523
C66   C     C_R   0.034614 0.731600 0.601081 -0.027433
C67   C     C_R   0.431225 0.169212 0.983657 0.563391
C68   C     C_R   0.984589 0.264152 0.392042 -0.024786
C69   C     C_R   0.735915 0.608046 0.015177 -0.024890
C70   C     C_R   0.268432 0.398944 0.965215 -0.026975
C71   C     C_R   0.264116 0.984702 0.392001 -0.024881
C72   C     C_R   0.731585 0.034709 0.601058 -0.026963
C73   C     C_R   0.392224 0.264288 0.984176 -0.025437
C74   C     C_R   0.601173 0.731686 0.034272 -0.027507
C75   C     C_R   0.965496 0.398871 0.268366 -0.027464
C76   C     C_R   0.015700 0.607807 0.735749 -0.024804
C77   C     C_R   0.692262 0.029722 0.691659 -0.166465
C78   C     C_R   0.565245 0.828798 0.026214 0.546915
C79   C     C_R   0.308299 0.970360 0.307713 -0.169564
C80   C     C_R   0.029709 0.692252 0.691666 -0.168251
C81   C     C_R   0.970308 0.308307 0.307719 -0.168182
C82   C     C_R   0.691711 0.692307 0.029592 -0.169543
C83   C     C_R   0.307730 0.308327 0.970267 -0.166414
C84   C     C_R   0.597497 0.015961 0.594478 0.034406
C85   C     C_R   0.405109 0.985495 0.401967 0.033722
C86   C     C_R   0.015621 0.597603 0.594562 0.034077
C87   C     C_R   0.985116 0.405208 0.402104 0.034095
C88   C     C_R   0.594966 0.598114 0.014221 0.033711
C89   C     C_R   0.973730 0.434771 0.171204 0.560167
C90   C     C_R   0.402585 0.405581 0.983806 0.034421
Cu1   Cu    Cu3+1 0.995180 0.995180 0.424630 0.905278
Cu2   Cu    Cu3+1 0.004820 0.004820 0.575370 0.903453
Cu3   Cu    Cu3+1 0.995180 0.424630 0.995180 0.903368
Cu4   Cu    Cu3+1 0.004820 0.575370 0.004820 0.905379
Cu5   Cu    Cu3+1 0.424630 0.995180 0.995180 0.902086
Cu6   Cu    Cu3+1 0.575370 0.004820 0.004820 0.902141
H1    H     H_    0.463018 0.940926 0.800018 0.158123
H2    H     H_    0.415198 0.761960 0.084821 0.149670
H3    H     H_    0.914579 0.584820 0.238094 0.149390
H4    H     H_    0.940784 0.463086 0.800145 0.144899
H5    H     H_    0.372009 0.956248 0.716278 0.107261
H6    H     H_    0.661500 0.950990 0.305853 0.105622
H7    H     H_    0.049745 0.694116 0.338245 0.105695
H8    H     H_    0.046202 0.282946 0.626842 0.105984
H9    H     H_    0.717386 0.373481 0.952954 0.105943
H10   H     H_    0.306162 0.661931 0.949265 0.105245
H11   H     H_    0.282745 0.046645 0.626654 0.105882
H12   H     H_    0.584813 0.914972 0.238052 0.149658
H13   H     H_    0.694009 0.050193 0.338160 0.105223
H14   H     H_    0.628058 0.283836 0.043547 0.107303
H15   H     H_    0.338611 0.694272 0.048514 0.105631
H16   H     H_    0.950471 0.661603 0.305966 0.105708
H17   H     H_    0.955738 0.372225 0.716463 0.105975
H18   H     H_    0.729311 0.033924 0.729257 0.160027
H19   H     H_    0.270856 0.965583 0.270867 0.157483
H20   H     H_    0.034047 0.729251 0.729232 0.158721
H21   H     H_    0.965673 0.270823 0.270819 0.158692
H22   H     H_    0.729133 0.729131 0.034457 0.157458
H23   H     H_    0.085459 0.762085 0.415069 0.149522
H24   H     H_    0.270653 0.270704 0.966135 0.160031
H25   H     H_    0.060387 0.199436 0.536040 0.144674
H26   H     H_    0.800854 0.464312 0.939000 0.144846
H27   H     H_    0.237993 0.584933 0.913985 0.150537
H28   H     H_    0.199269 0.060606 0.535926 0.144817
H29   H     H_    0.762071 0.085690 0.415033 0.150586
H30   H     H_    0.536941 0.200060 0.059060 0.158079
O1    O     O_R   0.124540 0.978640 0.385460 -0.514244
O2    O     O_R   0.124540 0.385460 0.978640 -0.502765
O3    O     O_R   0.021360 0.875460 0.614540 -0.503549
O4    O     O_R   0.978640 0.124540 0.385460 -0.513499
O5    O     O_R   0.013780 0.867370 0.487190 -0.514192
O6    O     O_R   0.986220 0.132630 0.512810 -0.525745
O7    O     O_R   0.867370 0.487190 0.013780 -0.526043
O8    O     O_R   0.132630 0.512810 0.986220 -0.514103
O9    O     O_R   0.487190 0.013780 0.867370 -0.517188
O10   O     O_R   0.512810 0.986220 0.132630 -0.526267
O11   O     O_R   0.512810 0.132630 0.986220 -0.517149
O12   O     O_R   0.875460 0.021360 0.614540 -0.502726
O13   O     O_R   0.487190 0.867370 0.013780 -0.526307
O14   O     O_R   0.986220 0.512810 0.132630 -0.514121
O15   O     O_R   0.013780 0.487190 0.867370 -0.525961
O16   O     O_R   0.132630 0.986220 0.512810 -0.526189
O17   O     O_R   0.867370 0.013780 0.487190 -0.514152
O18   O     O_R   0.978640 0.385460 0.124540 -0.503540
O19   O     O_R   0.021360 0.614540 0.875460 -0.513481
O20   O     O_R   0.385460 0.124540 0.978640 -0.502584
O21   O     O_R   0.614540 0.875460 0.021360 -0.513125
O22   O     O_R   0.614540 0.021360 0.875460 -0.502570
O23   O     O_R   0.385460 0.978640 0.124540 -0.513112
O24   O     O_R   0.875460 0.614540 0.021360 -0.514224

loop_
_geom_bond_atom_site_label_1
_geom_bond_atom_site_label_2
_ccdc_geom_bond_type
C25   C31   A    
C21   C87   A    
C26   C32   A    
Cu3   Cu4   S    
C65   C79   A    
C22   C29   A    
C79   H19   S    
C45   O22   A    
Cu4   O14   S    
C64   C77   A    
C23   C69   S    
Cu5   Cu6   S    
C3    O16   A    
Cu3   O15   S    
Cu2   O12   S    
C78   O13   A    
C4    O17   A    
C71   C79   A    
C26   C44   A    
C66   C80   A    
Cu6   O10   S    
Cu1   O4    S    
C2    O19   A    
C22   C35   A    
C12   C68   S    
C9    C42   A    
Cu1   O1    S    
C30   C35   A    
C68   C81   A    
C52   C85   A    
Cu2   O6    S    
C37   C40   A    
C1    O3    A    
C54   C87   A    
C3    O1    A    
C8    H25   S    
Cu1   O5    S    
C63   C76   A    
C34   O8    A    
C56   C65   S    
C81   H21   S    
C60   C73   A    
Cu5   O20   S    
C55   C88   A    
C35   C42   A    
C19   C26   A    
C69   C82   A    
C14   C47   A    
C11   H28   S    
C29   C33   A    
C20   C86   A    
C18   C84   A    
C7    C40   A    
C53   C86   A    
C9    C55   A    
C32   C38   A    
C57   C70   A    
C11   C58   A    
Cu2   O16   S    
C34   C70   S    
C27   C50   A    
C59   C72   A    
C13   H29   S    
Cu4   O19   S    
C17   H4    S    
C19   C31   A    
C5    C38   A    
C36   C41   A    
C18   C25   A    
C16   C62   A    
C15   C48   A    
C74   C82   A    
C67   O11   A    
C56   O10   A    
C9    H26   S    
Cu1   O17   S    
Cu6   O22   S    
C45   O9    A    
C57   C90   A    
C23   O7    A    
C29   C48   A    
C33   C43   A    
C7    H23   S    
C30   C47   A    
C10   C57   A    
C16   C49   A    
C10   H27   S    
C8    C54   A    
Cu1   Cu2   S    
C21   C36   A    
C75   C81   A    
C1    O5    A    
C43   H10   S    
C83   H24   S    
C3    C71   S    
C72   C77   A    
C70   C83   A    
C61   C88   A    
C28   C49   A    
C89   O14   A    
C67   O20   A    
Cu5   O9    S    
C1    C66   S    
C15   C61   A    
C11   C44   A    
C8    C41   A    
C53   C66   A    
C55   C69   A    
Cu3   O18   S    
C12   O4    A    
C78   O21   A    
C49   H16   S    
C67   C73   S    
Cu5   O13   S    
C21   C28   A    
C5    H1    S    
C22   C88   A    
C63   C86   A    
C61   C74   A    
C62   C75   A    
C18   C32   A    
C7    C53   A    
C15   H2    S    
C77   H18   S    
C89   O18   A    
C58   C85   A    
C4    C72   S    
C2    C76   S    
C39   H6    S    
C44   H11   S    
C59   C84   A    
Cu6   O21   S    
C6    H12   S    
C12   O6    A    
C10   C43   A    
C23   O24   A    
Cu6   O11   S    
C80   H20   S    
C51   C64   A    
C76   C80   A    
C19   C85   A    
C24   C90   A    
C17   C50   A    
C16   H3    S    
Cu5   O23   S    
C13   C59   A    
C20   C27   A    
C60   C90   A    
C27   C36   A    
C38   H5    S    
C47   H14   S    
C14   C60   A    
C62   C87   A    
C45   C64   S    
Cu3   O7    S    
C24   C33   A    
C14   H30   S    
C41   H8    S    
C50   H17   S    
Cu2   O3    S    
Cu3   O2    S    
C17   C63   A    
C40   H7    S    
C20   C37   A    
C13   C46   A    
C28   C37   A    
C51   C84   A    
Cu4   O8    S    
C31   C39   A    
C58   C71   A    
C42   H9    S    
C24   C30   A    
C75   C89   S    
C4    O12   A    
Cu4   O24   S    
C48   H15   S    
C54   C68   A    
C34   O2    A    
C74   C78   S    
C46   H13   S    
C2    O15   A    
C82   H22   S    
C6    C39   A    
C5    C51   A    
C6    C52   A    
C56   O23   A    
C25   C46   A    
C73   C83   A    
C52   C65   A    
