data_mof_unit_54665.cif
_audit_creation_date              2012-10-26T19:35:13-0400
_audit_creation_method            fapswitch 2.2
_symmetry_space_group_name_H-M    P1
_symmetry_Int_Tables_number       1
_space_group_crystal_system       triclinic
_cell_length_a                    10.836981
_cell_length_b                    10.840627
_cell_length_c                    9.527356
_cell_angle_alpha                 89.4495
_cell_angle_beta                  88.868182
_cell_angle_gamma                 90.328324
_cell_volume                      1118.98098411

loop_
_atom_site_label
_atom_site_type_symbol
_atom_type_description
_atom_site_fract_x
_atom_site_fract_y
_atom_site_fract_z
_atom_type_partial_charge
C1    C     C_R   0.502145 0.262563 0.500673 0.544188
C2    C     C_R   0.554887 0.939189 0.378920 0.077855
C3    C     C_R   0.511439 0.871601 0.497987 0.069889
C4    C     C_R   0.261973 0.508447 0.502542 0.579589
C5    C     C_R   0.482556 0.935629 0.620709 -0.006033
C6    C     C_3   0.369849 0.930379 0.714397 -0.030203
C7    C     C_3   0.378460 0.070171 0.722191 -0.238140
C8    C     C_R   0.558102 0.592285 0.071479 0.179482
C9    C     C_R   0.435161 0.414121 0.076857 -0.025753
C10   C     C_R   0.436204 0.413332 0.927926 -0.034615
C11   C     C_R   0.556153 0.593660 0.923806 0.156105
C12   C     C_R   0.057299 0.490499 0.635578 0.077326
C13   C     C_3   0.689138 0.628402 0.912509 -0.277434
C14   C     C_3   0.692925 0.620994 0.070908 -0.276549
C15   C     C_R   0.502330 0.737854 0.499119 0.599520
C16   C     C_R   0.737495 0.490391 0.498991 0.543785
C17   C     C_R   0.100603 0.505121 0.774713 0.129912
C18   C     C_R   0.040248 0.443053 0.886625 -0.130699
C19   C     C_R   0.933949 0.374489 0.863355 -0.155266
C20   C     C_R   0.879131 0.380084 0.732513 -0.117069
C21   C     C_R   0.935014 0.448761 0.621420 -0.001638
C22   C     C_R   0.126891 0.516916 0.509788 0.030264
C23   C     C_R   0.065359 0.533136 0.383069 -0.153541
C24   C     C_R   0.938440 0.521707 0.379172 -0.154605
C25   C     C_R   0.871896 0.480638 0.498007 -0.005150
C26   C     C_R   0.487343 0.062412 0.624401 -0.014035
C27   C     C_R   0.513799 0.130090 0.502366 -0.002515
C28   C     C_R   0.554936 0.068217 0.381871 -0.142771
Cu1   Cu    Cu3+1 0.499990 0.499980 0.640670 0.951406
Cu2   Cu    Cu3+1 0.500010 0.500020 0.359330 0.956570
H1    H     H_    0.115205 0.557098 0.286827 0.136942
H2    H     H_    0.715344 0.710402 0.119604 0.152113
H3    H     H_    0.073775 0.451353 0.992501 0.102704
H4    H     H_    0.888804 0.324903 0.949323 0.118917
H5    H     H_    0.792528 0.331732 0.719437 0.144247
H6    H     H_    0.892752 0.545148 0.282865 0.127217
H7    H     H_    0.583511 0.119400 0.288369 0.128701
H8    H     H_    0.137827 0.670014 0.860194 0.235338
H9    H     H_    0.250626 0.566274 0.876710 0.232468
H10   H     H_    0.685954 0.908266 0.230829 0.217296
H11   H     H_    0.539999 0.907211 0.171594 0.226559
H12   H     H_    0.387503 0.883483 0.816268 0.139094
H13   H     H_    0.299721 0.120087 0.675267 0.166306
H14   H     H_    0.404900 0.103339 0.827532 0.109158
H15   H     H_    0.383893 0.343709 0.134657 0.123162
H16   H     H_    0.385535 0.342557 0.873865 0.118207
H17   H     H_    0.746881 0.557499 0.861350 0.174778
H18   H     H_    0.702599 0.723558 0.870189 0.131690
H19   H     H_    0.748164 0.541697 0.108316 0.137635
I1    I     I_    0.206113 0.871389 0.609192 -0.412329
N1    N     N_R   0.500790 0.500930 0.147930 -0.233731
N2    N     N_R   0.500790 0.500890 0.852020 -0.236217
N3    N     N_3   0.186475 0.601281 0.806778 -0.561287
N4    N     N_3   0.595791 0.878533 0.253918 -0.618916
O1    O     O_R   0.500000 0.319640 0.618810 -0.513441
O2    O     O_R   0.500010 0.319680 0.381230 -0.516574
O3    O     O_R   0.319640 0.499980 0.618820 -0.467008
O4    O     O_R   0.319650 0.500020 0.381230 -0.515209
O5    O     O_R   0.499990 0.680320 0.618770 -0.496059
O6    O     O_R   0.500000 0.680360 0.381190 -0.456910
O7    O     O_R   0.680350 0.499980 0.618770 -0.516242
O8    O     O_R   0.680360 0.500020 0.381180 -0.508484

loop_
_geom_bond_atom_site_label_1
_geom_bond_atom_site_label_2
_ccdc_geom_bond_type
C4    O3    A    
C12   C17   A    
C13   H18   S    
C2    C28   A    
C23   C24   A    
C19   H4    S    
C24   C25   A    
C9    H15   S    
Cu1   Cu2   S    
C7    H13   S    
C4    C22   S    
C15   O6    A    
C19   C20   A    
C9    N1    A    
Cu2   N1    S    
C10   N2    A    
C2    C3    A    
C1    O1    A    
C3    C15   S    
H9    N3    S    
C13   C14   S    
C6    I1    S    
C11   C13   S    
C8    N1    A    
C26   C27   A    
C24   H6    S    
H8    N3    S    
C7    C26   S    
C28   H7    S    
C8    C11   A    
Cu2   O4    S    
C9    C10   A    
C1    O2    A    
Cu1   O3    S    
C17   C18   A    
C6    C7    S    
H10   N4    S    
Cu2   O8    S    
C2    N4    S    
C5    C6    S    
Cu1   N2    S    
C18   H3    S    
Cu1   O7    S    
H11   N4    S    
C14   H19   S    
C16   O7    A    
C5    C26   A    
C17   N3    S    
C10   H16   S    
C16   C25   S    
C12   C22   A    
C20   C21   A    
C13   H17   S    
C18   C19   A    
C6    H12   S    
C4    O4    A    
C27   C28   A    
C1    C27   S    
C21   C25   A    
C22   C23   A    
C8    C14   S    
C11   N2    A    
Cu1   O1    S    
C23   H1    S    
C7    H14   S    
C20   H5    S    
Cu2   O2    S    
C12   C21   A    
C16   O8    A    
Cu1   O5    S    
C14   H2    S    
C3    C5    A    
C15   O5    A    
Cu2   O6    S    
