data_mof_unit_59068.cif
_audit_creation_date              2012-12-11T13:59:59-0500
_audit_creation_method            fapswitch 2.2
_symmetry_space_group_name_H-M    P1
_symmetry_Int_Tables_number       1
_space_group_crystal_system       triclinic
_cell_length_a                    11.197632
_cell_length_b                    11.229516
_cell_length_c                    18.661155
_cell_angle_alpha                 90.085202
_cell_angle_beta                  89.585175
_cell_angle_gamma                 119.390008
_cell_volume                      2044.46916379

loop_
_atom_site_label
_atom_site_type_symbol
_atom_type_description
_atom_site_fract_x
_atom_site_fract_y
_atom_site_fract_z
_atom_type_partial_charge
C1    C     C_R   0.540179 0.480056 0.851269 0.558140
C2    C     C_R   0.480993 0.541256 0.350244 0.555017
C3    C     C_R   0.058791 0.518481 0.350225 0.543989
C4    C     C_R   0.418764 0.869420 0.360036 0.570595
C5    C     C_2   0.905560 0.446439 0.565206 -0.106391
C6    C     C_2   0.521546 0.492914 0.572151 -0.090953
C7    C     C_2   0.487823 0.969728 0.587942 -0.108055
C8    C     C_2   0.446621 0.906477 0.434792 -0.095230
C9    C     C_2   0.506962 0.487827 0.415105 -0.100765
C10   C     C_2   0.967736 0.486771 0.411871 -0.108412
C11   C     C_2   0.915578 0.365001 0.444718 -0.143559
C12   C     C_R   0.519945 0.060401 0.851381 0.559381
C13   C     C_2   0.621198 0.564593 0.451563 -0.162368
C14   C     C_2   0.343261 0.866065 0.481940 -0.164667
C15   C     C_2   0.365688 0.917826 0.555612 -0.145152
C16   C     C_2   0.630513 0.543418 0.527368 -0.153090
C17   C     C_2   0.863729 0.343112 0.518613 -0.161412
C18   C     C_2   0.016051 0.511159 0.917388 -0.114338
C19   C     C_2   0.479507 0.511599 0.912327 -0.121257
C20   C     C_2   0.489303 0.970633 0.912813 -0.120478
C21   C     C_2   0.464953 0.934048 0.066676 -0.054146
C22   C     C_2   0.469134 0.534542 0.066988 -0.046404
C23   C     C_R   0.938106 0.458454 0.851962 0.565968
C24   C     C_2   0.007084 0.509944 0.076215 -0.061875
C25   C     C_2   0.048534 0.620008 0.033096 0.253725
C26   C     C_2   0.360289 0.451896 0.026876 0.236064
C27   C     C_2   0.553627 0.913921 0.026664 0.234897
C28   C     C_2   0.589909 0.979506 0.955546 0.235982
C29   C     C_2   0.389119 0.412567 0.956074 0.226589
C30   C     C_2   0.994708 0.595711 0.960060 0.229617
C31   C     C_3   0.123938 0.853454 0.032171 -0.088936
C32   C     C_3   0.133265 0.278512 0.033066 -0.079174
C33   C     C_3   0.743452 0.883961 0.040167 -0.087062
C34   C     C_R   0.454000 0.576370 0.138220 0.626764
C35   C     C_3   0.775643 0.186273 0.975646 -0.113813
C36   C     C_3   0.401286 0.220082 0.979326 -0.115271
C37   C     C_3   0.797964 0.603829 0.977138 -0.114569
C38   C     C_R   0.067484 0.523816 0.146082 0.599733
C39   C     C_R   0.423812 0.877086 0.137864 0.626957
C40   C     C_R   0.546563 0.478398 0.646648 0.543442
C41   C     C_R   0.518815 0.059252 0.649707 0.543654
C42   C     C_R   0.869202 0.418945 0.640225 0.559036
Cr1   Cr    Cr6+3 0.464030 0.233680 0.750360 1.057601
Cr2   Cr    Cr6+3 0.766320 0.230350 0.750360 1.055021
Cr3   Cr    Cr6+3 0.769650 0.535970 0.750360 1.054933
Cr4   Cr    Cr6+3 0.233680 0.464030 0.249640 1.033550
Cr5   Cr    Cr6+3 0.230350 0.766320 0.249640 1.030118
Cr6   Cr    Cr6+3 0.535970 0.769650 0.249640 1.030466
H1    H     H_    0.922386 0.281101 0.419689 0.156617
H2    H     H_    0.570304 0.956471 0.565675 0.098686
H3    H     H_    0.417354 0.454548 0.553677 0.099767
H4    H     H_    0.969771 0.552178 0.549115 0.100544
H5    H     H_    0.934295 0.408597 0.057903 -0.006772
H6    H     H_    0.572186 0.568152 0.047845 0.031157
H7    H     H_    0.425909 0.999259 0.047388 0.019998
H8    H     H_    0.382333 0.907129 0.928127 0.063979
H9    H     H_    0.521527 0.618501 0.926925 0.074750
H10   H     H_    0.076820 0.466236 0.936123 0.076367
H11   H     H_    0.018616 0.831016 0.046870 0.121163
H12   H     H_    0.707502 0.653200 0.427239 0.153862
H13   H     H_    0.144039 0.873255 0.973814 0.158153
H14   H     H_    0.194250 0.948950 0.060604 0.119295
H15   H     H_    0.167161 0.206202 0.052080 0.128327
H16   H     H_    0.112030 0.267632 0.974682 0.158741
H17   H     H_    0.035302 0.249712 0.061187 0.116802
H18   H     H_    0.801998 0.989415 0.061720 0.123957
H19   H     H_    0.767654 0.879297 0.982800 0.165663
H20   H     H_    0.777738 0.821305 0.070315 0.118370
H21   H     H_    0.761071 0.170487 0.034588 0.084136
H22   H     H_    0.727005 0.246047 0.956546 0.109319
H23   H     H_    0.237991 0.805643 0.463962 0.132714
H24   H     H_    0.886743 0.246950 0.965333 0.137226
H25   H     H_    0.388833 0.228204 0.038006 0.091953
H26   H     H_    0.511885 0.268783 0.964905 0.100321
H27   H     H_    0.353789 0.110221 0.966370 0.137684
H28   H     H_    0.815824 0.620662 0.035706 0.084090
H29   H     H_    0.731198 0.493085 0.966091 0.099998
H30   H     H_    0.743898 0.658874 0.960445 0.149867
H31   H     H_    0.281401 0.924088 0.581092 0.158908
H32   H     H_    0.733580 0.580591 0.547582 0.148332
H33   H     H_    0.802593 0.238275 0.537250 0.135016
H34   H     H_    0.953637 0.568660 0.433754 0.091153
H35   H     H_    0.423985 0.394718 0.437980 0.112153
H36   H     H_    0.552794 0.969851 0.450242 0.105463
O1    O     O_R   0.434100 0.092480 0.829780 -0.508875
O2    O     O_R   0.362730 0.477510 0.175360 -0.473487
O3    O     O_R   0.114780 0.637270 0.175360 -0.471129
O4    O     O_R   0.522490 0.885220 0.175360 -0.475654
O5    O     O_R   0.432250 0.092620 0.670380 -0.511267
O6    O     O_R   0.907380 0.339630 0.670380 -0.498181
O7    O     O_R   0.660370 0.567750 0.670380 -0.523023
O8    O     O_R   0.092620 0.432250 0.329620 -0.514119
O9    O     O_R   0.339630 0.907380 0.329620 -0.499926
O10   O     O_R   0.567750 0.660370 0.329620 -0.523942
O11   O     O_R   0.475790 0.362860 0.676880 -0.498567
O12   O     O_R   0.907520 0.341620 0.829780 -0.507218
O13   O     O_R   0.637140 0.112930 0.676880 -0.523469
O14   O     O_R   0.887070 0.524210 0.676880 -0.505940
O15   O     O_R   0.362860 0.475790 0.323120 -0.498970
O16   O     O_R   0.112930 0.637140 0.323120 -0.526400
O17   O     O_R   0.524210 0.887070 0.323120 -0.497214
O18   O     O_3   0.666667 0.333333 0.749450 -0.297004
O19   O     O_3   0.333333 0.666667 0.250550 -0.315080
O20   O     O_3   0.150511 0.748933 0.054794 -0.561468
O21   O     O_3   0.228345 0.414705 0.050780 -0.558387
O22   O     O_3   0.601275 0.828002 0.051128 -0.580016
O23   O     O_R   0.658380 0.565900 0.829780 -0.504844
O24   O     O_3   0.726511 0.062735 0.937683 -0.548388
O25   O     O_3   0.334549 0.275595 0.938782 -0.547902
O26   O     O_3   0.920420 0.657009 0.937078 -0.546910
O27   O     O_R   0.092480 0.434100 0.170220 -0.494845
O28   O     O_R   0.341620 0.907520 0.170220 -0.499586
O29   O     O_R   0.565900 0.658380 0.170220 -0.508303
O30   O     O_R   0.477510 0.362730 0.824640 -0.438116
O31   O     O_R   0.637270 0.114780 0.824640 -0.441593
O32   O     O_R   0.885220 0.522490 0.824640 -0.431793

loop_
_geom_bond_atom_site_label_1
_geom_bond_atom_site_label_2
_ccdc_geom_bond_type
C41   O5    A    
C5    C42   S    
C14   H23   S    
C31   H13   S    
C4    C8    S    
C22   H6    S    
C13   H12   S    
C19   H9    S    
C34   O29   A    
Cr1   O5    S    
Cr6   O10   S    
C12   O1    A    
C30   O26   S    
Cr2   O12   S    
C29   O25   S    
Cr3   O14   S    
C42   O14   A    
Cr1   O30   S    
C5    C17   D    
Cr5   O28   S    
C23   O12   A    
C34   O2    A    
C31   H11   S    
C9    C13   D    
C35   O24   S    
C23   O32   A    
C3    O16   A    
C18   H10   S    
C15   H31   S    
C35   H22   S    
Cr1   O11   S    
Cr6   O4    S    
C5    H4    S    
C18   C30   D    
C6    H3    S    
C17   H33   S    
C20   H8    S    
C12   O31   A    
C7    C15   D    
C21   C27   D    
Cr4   O27   S    
C31   H14   S    
C39   O4    A    
C26   O21   S    
C33   H18   S    
Cr2   O31   S    
C22   C34   S    
C1    C19   S    
Cr5   O19   S    
C18   C23   S    
Cr1   O1    S    
C2    O10   A    
C24   C25   D    
C32   H16   S    
Cr3   O18   S    
C21   H7    S    
Cr2   O18   S    
C20   C28   D    
C27   O22   S    
C24   H5    S    
Cr6   O19   S    
C37   H29   S    
C10   H34   S    
Cr5   O16   S    
C3    O8    A    
C42   O6    A    
Cr5   O3    S    
C11   H1    S    
C36   H27   S    
Cr2   O13   S    
C24   C38   S    
C21   C39   S    
C4    O17   A    
C12   C20   S    
Cr5   O9    S    
C37   O26   S    
C36   H26   S    
C9    H35   S    
C39   O28   A    
C37   H28   S    
C1    O23   A    
C35   H24   S    
C32   O21   S    
C41   O13   A    
C1    O30   A    
C40   O11   A    
C19   C29   D    
C36   O25   S    
Cr2   O6    S    
C33   H19   S    
Cr4   O19   S    
C25   C30   S    
C11   C17   S    
C8    C14   D    
C8    H36   S    
C33   O22   S    
C7    H2    S    
C2    O15   A    
C25   O20   S    
C32   H15   S    
C37   H30   S    
C38   O3    A    
C31   O20   S    
Cr4   O15   S    
Cr1   O18   S    
C3    C10   S    
Cr3   O32   S    
C28   O24   S    
Cr6   O17   S    
C6    C40   S    
C7    C41   S    
C40   O7    A    
Cr3   O7    S    
C10   C11   D    
C6    C16   D    
C4    O9    A    
Cr4   O8    S    
C35   H21   S    
C26   C29   S    
C22   C26   D    
C13   C16   S    
C27   C28   S    
C14   C15   S    
C32   H17   S    
C16   H32   S    
C38   O27   A    
C2    C9    S    
C36   H25   S    
Cr3   O23   S    
C33   H20   S    
Cr6   O29   S    
Cr4   O2    S    
