data_mof_unit_54220.cif
_audit_creation_date              2012-10-26T17:12:35-0400
_audit_creation_method            fapswitch 2.2
_symmetry_space_group_name_H-M    P1
_symmetry_Int_Tables_number       1
_space_group_crystal_system       triclinic
_cell_length_a                    16.818436
_cell_length_b                    16.919893
_cell_length_c                    16.771819
_cell_angle_alpha                 67.990567
_cell_angle_beta                  68.478447
_cell_angle_gamma                 68.380576
_cell_volume                      3966.03134458

loop_
_atom_site_label
_atom_site_type_symbol
_atom_type_description
_atom_site_fract_x
_atom_site_fract_y
_atom_site_fract_z
_atom_type_partial_charge
C1    C     C_R   0.024077 0.828912 0.565627 0.812455
C2    C     C_R   0.982277 0.169486 0.430993 0.831654
C3    C     C_R   0.829178 0.564639 0.028366 0.801439
C4    C     C_R   0.171441 0.434619 0.975184 0.820195
C5    C     C_R   0.564944 0.027508 0.828791 0.810181
C6    C     C_R   0.434799 0.974632 0.171728 0.824729
C7    C     C_R   0.430990 0.168929 0.984929 0.824184
C8    C     C_R   0.569875 0.831721 0.013547 0.821874
C9    C     C_R   0.969195 0.436064 0.171171 0.815663
C10   C     C_R   0.025300 0.565404 0.828124 0.817825
C11   C     C_R   0.171325 0.974715 0.434598 0.813188
C12   C     C_R   0.831517 0.014949 0.569650 0.840041
C13   C     C_R   0.462988 0.055346 0.702851 -0.254552
C14   C     C_R   0.547989 0.927138 0.299292 -0.296003
C15   C     C_R   0.016186 0.720677 0.459995 -0.264635
C16   C     C_R   0.050842 0.273616 0.488829 -0.292555
C17   C     C_R   0.692089 0.461490 0.098931 -0.265196
C18   C     C_R   0.292926 0.538935 0.959500 -0.267326
C19   C     C_R   0.292988 0.925155 0.549025 -0.239962
C20   C     C_R   0.740616 0.925882 0.518927 -0.306107
C21   C     C_R   0.504293 0.262007 0.052508 -0.278636
C22   C     C_R   0.511461 0.727043 0.942599 -0.298875
C23   C     C_R   0.904706 0.542059 0.303464 -0.297271
C24   C     C_R   0.037357 0.460275 0.708904 -0.272545
C25   C     C_R   0.554684 0.975124 0.565050 -0.097432
C26   C     C_R   0.463303 0.944825 0.472315 -0.080378
C27   C     C_R   0.998661 0.551530 0.544014 -0.100575
C28   C     C_R   0.974890 0.457387 0.450446 -0.108401
C29   C     C_R   0.550727 0.542773 0.020868 -0.103888
C30   C     C_R   0.451186 0.445655 0.010347 -0.095930
C31   C     C_R   0.602620 0.936799 0.493733 -0.041818
C32   C     C_R   0.418392 0.957654 0.558730 -0.060258
C33   C     C_R   0.010996 0.459674 0.576855 -0.022999
C34   C     C_R   0.947855 0.551157 0.423188 -0.037802
C35   C     C_R   0.481668 0.585720 0.979214 -0.020647
C36   C     C_R   0.527731 0.399632 0.043383 -0.047846
C37   C     C_R   0.555918 0.934508 0.439149 -0.016745
C38   C     C_R   0.461198 0.988036 0.597531 -0.051399
C39   C     C_R   0.424337 0.538648 0.986822 -0.046608
C40   C     C_R   0.572319 0.449575 0.057610 -0.060803
C41   C     C_R   0.014308 0.412742 0.521546 -0.023167
C42   C     C_R   0.974040 0.597093 0.462250 -0.062456
C43   C     C_R   0.415914 0.034074 0.664060 0.423524
C44   C     C_R   0.597281 0.927092 0.350881 0.429660
C45   C     C_R   0.988288 0.681902 0.418680 0.446492
C46   C     C_R   0.065542 0.324360 0.528128 0.526349
C47   C     C_R   0.635741 0.412639 0.108594 0.473392
C48   C     C_R   0.338802 0.582784 0.974601 0.485754
C49   C     C_R   0.334473 0.937446 0.599748 0.442186
C50   C     C_R   0.694748 0.898400 0.483738 0.537637
C51   C     C_R   0.556137 0.306401 0.058819 0.449392
C52   C     C_R   0.474369 0.674477 0.927345 0.517413
C53   C     C_R   0.899641 0.592507 0.356726 0.483858
C54   C     C_R   0.021740 0.416484 0.663327 0.459889
C55   C     C_R   0.555697 0.029501 0.681125 -0.049134
C56   C     C_R   0.454697 0.944317 0.328072 -0.041359
C57   C     C_R   0.019864 0.684875 0.550392 -0.048872
C58   C     C_R   0.996448 0.313909 0.430257 -0.055545
C59   C     C_R   0.675882 0.552199 0.054017 -0.050809
C60   C     C_R   0.320435 0.446208 0.974885 -0.053388
C61   C     C_R   0.324417 0.943964 0.455884 -0.062771
C62   C     C_R   0.694727 0.979138 0.577657 -0.060270
C63   C     C_R   0.431929 0.306839 0.014536 -0.049743
C64   C     C_R   0.570970 0.687763 0.995800 -0.051797
C65   C     C_R   0.941708 0.450469 0.324255 -0.041615
C66   C     C_R   0.029050 0.552172 0.677672 -0.046961
C67   C     C_R   0.603798 0.034417 0.732586 -0.179430
C68   C     C_R   0.400011 0.962940 0.270606 -0.205034
C69   C     C_R   0.032299 0.731691 0.599421 -0.196430
C70   C     C_R   0.977396 0.265130 0.390239 -0.194524
C71   C     C_R   0.732803 0.603599 0.038701 -0.190583
C72   C     C_R   0.269183 0.398327 0.968885 -0.211315
C73   C     C_R   0.269510 0.962300 0.399835 -0.201605
C74   C     C_R   0.739130 0.009267 0.614039 -0.203248
C75   C     C_R   0.390851 0.262985 0.988599 -0.198309
C76   C     C_R   0.612306 0.737728 0.011495 -0.206123
C77   C     C_R   0.951380 0.399765 0.269401 -0.210037
C78   C     C_R   0.035621 0.600320 0.728712 -0.209480
C79   C     C_R   0.694646 0.031192 0.696219 0.344239
C80   C     C_R   0.307107 0.980078 0.306911 0.364165
C81   C     C_R   0.044482 0.687087 0.685698 0.338672
C82   C     C_R   0.954877 0.309234 0.308478 0.347850
C83   C     C_R   0.698733 0.696668 0.021749 0.354021
C84   C     C_R   0.310653 0.310468 0.964162 0.349073
C85   C     C_R   0.601578 0.995612 0.607306 0.060602
C86   C     C_R   0.414124 0.944838 0.418363 0.059434
C87   C     C_R   0.014516 0.596835 0.591437 0.049041
C88   C     C_R   0.968615 0.407375 0.402967 0.058355
C89   C     C_R   0.598647 0.594186 0.024697 0.053289
C90   C     C_R   0.401260 0.399434 0.999709 0.059830
Cu1   Cu    Cu3+1 0.995180 0.995180 0.424630 0.958509
Cu2   Cu    Cu3+1 0.004820 0.004820 0.575370 0.932947
Cu3   Cu    Cu3+1 0.995180 0.424630 0.995180 0.946859
Cu4   Cu    Cu3+1 0.004820 0.575370 0.004820 0.915430
Cu5   Cu    Cu3+1 0.424630 0.995180 0.995180 0.966060
Cu6   Cu    Cu3+1 0.575370 0.004820 0.004820 0.923770
H1    H     H_    0.424715 0.092851 0.750889 0.178071
H2    H     H_    0.586219 0.913658 0.236392 0.199160
H3    H     H_    0.039634 0.776589 0.414586 0.201418
H4    H     H_    0.090365 0.205636 0.496330 0.176778
H5    H     H_    0.743783 0.429810 0.133387 0.161872
H6    H     H_    0.237339 0.581147 0.933281 0.194775
H7    H     H_    0.234679 0.901596 0.585468 0.190198
H8    H     H_    0.811353 0.896244 0.507893 0.182102
H9    H     H_    0.523818 0.191173 0.078313 0.194540
H10   H     H_    0.501229 0.796045 0.904812 0.173176
H11   H     H_    0.875146 0.573357 0.248321 0.167659
H12   H     H_    0.060658 0.417525 0.766243 0.196559
O1    O     O_R   0.124540 0.978640 0.385460 -0.532921
O2    O     O_R   0.875460 0.021360 0.614540 -0.567428
O3    O     O_R   0.978640 0.385460 0.124540 -0.537102
O4    O     O_R   0.021360 0.614540 0.875460 -0.543309
O5    O     O_R   0.385460 0.124540 0.978640 -0.537453
O6    O     O_R   0.614540 0.875460 0.021360 -0.551135
O7    O     O_R   0.614540 0.021360 0.875460 -0.581698
O8    O     O_R   0.385460 0.978640 0.124540 -0.525693
O9    O     O_R   0.875460 0.614540 0.021360 -0.555849
O10   O     O_R   0.124540 0.385460 0.978640 -0.534263
O11   O     O_R   0.021360 0.875460 0.614540 -0.543121
O12   O     O_R   0.978640 0.124540 0.385460 -0.540153
O13   O     O_R   0.013780 0.867370 0.487190 -0.620794
O14   O     O_R   0.986220 0.132630 0.512810 -0.599959
O15   O     O_R   0.867370 0.487190 0.013780 -0.595335
O16   O     O_R   0.132630 0.512810 0.986220 -0.609203
O17   O     O_R   0.487190 0.013780 0.867370 -0.602909
O18   O     O_R   0.512810 0.986220 0.132630 -0.620124
O19   O     O_R   0.512810 0.132630 0.986220 -0.606747
O20   O     O_R   0.487190 0.867370 0.013780 -0.595168
O21   O     O_R   0.986220 0.512810 0.132630 -0.596800
O22   O     O_R   0.013780 0.487190 0.867370 -0.611374
O23   O     O_R   0.132630 0.986220 0.512810 -0.610187
O24   O     O_R   0.867370 0.013780 0.487190 -0.596631
O25   O     O_3   0.326165 0.049277 0.701417 -0.559504
C91   C     C_3   0.282609 0.137189 0.666274 0.075563
H13   H     H_    0.287424 0.149249 0.595066 0.167398
H14   H     H_    0.310914 0.183885 0.672455 0.106576
C92   C     C_3   0.185753 0.151874 0.719319 -0.623996
H15   H     H_    0.155803 0.223000 0.713289 0.274043
H16   H     H_    0.149323 0.127133 0.694370 0.253432
H17   H     H_    0.179718 0.117010 0.791233 0.216310
O26   O     O_3   0.685950 0.923894 0.311271 -0.554240
C93   C     C_3   0.694251 0.011064 0.269122 0.077429
H18   H     H_    0.662396 0.052431 0.316692 0.136822
H19   H     H_    0.664085 0.042445 0.211775 0.157020
C94   C     C_3   0.792156 0.008128 0.234367 -0.744841
H20   H     H_    0.825992 0.969206 0.184880 0.235135
H21   H     H_    0.799664 0.076321 0.201849 0.203604
H22   H     H_    0.823803 0.977106 0.290431 0.264276
O27   O     O_3   0.975372 0.730245 0.335303 -0.516857
C95   C     C_3   0.050381 0.703275 0.268252 0.083358
H23   H     H_    0.069914 0.630425 0.278586 0.124931
H24   H     H_    0.107225 0.723265 0.266227 0.118702
C96   C     C_3   0.027015 0.748897 0.179282 -0.744640
H25   H     H_    0.013345 0.821698 0.163940 0.237261
H26   H     H_    0.081427 0.725728 0.124719 0.191458
H27   H     H_    0.967511 0.733220 0.182108 0.266020
O28   O     O_3   0.140948 0.293118 0.557699 -0.579744
C97   C     C_3   0.211153 0.323945 0.487728 0.040105
H28   H     H_    0.192873 0.368481 0.424652 0.125964
H29   H     H_    0.264590 0.266052 0.469814 0.142289
C98   C     C_3   0.248487 0.373254 0.518923 -0.831047
H30   H     H_    0.268021 0.331319 0.581201 0.236551
H31   H     H_    0.307780 0.390960 0.466772 0.199094
H32   H     H_    0.198167 0.434938 0.531255 0.249368
O29   O     O_3   0.640467 0.331988 0.172779 -0.546628
C99   C     C_3   0.567646 0.341491 0.248224 0.079722
H33   H     H_    0.503203 0.371376 0.230282 0.132079
H34   H     H_    0.574561 0.383374 0.281777 0.125040
C100  C     C_3   0.565247 0.250762 0.313833 -0.797512
H35   H     H_    0.626949 0.219354 0.336317 0.236885
H36   H     H_    0.507667 0.257509 0.372978 0.192724
H37   H     H_    0.558532 0.207779 0.281603 0.252939
O30   O     O_3   0.297222 0.668748 0.980290 -0.566990
C101  C     C_3   0.275752 0.669187 0.070197 0.045198
H38   H     H_    0.332169 0.632059 0.101016 0.134340
H39   H     H_    0.220209 0.638501 0.110997 0.137326
C102  C     C_3   0.249554 0.763850 0.074980 -0.806391
H40   H     H_    0.194808 0.805429 0.043028 0.246954
H41   H     H_    0.227653 0.764859 0.145610 0.204893
H42   H     H_    0.307530 0.791949 0.040773 0.250403
O31   O     O_3   0.285152 0.935256 0.686531 -0.560924
C103  C     C_3   0.327662 0.865417 0.747782 0.149925
H43   H     H_    0.393862 0.870821 0.740400 0.155776
H44   H     H_    0.335157 0.800878 0.739370 0.141868
C104  C     C_3   0.270807 0.870583 0.841166 -0.660528
H45   H     H_    0.210798 0.848218 0.858418 0.223657
H46   H     H_    0.309398 0.828954 0.890192 0.261419
H47   H     H_    0.249884 0.939463 0.845690 0.248819
O32   O     O_3   0.737511 0.824740 0.451784 -0.523108
C105  C     C_3   0.744599 0.747361 0.524863 0.108240
H48   H     H_    0.758645 0.755633 0.580883 0.105928
H49   H     H_    0.801645 0.694868 0.501647 0.205928
C106  C     C_3   0.662106 0.713681 0.559865 -0.909970
H50   H     H_    0.651794 0.696897 0.507217 0.243185
H51   H     H_    0.670297 0.653245 0.616550 0.212053
H52   H     H_    0.602659 0.764502 0.583255 0.239742
O33   O     O_3   0.636929 0.255860 0.075774 -0.541637
C107  C     C_3   0.702836 0.257918 0.993856 0.092643
H53   H     H_    0.709611 0.326373 0.957979 0.133988
H54   H     H_    0.687478 0.232360 0.950351 0.136149
C108  C     C_3   0.791155 0.199285 0.012396 -0.801640
H55   H     H_    0.788025 0.129500 0.043316 0.239047
H56   H     H_    0.844721 0.203386 0.949316 0.197995
H57   H     H_    0.806828 0.221264 0.058153 0.262281
O34   O     O_3   0.439424 0.707169 0.855059 -0.588651
C109  C     C_3   0.505243 0.681535 0.780578 0.027470
H58   H     H_    0.574020 0.651465 0.789137 0.131709
H59   H     H_    0.507802 0.741766 0.723662 0.145077
C110  C     C_3   0.480185 0.617695 0.755609 -0.822659
H60   H     H_    0.410594 0.644195 0.750936 0.242525
H61   H     H_    0.524512 0.608198 0.690103 0.209642
H62   H     H_    0.487619 0.552413 0.806211 0.243503
O35   O     O_3   0.850864 0.681200 0.344058 -0.526401
C111  C     C_3   0.771886 0.701411 0.319148 0.101337
H63   H     H_    0.718393 0.744467 0.358655 0.225316
H64   H     H_    0.747185 0.643180 0.334797 0.081921
C112  C     C_3   0.781649 0.754564 0.221284 -0.732296
H65   H     H_    0.717298 0.774822 0.205207 0.216737
H66   H     H_    0.801250 0.814921 0.208729 0.277484
H67   H     H_    0.832264 0.715394 0.176046 0.228093
O36   O     O_3   0.017192 0.330117 0.704887 -0.580724
C113  C     C_3   0.927305 0.328825 0.740145 0.054429
H68   H     H_    0.885792 0.374316 0.693487 0.133842
H69   H     H_    0.899423 0.347440 0.803901 0.148238
C114  C     C_3   0.921751 0.235773 0.758227 -0.807982
H70   H     H_    0.961077 0.187981 0.805637 0.245821
H71   H     H_    0.851478 0.233541 0.787198 0.199363
H72   H     H_    0.948220 0.216598 0.694978 0.258353
O37   O     O_3   0.732685 0.066644 0.732213 -0.553782
C115  C     C_3   0.791796 0.000774 0.782822 0.166347
H73   H     H_    0.827364 0.941265 0.757869 0.118225
H74   H     H_    0.758261 0.975398 0.852974 0.164016
C116  C     C_3   0.856777 0.042163 0.786637 -0.754112
H75   H     H_    0.820927 0.087880 0.829492 0.215106
H76   H     H_    0.909880 0.989850 0.815679 0.180696
H77   H     H_    0.887888 0.080424 0.719657 0.274766
O38   O     O_3   0.251855 0.017349 0.250487 -0.543283
C117  C     C_3   0.231493 0.110590 0.229485 0.060815
H78   H     H_    0.292724 0.133900 0.194793 0.115338
H79   H     H_    0.196512 0.133665 0.290751 0.116451
C118  C     C_3   0.170784 0.152817 0.167619 -0.625698
H80   H     H_    0.108441 0.131808 0.200649 0.259887
H81   H     H_    0.154231 0.226037 0.151052 0.206936
H82   H     H_    0.204338 0.132550 0.104943 0.257276
O39   O     O_3   0.061155 0.730873 0.730408 -0.549975
C119  C     C_3   0.153393 0.705703 0.720778 0.104358
H83   H     H_    0.189055 0.733383 0.650594 0.120435
H84   H     H_    0.180643 0.632338 0.740292 0.111447
C120  C     C_3   0.170689 0.741730 0.781451 -0.763512
H85   H     H_    0.129299 0.721862 0.850720 0.256280
H86   H     H_    0.241401 0.714261 0.781971 0.189379
H87   H     H_    0.154647 0.815065 0.757258 0.248264
O40   O     O_3   0.945997 0.261713 0.262230 -0.549616
C121  C     C_3   0.854881 0.272901 0.276719 0.123773
H88   H     H_    0.820244 0.343640 0.251250 0.112861
H89   H     H_    0.822538 0.248588 0.349017 0.129093
C122  C     C_3   0.845464 0.219340 0.227081 -0.754791
H90   H     H_    0.880163 0.148475 0.250819 0.241507
H91   H     H_    0.774462 0.225363 0.239080 0.235173
H92   H     H_    0.874815 0.244064 0.154404 0.240568
O41   O     O_3   0.750088 0.747526 0.016057 -0.548352
C123  C     C_3   0.794760 0.779372 0.925518 0.141373
H93   H     H_    0.748191 0.834697 0.889938 0.096103
H94   H     H_    0.823844 0.727528 0.889227 0.125538
C124  C     C_3   0.870466 0.810848 0.922058 -0.745122
H95   H     H_    0.915132 0.757643 0.961315 0.269049
H96   H     H_    0.910695 0.829887 0.852219 0.210990
H97   H     H_    0.843587 0.867980 0.950503 0.209605
O42   O     O_3   0.270394 0.269193 0.938796 -0.547408
C125  C     C_3   0.285916 0.299355 0.845093 0.110855
H98   H     H_    0.356790 0.271979 0.812374 0.124957
H99   H     H_    0.268468 0.373004 0.820033 0.108818
C126  C     C_3   0.228331 0.267884 0.818593 -0.784771
H100  H     H_    0.157747 0.289020 0.855377 0.261659
H101  H     H_    0.234470 0.297232 0.746089 0.182935
H102  H     H_    0.249883 0.194598 0.834527 0.246867

loop_
_geom_bond_atom_site_label_1
_geom_bond_atom_site_label_2
_ccdc_geom_bond_type
C68   C80   A    
C40   C47   A    
C14   C56   A    
C25   C31   A    
O28   C97   S    
C12   C74   S    
C11   O1    A    
C29   C40   A    
C100  H36   S    
C108  H55   S    
C39   C48   A    
C35   C39   A    
Cu5   Cu6   S    
C27   C42   A    
C13   C43   A    
C30   C90   A    
Cu6   O6    S    
C122  H92   S    
C114  H72   S    
C123  C124  S    
C12   O2    A    
C94   H20   S    
C10   C78   S    
C7    O19   A    
O31   C103  S    
C27   C33   A    
C112  H67   S    
C26   C32   A    
C92   H16   S    
C117  C118  S    
C120  H85   S    
O29   C99   S    
C63   C75   A    
C84   O42   S    
C34   C53   A    
C14   H2    S    
C22   C52   A    
Cu2   O11   S    
Cu5   O5    S    
C122  H90   S    
C114  H71   S    
C18   H6    S    
O40   C121  S    
C47   O29   S    
Cu4   O9    S    
C109  H59   S    
C75   C84   A    
C104  H46   S    
C60   C72   A    
C24   C54   A    
C117  H79   S    
C28   C41   A    
C8    C76   S    
C126  H102  S    
C55   C67   A    
C4    O16   A    
C115  C116  S    
C118  H80   S    
C59   C89   A    
C43   O25   S    
C50   O32   S    
C17   H5    S    
C103  H43   S    
C79   O37   S    
C20   C50   A    
C51   O33   S    
C97   C98   S    
C94   H21   S    
C119  H83   S    
C19   H7    S    
Cu5   O20   S    
C8    O20   A    
C93   H18   S    
C22   H10   S    
C17   C47   A    
C44   O26   S    
C106  H51   S    
C95   C96   S    
C34   C42   A    
C28   C88   A    
C121  H89   S    
C41   C46   A    
C97   H28   S    
Cu6   O7    S    
C10   O4    A    
C107  H53   S    
C24   H12   S    
C32   C38   A    
C26   C86   A    
C96   H26   S    
C3    O9    A    
C124  H95   S    
C105  C106  S    
C8    O6    A    
C33   C54   A    
C106  H52   S    
C5    C67   S    
C28   C34   A    
C93   H19   S    
O30   C101  S    
O42   C125  S    
C5    O7    A    
C99   H34   S    
C108  H56   S    
C125  C126  S    
C4    O10   A    
C119  C120  S    
O33   C107  S    
C64   C89   A    
C91   C92   S    
C76   C83   A    
C29   C89   A    
C98   H32   S    
C98   H31   S    
C3    O15   A    
C73   C80   A    
C23   C53   A    
C71   C83   A    
C2    O14   A    
C66   C78   A    
C62   C85   A    
C119  H84   S    
C120  H86   S    
Cu4   O21   S    
C65   C77   A    
C20   C62   A    
C52   O34   S    
C100  H35   S    
C81   O39   S    
C36   C40   A    
Cu2   O23   S    
C67   C79   A    
C6    O18   A    
C110  H60   S    
C11   C73   S    
C16   C46   A    
Cu1   Cu2   S    
C125  H98   S    
C2    O12   A    
C109  H58   S    
C58   C70   A    
C54   O36   S    
C123  H94   S    
Cu1   O24   S    
C121  C122  S    
C102  H41   S    
C112  H65   S    
O34   C109  S    
C46   O28   S    
C1    C69   S    
C31   C37   A    
Cu6   O19   S    
C18   C48   A    
Cu1   O1    S    
C122  H91   S    
C103  C104  S    
C80   O38   S    
C55   C85   A    
C3    C71   S    
C9    O3    A    
C10   O22   A    
C105  H48   S    
C1    O11   A    
O37   C115  S    
C95   H24   S    
Cu2   O14   S    
C25   C38   A    
O36   C113  S    
C124  H96   S    
C116  H77   S    
C19   C49   A    
C56   C86   A    
O35   C111  S    
Cu5   O8    S    
C115  H74   S    
C102  H42   S    
C23   H11   S    
C6    C68   S    
C107  C108  S    
C25   C85   A    
C114  H70   S    
C64   C76   A    
Cu6   O18   S    
C82   O40   S    
Cu3   Cu4   S    
C9    C77   S    
C96   H27   S    
C27   C87   A    
C116  H76   S    
C101  C102  S    
C6    O8    A    
C72   C84   A    
C36   C51   A    
Cu3   O3    S    
C49   O31   S    
C18   C60   A    
Cu5   O17   S    
C17   C59   A    
C106  H50   S    
C16   C58   A    
C60   C90   A    
C74   C79   A    
O26   C93   S    
C57   C69   A    
O25   C91   S    
C108  H57   S    
C125  H99   S    
C83   O41   S    
Cu3   O10   S    
C15   C45   A    
C31   C50   A    
Cu3   O22   S    
C21   C51   A    
C94   H22   S    
C66   C87   A    
C65   C88   A    
C14   C44   A    
C48   O30   S    
C116  H75   S    
O32   C105  S    
C109  C110  S    
C117  H78   S    
C113  H69   S    
C120  H87   S    
C105  H49   S    
C12   O24   A    
C103  H44   S    
C61   C73   A    
C111  H63   S    
C110  H62   S    
C16   H4    S    
Cu3   O15   S    
O39   C119  S    
C104  H47   S    
C111  C112  S    
C58   C88   A    
C7    C75   S    
O38   C117  S    
C26   C37   A    
C123  H93   S    
C20   H8    S    
C9    O21   A    
C4    C72   S    
C112  H66   S    
C92   H15   S    
C29   C35   A    
C91   H13   S    
C53   O35   S    
C113  C114  S    
C30   C36   A    
C118  H82   S    
C33   C41   A    
C23   C65   A    
C121  H88   S    
C111  H64   S    
C11   O23   A    
C38   C43   A    
Cu2   O2    S    
C56   C68   A    
O27   C95   S    
C15   H3    S    
C97   H29   S    
C78   C81   A    
C7    O5    A    
C104  H45   S    
C99   H33   S    
C98   H30   S    
C77   C82   A    
C19   C61   A    
C15   C57   A    
C92   H17   S    
C63   C90   A    
Cu4   O4    S    
C126  H101  S    
C101  H39   S    
C91   H14   S    
C30   C39   A    
C45   O27   S    
C93   C94   S    
C13   H1    S    
C115  H73   S    
C70   C82   A    
C124  H97   S    
C1    O13   A    
C32   C49   A    
C21   C63   A    
C69   C81   A    
C61   C86   A    
C22   C64   A    
C37   C44   A    
C57   C87   A    
C24   C66   A    
C99   C100  S    
C102  H40   S    
Cu1   O13   S    
C5    O17   A    
C35   C52   A    
O41   C123  S    
Cu4   O16   S    
C110  H61   S    
Cu1   O12   S    
C62   C74   A    
C107  H54   S    
C100  H37   S    
C118  H81   S    
C96   H25   S    
C2    C70   S    
C113  H68   S    
C42   C45   A    
C21   H9    S    
C59   C71   A    
C95   H23   S    
C13   C55   A    
C101  H38   S    
C126  H100  S    
