data_mof_unit_19476.cif
_audit_creation_date              2012-10-26T18:39:08-0400
_audit_creation_method            fapswitch 2.2
_symmetry_space_group_name_H-M    P1
_symmetry_Int_Tables_number       1
_space_group_crystal_system       triclinic
_cell_length_a                    9.440878
_cell_length_b                    10.612416
_cell_length_c                    17.347054
_cell_angle_alpha                 90.050623
_cell_angle_beta                  85.847905
_cell_angle_gamma                 90.816475
_cell_volume                      1733.27277684

loop_
_atom_site_label
_atom_site_type_symbol
_atom_type_description
_atom_site_fract_x
_atom_site_fract_y
_atom_site_fract_z
_atom_type_partial_charge
C1    C     C_R   0.500885 0.740518 0.500231 0.551933
C2    C     C_3   0.634099 0.962232 0.505954 -0.119256
C3    C     C_3   0.950363 0.392498 0.476495 -0.006892
C4    C     C_3   0.049637 0.607501 0.523505 -0.006915
C5    C     C_3   0.041287 0.414193 0.544957 0.098590
C6    C     C_3   0.958712 0.585806 0.455043 0.098578
C7    C     C_3   0.059721 0.478948 0.431157 -0.006786
C8    C     C_3   0.940279 0.521052 0.568842 -0.006792
C9    C     C_R   0.481239 0.497820 0.649708 0.542837
C10   C     C_R   0.518761 0.502186 0.350293 0.542835
C11   C     C_R   0.471336 0.490296 0.734002 0.013926
C12   C     C_R   0.499115 0.259483 0.499770 0.551936
C13   C     C_R   0.528666 0.509739 0.266000 0.013926
C14   C     C_R   0.594403 0.469609 0.772616 -0.134479
C15   C     C_R   0.405606 0.530475 0.227389 -0.134479
C16   C     C_R   0.586908 0.462949 0.852582 -0.110656
C17   C     C_R   0.413107 0.537178 0.147423 -0.110665
C18   C     C_R   0.456334 0.478595 0.895249 0.043786
C19   C     C_R   0.543678 0.521521 0.104755 0.043784
C20   C     C_R   0.332483 0.494836 0.856822 -0.119031
C21   C     C_R   0.667523 0.505234 0.143180 -0.119028
C22   C     C_R   0.339816 0.501140 0.776489 -0.138025
C23   C     C_3   0.451825 0.956294 0.433953 -0.125019
C24   C     C_R   0.660184 0.498890 0.223512 -0.138031
C25   C     C_2   0.446638 0.478576 0.979883 -0.136800
C26   C     C_2   0.553373 0.521559 0.020121 -0.136803
C27   C     C_3   0.088256 0.310718 0.598391 -0.242222
C28   C     C_3   0.960057 0.240986 0.638538 -0.328360
C29   C     C_3   0.007498 0.134406 0.689262 -0.461807
C30   C     C_3   0.911731 0.689308 0.401632 -0.242210
C31   C     C_3   0.039924 0.758948 0.361414 -0.328363
C32   C     C_3   0.992484 0.865699 0.310820 -0.461802
C33   C     C_3   0.548173 0.043707 0.566050 -0.125027
C34   C     C_3   0.583541 0.043256 0.439508 -0.124812
C35   C     C_3   0.416457 0.956745 0.560494 -0.124817
C36   C     C_3   0.497697 0.122470 0.499643 0.046292
C37   C     C_3   0.502302 0.877531 0.500360 0.046301
C38   C     C_3   0.365899 0.037769 0.494049 -0.119261
Cu1   Cu    Cu3+1 0.356850 0.500010 0.499980 0.907571
Cu2   Cu    Cu3+1 0.643150 0.499990 0.500020 0.907569
H1    H     H_    0.696710 0.457948 0.741158 0.111605
H2    H     H_    0.347724 0.445421 0.009326 0.112720
H3    H     H_    0.230691 0.505355 0.889076 0.095595
H4    H     H_    0.769311 0.494705 0.110925 0.095600
H5    H     H_    0.316767 0.555575 0.119401 0.097673
H6    H     H_    0.683256 0.444589 0.880605 0.097670
H7    H     H_    0.651796 0.081667 0.389973 0.103482
H8    H     H_    0.348203 0.918334 0.610029 0.103475
H9    H     H_    0.412471 0.917256 0.379937 0.105219
H10   H     H_    0.587527 0.082745 0.620066 0.105225
H11   H     H_    0.255855 0.070114 0.488538 0.103118
H12   H     H_    0.303302 0.542143 0.258848 0.111605
H13   H     H_    0.744144 0.929891 0.511468 0.103098
H14   H     H_    0.070278 0.064897 0.653688 0.146691
H15   H     H_    0.073190 0.172515 0.734757 0.154096
H16   H     H_    0.912776 0.085569 0.717567 0.144701
H17   H     H_    0.895275 0.307746 0.675181 0.156117
H18   H     H_    0.892354 0.200452 0.594600 0.166262
H19   H     H_    0.152912 0.242142 0.563636 0.162069
H20   H     H_    0.153213 0.353222 0.642681 0.164744
H21   H     H_    0.926477 0.827788 0.265406 0.154118
H22   H     H_    0.930023 0.935272 0.346511 0.146653
H23   H     H_    0.904674 0.302030 0.456880 0.097396
H24   H     H_    0.087199 0.914405 0.282415 0.144706
H25   H     H_    0.107856 0.799300 0.405303 0.166347
H26   H     H_    0.104473 0.692165 0.324665 0.156027
H27   H     H_    0.846653 0.646854 0.357381 0.164814
H28   H     H_    0.847190 0.757923 0.436422 0.162013
H29   H     H_    0.095324 0.697970 0.543119 0.097406
H30   H     H_    0.113570 0.461267 0.373244 0.094360
H31   H     H_    0.886430 0.538736 0.626755 0.094352
H32   H     H_    0.756834 0.484211 0.252133 0.114295
H33   H     H_    0.243161 0.515783 0.747866 0.114283
H34   H     H_    0.652290 0.554713 0.990680 0.112714
N1    N     N_3   0.141720 0.500030 0.499940 -0.234598
N2    N     N_3   0.858280 0.499970 0.500060 -0.234596
O1    O     O_R   0.379130 0.683150 0.499960 -0.506824
O2    O     O_R   0.620870 0.316850 0.500040 -0.506810
O3    O     O_R   0.620910 0.683140 0.500000 -0.514219
O4    O     O_R   0.379090 0.316860 0.500000 -0.514229
O5    O     O_R   0.365090 0.500030 0.613580 -0.515973
O6    O     O_R   0.634910 0.499970 0.386420 -0.515993
O7    O     O_R   0.606870 0.500020 0.613610 -0.509273
O8    O     O_R   0.393130 0.499980 0.386390 -0.509263

loop_
_geom_bond_atom_site_label_1
_geom_bond_atom_site_label_2
_ccdc_geom_bond_type
C31   H26   S    
C1    O1    A    
C4    C8    S    
C7    H30   S    
C28   H17   S    
Cu1   O1    S    
C28   C29   S    
C35   C37   S    
C17   H5    S    
Cu1   O8    S    
C3    C7    S    
C27   H20   S    
C30   C31   S    
C11   C14   A    
C23   H9    S    
C29   H14   S    
C8    N2    S    
C33   C36   S    
C31   H25   S    
C19   C26   S    
C4    N1    S    
C26   H34   S    
C5    C27   S    
C12   O2    A    
C10   C13   S    
Cu1   N1    S    
C12   C36   S    
C34   C36   S    
C30   H27   S    
C1    C37   S    
C2    C34   S    
Cu2   O7    S    
C18   C25   S    
C35   H8    S    
C4    H29   S    
Cu2   O2    S    
Cu2   O6    S    
C35   C38   S    
C32   H24   S    
C4    C6    S    
C16   H6    S    
Cu1   Cu2   S    
C17   C19   A    
C7    N1    S    
C38   H11   S    
C29   H15   S    
C33   H10   S    
C23   C37   S    
C10   O6    A    
Cu2   N2    S    
C13   C24   A    
C5    N1    S    
C21   H4    S    
C31   C32   S    
C23   C34   S    
Cu2   O3    S    
C15   H12   S    
C3    N2    S    
C9    C11   S    
Cu1   O5    S    
C9    O7    A    
C14   H1    S    
C2    C33   S    
C6    C30   S    
C20   C22   A    
C3    H23   S    
C13   C15   A    
C1    O3    A    
C14   C16   A    
C20   H3    S    
C24   H32   S    
C15   C17   A    
C8    H31   S    
C19   C21   A    
C3    C5    S    
C2    H13   S    
C25   H2    S    
C32   H21   S    
C5    C8    S    
C6    N2    S    
C6    C7    S    
C29   H16   S    
C28   H18   S    
C23   C38   S    
C11   C22   A    
Cu1   O4    S    
C36   C38   S    
C25   C26   D    
C32   H22   S    
C27   H19   S    
C2    C37   S    
C12   O4    A    
C10   O8    A    
C33   C35   S    
C18   C20   A    
C16   C18   A    
C21   C24   A    
C27   C28   S    
C34   H7    S    
C22   H33   S    
C30   H28   S    
C9    O5    A    
