data_mof_unit_14505.cif
_audit_creation_date              2012-12-10T19:48:04-0500
_audit_creation_method            fapswitch 2.2
_symmetry_space_group_name_H-M    P1
_symmetry_Int_Tables_number       1
_space_group_crystal_system       triclinic
_cell_length_a                    15.011978
_cell_length_b                    14.111925
_cell_length_c                    10.626051
_cell_angle_alpha                 90.000132
_cell_angle_beta                  89.962892
_cell_angle_gamma                 90.000226
_cell_volume                      2251.10619865

loop_
_atom_site_label
_atom_site_type_symbol
_atom_type_description
_atom_site_fract_x
_atom_site_fract_y
_atom_site_fract_z
_atom_type_partial_charge
C1    C     C_R   0.327672 0.499990 0.499909 0.862026
C2    C     C_R   0.534590 0.795445 0.599885 0.004403
C3    C     C_R   0.565536 0.204662 0.561633 0.014482
C4    C     C_R   0.465410 0.795445 0.400115 0.004404
C5    C     C_R   0.500000 0.053423 0.500001 0.136699
C6    C     C_R   0.500000 0.946682 0.500001 0.144526
C7    C     C_R   0.513709 0.499978 0.260285 0.895960
C8    C     C_R   0.486285 0.499979 0.739712 0.895949
C9    C     C_R   0.549863 0.674124 0.109930 -0.136935
C10   C     C_R   0.450612 0.325463 0.889617 -0.122517
C11   C     C_R   0.450143 0.674130 0.890065 -0.136929
C12   C     C_R   0.672327 0.499991 0.500115 0.862022
C13   C     C_R   0.549338 0.325453 0.110374 -0.122521
C14   C     C_R   0.526476 0.759821 0.053637 -0.170587
C15   C     C_R   0.473805 0.239779 0.946062 -0.162365
C16   C     C_R   0.473538 0.759824 0.946359 -0.170597
C17   C     C_R   0.526130 0.239773 0.053930 -0.162382
C18   C     C_R   0.479926 0.586817 0.940707 0.092741
C19   C     C_R   0.519906 0.412831 0.059412 0.084804
C20   C     C_R   0.520070 0.586815 0.059288 0.092726
C21   C     C_R   0.480057 0.412835 0.940584 0.084800
C22   C     C_R   0.472076 0.499868 0.875640 -0.266940
C23   C     C_R   0.048090 0.499831 0.500342 0.116713
C24   C     C_R   0.527908 0.499864 0.124355 -0.266948
C25   C     C_R   0.094048 0.579421 0.544464 -0.178912
C26   C     C_R   0.905856 0.420303 0.544361 -0.181444
C27   C     C_R   0.905987 0.579418 0.455961 -0.178845
C28   C     C_R   0.094103 0.420254 0.456220 -0.181386
C29   C     C_R   0.186005 0.579697 0.543671 -0.200953
C30   C     C_R   0.813901 0.420110 0.543586 -0.193641
C31   C     C_R   0.814030 0.579685 0.456559 -0.200973
C32   C     C_R   0.186058 0.420072 0.456801 -0.193681
C33   C     C_R   0.231952 0.499931 0.500113 -0.022839
C34   C     C_R   0.951906 0.499853 0.500238 0.116704
C35   C     C_R   0.768046 0.499934 0.500080 -0.022807
C36   C     C_R   0.432958 0.105239 0.437653 -0.287924
C37   C     C_R   0.534632 0.894861 0.602275 -0.287403
C38   C     C_R   0.567042 0.105240 0.562348 -0.287918
C39   C     C_R   0.465368 0.894860 0.397726 -0.287402
C40   C     C_R   0.434464 0.204660 0.438368 0.014457
H1    H     H_    0.547255 0.173408 0.095390 0.135892
H2    H     H_    0.778781 0.358370 0.578466 0.145934
H3    H     H_    0.779010 0.641434 0.421580 0.150733
H4    H     H_    0.221146 0.358314 0.421912 0.145946
H5    H     H_    0.378810 0.069614 0.390018 0.133782
H6    H     H_    0.560665 0.930459 0.684581 0.131708
H7    H     H_    0.621190 0.069617 0.609984 0.133781
H8    H     H_    0.439335 0.930458 0.315420 0.131708
H9    H     H_    0.382849 0.243747 0.389929 0.127880
H10   H     H_    0.562086 0.756548 0.678432 0.143763
H11   H     H_    0.617151 0.243751 0.610072 0.127866
H12   H     H_    0.452235 0.826185 0.905069 0.134180
H13   H     H_    0.437915 0.756547 0.321567 0.143760
H14   H     H_    0.058834 0.640728 0.580436 0.131191
H15   H     H_    0.940992 0.358984 0.580385 0.130070
H16   H     H_    0.941230 0.640702 0.419977 0.131198
H17   H     H_    0.058937 0.358917 0.420306 0.130072
H18   H     H_    0.452669 0.173418 0.904601 0.135890
H19   H     H_    0.547788 0.826179 0.094926 0.134182
H20   H     H_    0.591912 0.676684 0.192559 0.148434
H21   H     H_    0.408763 0.322816 0.806798 0.152197
H22   H     H_    0.408095 0.676693 0.807435 0.148433
H23   H     H_    0.591193 0.322799 0.193186 0.152206
H24   H     H_    0.221054 0.641472 0.578518 0.150758
N1    N     N_R   0.500000 0.252470 0.500000 -0.096838
N2    N     N_R   0.500000 0.747530 0.500000 -0.096316
O1    O     O_R   0.369060 0.579480 0.500010 -0.623539
O2    O     O_R   0.630940 0.420520 0.499990 -0.634360
O3    O     O_R   0.630940 0.579480 0.499990 -0.623525
O4    O     O_R   0.369060 0.420520 0.500010 -0.634358
O5    O     O_R   0.499990 0.579480 0.316780 -0.625717
O6    O     O_R   0.500010 0.420520 0.683220 -0.616941
O7    O     O_R   0.500010 0.579480 0.683220 -0.625725
O8    O     O_R   0.499990 0.420520 0.316780 -0.616938
Zn1   Zn    Zn3+2 0.500000 0.606140 0.500000 0.932644
Zn2   Zn    Zn3+2 0.500000 0.393860 0.500000 0.931482

loop_
_geom_bond_atom_site_label_1
_geom_bond_atom_site_label_2
_ccdc_geom_bond_type
O5    Zn1   S    
C12   O3    A    
C11   C18   A    
C4    H13   S    
O6    Zn2   S    
C11   H22   S    
C26   H15   S    
C1    C33   S    
C28   H17   S    
C14   H19   S    
C12   O2    A    
N1    Zn2   S    
C31   H3    S    
C30   C35   A    
C19   C21   A    
C10   C15   A    
C7    O5    A    
C5    C6    S    
C40   H9    S    
C5    C36   A    
C29   C33   A    
C2    H10   S    
C26   C34   A    
C20   C24   A    
C3    C38   A    
C8    C22   S    
C14   C16   A    
C29   H24   S    
C27   C34   A    
C21   C22   A    
O7    Zn1   S    
C3    N1    A    
C7    O8    A    
C10   C21   A    
C25   C29   A    
C8    O6    A    
C13   C19   A    
C27   C31   A    
C36   C40   A    
C25   H14   S    
C3    H11   S    
C27   H16   S    
C9    C14   A    
C11   C16   A    
C9    C20   A    
C13   H23   S    
C4    C39   A    
C28   C32   A    
C23   C34   S    
C32   H4    S    
C6    C37   A    
C36   H5    S    
C23   C28   A    
C12   C35   S    
C38   H7    S    
O8    Zn2   S    
C26   C30   A    
C40   N1    A    
O4    Zn2   S    
C15   H18   S    
C31   C35   A    
C10   H21   S    
O1    Zn1   S    
C15   C17   A    
C18   C22   A    
C16   H12   S    
C2    N2    A    
O2    Zn2   S    
C1    O4    A    
C13   C17   A    
C9    H20   S    
C32   C33   A    
C19   C24   A    
C4    N2    A    
C2    C37   A    
N2    Zn1   S    
C8    O7    A    
C1    O1    A    
O3    Zn1   S    
C18   C20   A    
C23   C25   A    
C17   H1    S    
C6    C39   A    
C30   H2    S    
C37   H6    S    
C5    C38   A    
C7    C24   S    
C39   H8    S    
