data_mof_unit_56289.cif
_audit_creation_date              2012-12-11T15:54:36-0500
_audit_creation_method            fapswitch 2.2
_symmetry_space_group_name_H-M    P1
_symmetry_Int_Tables_number       1
_space_group_crystal_system       triclinic
_cell_length_a                    6.928324
_cell_length_b                    14.500768
_cell_length_c                    16.130766
_cell_angle_alpha                 89.874141
_cell_angle_beta                  90.290956
_cell_angle_gamma                 90.180673
_cell_volume                      1620.56103689

loop_
_atom_site_label
_atom_site_type_symbol
_atom_type_description
_atom_site_fract_x
_atom_site_fract_y
_atom_site_fract_z
_atom_type_partial_charge
O1    O     O_R   0.638180 0.333920 0.163320 -0.540117
O2    O     O_R   0.361820 0.666080 0.836680 -0.539452
O3    O     O_R   0.308470 0.344960 0.336080 -0.543077
O4    O     O_R   0.691530 0.655040 0.663920 -0.544017
O5    O     O_R   0.138140 0.166110 0.336680 -0.534705
O6    O     O_R   0.861860 0.833890 0.663320 -0.533599
C1    C     C_R   0.477837 0.367116 0.365112 0.693509
C2    C     C_R   0.522159 0.632854 0.634910 0.690466
O7    O     O_R   0.308460 0.344950 0.163930 -0.543691
O8    O     O_R   0.691540 0.655050 0.836070 -0.543715
O9    O     O_R   0.138140 0.166100 0.163310 -0.543768
O10   O     O_R   0.861860 0.833900 0.836690 -0.538515
C3    C     C_R   0.477383 0.367096 0.134904 0.681856
C4    C     C_R   0.522590 0.632738 0.864970 0.684881
O11   O     O_R   0.638180 0.333930 0.336700 -0.540941
O12   O     O_R   0.361820 0.666070 0.663300 -0.541525
O13   O     O_3   0.471670 0.191340 0.250000 -0.367557
O14   O     O_3   0.528330 0.808660 0.750000 -0.365977
V1    V     V_3+5 0.196830 0.260900 0.250000 1.390515
V2    V     V_3+5 0.803170 0.739100 0.750000 1.401705
O15   O     O_R   0.808420 0.155070 0.163920 -0.543971
O16   O     O_R   0.191580 0.844930 0.836080 -0.548711
C5    C     C_R   0.975995 0.131384 0.135988 0.677237
C6    C     C_R   0.023049 0.870879 0.861818 0.676563
O17   O     O_R   0.808420 0.155080 0.336070 -0.536848
O18   O     O_R   0.191580 0.844920 0.663930 -0.539779
C7    C     C_R   0.977661 0.132645 0.364333 0.698379
C8    C     C_R   0.022480 0.867724 0.636077 0.698977
V3    V     V_3+5 0.696830 0.239130 0.250000 1.399099
V4    V     V_3+5 0.303170 0.760870 0.750000 1.401088
O19   O     O_3   0.971850 0.308690 0.250010 -0.370414
O20   O     O_3   0.028150 0.691310 0.749990 -0.371359
H1    H     H_    0.091992 0.821477 0.256066 0.109935
H2    H     H_    0.924514 0.180274 0.745022 0.106271
C9    C     C_R   0.937788 0.189124 0.535127 -0.137633
C10   C     C_R   0.060260 0.811095 0.465558 -0.137249
C11   C     C_R   0.921739 0.219063 0.616793 -0.113886
C12   C     C_R   0.080302 0.781430 0.383987 -0.114417
C13   C     C_R   0.936289 0.156356 0.681790 -0.120040
C14   C     C_R   0.075261 0.844822 0.319294 -0.127241
C15   C     C_R   0.965465 0.063022 0.665740 -0.136762
C16   C     C_R   0.049981 0.938335 0.335661 -0.147528
C17   C     C_R   0.981964 0.030504 0.583466 0.066575
C18   C     C_R   0.023806 0.970270 0.417505 0.074153
C19   C     C_R   0.968835 0.094962 0.516788 0.067080
C20   C     C_R   0.032096 0.905495 0.483976 0.067256
C21   C     C_R   0.012231 0.935641 0.566991 -0.182441
C22   C     C_R   0.989119 0.064863 0.433707 -0.182015
H3    H     H_    0.926569 0.240659 0.486715 0.097675
H4    H     H_    0.066378 0.759188 0.513813 0.097379
H5    H     H_    0.898492 0.291412 0.629698 0.113536
H6    H     H_    0.100932 0.708917 0.370988 0.114379
H7    H     H_    0.975714 0.016888 0.718403 0.088088
H8    H     H_    0.052512 0.985317 0.283599 0.082161
C23   C     C_R   0.157345 0.010214 0.942785 0.083098
C24   C     C_R   0.829616 0.000780 0.047357 0.083598
C25   C     C_R   0.145195 0.064926 0.014600 -0.194735
C26   C     C_R   0.851086 0.939867 0.980549 -0.206641
H9    H     H_    0.260740 0.113000 0.028121 0.121515
H10   H     H_    0.739026 0.889030 0.969269 0.126322
C27   C     C_R   0.982549 0.063424 0.066443 -0.092237
C28   C     C_R   0.012679 0.942064 0.928415 -0.098724
C29   C     C_R   0.321180 0.476954 0.465134 -0.158454
C30   C     C_R   0.678803 0.522952 0.534940 -0.159179
H11   H     H_    0.180834 0.460408 0.439230 0.114898
H12   H     H_    0.819147 0.539496 0.560846 0.114622
C31   C     C_R   0.331931 0.540680 0.530173 -0.155270
C32   C     C_R   0.668052 0.459228 0.469899 -0.155372
H13   H     H_    0.199514 0.571429 0.552143 0.113865
H14   H     H_    0.800468 0.428478 0.447930 0.114017
C33   C     C_R   0.510881 0.564537 0.566074 -0.043312
C34   C     C_R   0.489107 0.435389 0.433984 -0.043770
C35   C     C_R   0.320344 0.474557 0.032122 -0.161966
C36   C     C_R   0.679570 0.524917 0.967474 -0.160759
H15   H     H_    0.179516 0.456179 0.055939 0.116577
H16   H     H_    0.820396 0.543278 0.943646 0.116313
C37   C     C_R   0.331622 0.538185 0.966920 -0.153160
C38   C     C_R   0.668292 0.461288 0.032676 -0.153254
H17   H     H_    0.198858 0.567044 0.942665 0.119125
H18   H     H_    0.801051 0.432411 0.056919 0.118760
C39   C     C_R   0.511400 0.564276 0.933703 -0.046444
C40   C     C_R   0.488532 0.435309 0.065979 -0.046576
C41   C     C_3   0.322598 0.029087 0.882951 -0.360220
C42   C     C_3   0.340269 0.131649 0.859355 -0.336836
C43   C     C_3   0.482949 0.145404 0.788560 -0.741018
H19   H     H_    0.625881 0.116756 0.806179 0.226095
H20   H     H_    0.430043 0.110501 0.731514 0.236152
H21   H     H_    0.499651 0.220147 0.775191 0.217109
H22   H     H_    0.197121 0.158617 0.839935 0.198227
H23   H     H_    0.392474 0.172582 0.913099 0.190724
H24   H     H_    0.459980 0.005590 0.911676 0.171842
H25   H     H_    0.302651 0.991944 0.823887 0.199365
C44   C     C_3   0.641474 0.994457 0.095232 -0.353857
C45   C     C_3   0.670044 0.950706 0.180947 -0.294496
C46   C     C_3   0.477393 0.935834 0.224177 -0.730646
H26   H     H_    0.401465 0.002587 0.231731 0.239693
H27   H     H_    0.385060 0.888190 0.187432 0.212751
H28   H     H_    0.502494 0.905195 0.286448 0.225142
H29   H     H_    0.744000 0.883160 0.174634 0.187172
H30   H     H_    0.759810 0.996027 0.220443 0.199378
H31   H     H_    0.571638 0.062921 0.099540 0.190470
H32   H     H_    0.535150 0.951339 0.060710 0.162280

loop_
_geom_bond_atom_site_label_1
_geom_bond_atom_site_label_2
_ccdc_geom_bond_type
C7    C22   S    
C26   C28   A    
V4    O20   S    
C29   H11   S    
C8    C21   S    
C44   C45   S    
O13   V3    S    
C46   H26   S    
O4    C2    A    
V1    O19   S    
C46   H28   S    
C13   C15   A    
C43   H19   S    
C41   H25   S    
O9    V1    S    
C36   H16   S    
C30   C32   A    
C9    C11   A    
O3    C1    A    
C11   H5    S    
C38   H18   S    
C19   C22   A    
C12   H6    S    
C26   H10   S    
C23   C28   A    
C30   C33   A    
O7    C3    A    
O5    C7    A    
O7    V1    S    
O6    C8    A    
O8    V2    S    
C9    H3    S    
O3    V1    S    
O14   V4    S    
C45   H30   S    
C31   C33   A    
C14   C16   A    
C2    O12   A    
V3    O19   S    
C15   C17   A    
C42   H23   S    
C18   C20   A    
O11   V3    S    
C43   H20   S    
O17   V3    S    
C24   C44   S    
C29   C31   A    
H1    C14   S    
H2    C13   S    
O12   V4    S    
C42   C43   S    
O8    C4    A    
C44   H31   S    
C1    C34   S    
C1    O11   A    
O15   V3    S    
C3    C40   S    
C31   H13   S    
C30   H12   S    
C38   C40   A    
C41   C42   S    
C37   C39   A    
C32   C34   A    
O10   V2    S    
O1    V3    S    
C37   H17   S    
C10   C20   A    
C17   C19   A    
C15   H7    S    
O18   V4    S    
C23   C25   A    
O16   C6    A    
O1    C3    A    
C42   H22   S    
C35   H15   S    
C36   C39   A    
C23   C41   S    
C10   C12   A    
C9    C19   A    
C35   C40   A    
C10   H4    S    
V2    O20   S    
C43   H21   S    
C20   C21   A    
C2    C33   S    
C6    C28   S    
O16   V4    S    
C44   H32   S    
C46   H27   S    
C25   C27   A    
O5    V1    S    
O17   C7    A    
C41   H24   S    
O10   C6    A    
O18   C8    A    
O2    V4    S    
C45   H29   S    
O15   C5    A    
C16   C18   A    
C11   C13   A    
C16   H8    S    
C12   C14   A    
O6    V2    S    
O9    C5    A    
O13   V1    S    
C24   C26   A    
O14   V2    S    
C45   C46   S    
O2    C4    A    
C25   H9    S    
O4    V2    S    
C5    C27   S    
C29   C34   A    
C32   H14   S    
C36   C38   A    
C35   C37   A    
C24   C27   A    
C4    C39   S    
C17   C21   A    
C18   C22   A    
