data_mof_unit_40219.cif
_audit_creation_date              2012-10-26T19:36:23-0400
_audit_creation_method            fapswitch 2.2
_symmetry_space_group_name_H-M    P1
_symmetry_Int_Tables_number       1
_space_group_crystal_system       triclinic
_cell_length_a                    10.897762
_cell_length_b                    15.991639
_cell_length_c                    14.736475
_cell_angle_alpha                 89.668984
_cell_angle_beta                  90.526558
_cell_angle_gamma                 89.807959
_cell_volume                      2568.00462804

loop_
_atom_site_label
_atom_site_type_symbol
_atom_type_description
_atom_site_fract_x
_atom_site_fract_y
_atom_site_fract_z
_atom_type_partial_charge
C1    C     C_R   0.499678 0.340831 0.500272 0.558419
C2    C     C_R   0.479003 0.087550 0.506435 -0.047403
C3    C     C_R   0.424105 0.957298 0.432638 0.228682
C4    C     C_R   0.523408 0.042777 0.582686 0.255073
C5    C     C_1   0.486491 0.823129 0.501122 0.027756
C6    C     C_1   0.487633 0.177020 0.503445 0.033800
C7    C     C_1   0.494147 0.251884 0.501323 0.029957
C8    C     C_1   0.492985 0.748219 0.499664 0.005000
C9    C     C_R   0.564102 0.560623 0.951488 -0.172206
C10   C     C_R   0.435289 0.439281 0.048534 -0.161095
C11   C     C_R   0.498366 0.499713 0.902898 0.028845
C12   C     C_R   0.498945 0.659194 0.499804 0.551127
C13   C     C_R   0.501025 0.500211 0.097115 0.039573
C14   C     C_R   0.433371 0.438494 0.952015 0.267480
C15   C     C_R   0.566153 0.561353 0.047988 0.258680
C16   C     C_R   0.261681 0.499272 0.499260 0.578402
C17   C     C_R   0.738337 0.499916 0.500546 0.597944
C18   C     C_1   0.499133 0.499970 0.802739 0.216232
C19   C     C_1   0.500494 0.499966 0.197265 0.184497
C20   C     C_R   0.219298 0.656870 0.235638 0.347058
C21   C     C_R   0.768798 0.314322 0.733454 0.357679
C22   C     C_R   0.170866 0.636609 0.321219 0.191310
C23   C     C_R   0.872172 0.499665 0.501380 0.012434
C24   C     C_R   0.824630 0.345386 0.654599 0.184898
C25   C     C_R   0.121900 0.555495 0.336315 -0.001075
C26   C     C_R   0.875073 0.427174 0.654846 -0.017203
C27   C     C_R   0.125994 0.495618 0.266584 0.250314
C28   C     C_R   0.868233 0.476376 0.733647 0.241859
C29   C     C_R   0.170376 0.518163 0.180834 -0.164863
C30   C     C_R   0.805731 0.445877 0.809801 -0.170110
C31   C     C_R   0.214224 0.599385 0.164030 0.226359
C32   C     C_R   0.758057 0.364214 0.811111 0.222867
C33   C     C_R   0.932978 0.536179 0.427306 0.234400
C34   C     C_R   0.127941 0.497597 0.497583 0.001668
C35   C     C_R   0.067321 0.460562 0.571485 0.222142
C36   C     C_3   0.183062 0.600543 0.008444 -0.116407
C37   C     C_3   0.753121 0.347028 0.966967 -0.120686
C38   C     C_3   0.388165 0.738898 0.237188 -0.033408
C39   C     C_3   0.809882 0.178902 0.766999 -0.055799
C40   C     C_3   0.169851 0.356134 0.277037 -0.106313
C41   C     C_3   0.004960 0.566729 0.798976 -0.113952
C42   C     C_3   0.479626 0.118414 0.709533 -0.060361
C43   C     C_3   0.245990 0.907227 0.375325 -0.064701
C44   C     C_3   0.494663 0.885212 0.713587 -0.097676
C45   C     C_R   0.938601 0.462390 0.574171 -0.038057
C46   C     C_3   0.470801 0.095967 0.291112 -0.092663
C47   C     C_R   0.061237 0.531724 0.423058 -0.045093
C48   C     C_R   0.525513 0.955037 0.581000 0.251319
C49   C     C_R   0.429648 0.045050 0.431411 0.236467
C50   C     C_R   0.478469 0.912643 0.504918 -0.047381
Cu1   Cu    Cu3+1 0.500040 0.500000 0.589220 1.069308
Cu2   Cu    Cu3+1 0.499960 0.500000 0.410780 1.021227
H1    H     H_    0.614578 0.607600 0.914093 0.099742
H2    H     H_    0.715477 0.303492 0.018454 0.149767
H3    H     H_    0.439009 0.690941 0.197849 0.168235
H4    H     H_    0.406588 0.731066 0.310952 0.168759
H5    H     H_    0.423802 0.801011 0.216691 0.167023
H6    H     H_    0.837194 0.194248 0.837940 0.099401
H7    H     H_    0.891918 0.177921 0.722535 0.133299
H8    H     H_    0.771043 0.114908 0.767814 0.181928
H9    H     H_    0.138886 0.675793 0.444335 0.318363
H10   H     H_    0.870749 0.321350 0.529222 0.321809
H11   H     H_    0.249200 0.371801 0.321841 0.147928
H12   H     H_    0.384964 0.392235 0.085930 0.075018
H13   H     H_    0.200879 0.346712 0.206209 0.097313
H14   H     H_    0.132291 0.295741 0.301375 0.155852
H15   H     H_    0.073238 0.514716 0.798060 0.143741
H16   H     H_    0.963894 0.572424 0.867369 0.093620
H17   H     H_    0.055469 0.625487 0.785233 0.146321
H18   H     H_    0.915435 0.614273 0.324273 0.334423
H19   H     H_    0.086153 0.384513 0.676788 0.318490
H20   H     H_    0.395010 0.079470 0.711618 0.062021
H21   H     H_    0.456297 0.182246 0.684900 0.165444
H22   H     H_    0.513678 0.124358 0.780360 0.168584
H23   H     H_    0.169665 0.472233 0.127331 0.117164
H24   H     H_    0.200394 0.969343 0.381135 0.142010
H25   H     H_    0.228210 0.868622 0.436890 0.138222
H26   H     H_    0.203681 0.874990 0.316531 0.208569
H27   H     H_    0.422340 0.846003 0.681471 0.101751
H28   H     H_    0.452308 0.939510 0.748112 0.117513
H29   H     H_    0.540738 0.846388 0.766479 0.149811
H30   H     H_    0.496519 0.033450 0.264347 0.159022
H31   H     H_    0.553764 0.129160 0.316630 0.113956
H32   H     H_    0.432495 0.133198 0.233702 0.132473
H33   H     H_    0.671654 0.659056 0.051466 0.321864
H34   H     H_    0.792107 0.486728 0.866999 0.119757
H35   H     H_    0.328137 0.340680 0.948506 0.313333
H36   H     H_    0.084672 0.612842 0.023769 0.115448
H37   H     H_    0.197410 0.534071 0.989766 0.115971
H38   H     H_    0.206648 0.638853 0.948122 0.140623
H39   H     H_    0.735747 0.411462 0.991457 0.127010
H40   H     H_    0.853533 0.334397 0.962630 0.096854
N1    N     N_1   0.500040 0.499980 0.276710 -0.202237
N2    N     N_1   0.499960 0.500020 0.723290 -0.182733
O1    O     O_R   0.500060 0.380310 0.575320 -0.469705
O2    O     O_3   0.691475 0.333059 0.883762 -0.526035
O3    O     O_3   0.261102 0.736878 0.218877 -0.526140
O4    O     O_3   0.719771 0.234816 0.733377 -0.480962
O5    O     O_3   0.171856 0.698061 0.386822 -0.707785
O6    O     O_3   0.828155 0.293451 0.579922 -0.670970
O7    O     O_3   0.076172 0.417111 0.281086 -0.545969
O8    O     O_3   0.913120 0.557392 0.731665 -0.536493
O9    O     O_3   0.863851 0.575842 0.360154 -0.647501
O10   O     O_3   0.137283 0.420901 0.638247 -0.672645
O11   O     O_3   0.574193 0.083395 0.656650 -0.509441
O12   O     O_R   0.499940 0.619690 0.424680 -0.497661
O13   O     O_3   0.372913 0.915297 0.359937 -0.565665
O14   O     O_3   0.583516 0.911373 0.650591 -0.520253
O15   O     O_3   0.380610 0.089430 0.358747 -0.554430
O16   O     O_3   0.631390 0.621022 0.095355 -0.697330
O17   O     O_3   0.368671 0.378580 0.904616 -0.679516
O18   O     O_R   0.500000 0.380310 0.424640 -0.519176
O19   O     O_R   0.500000 0.619690 0.575360 -0.503085
O20   O     O_R   0.319670 0.500010 0.575340 -0.434982
O21   O     O_R   0.680330 0.499990 0.424660 -0.423298
O22   O     O_R   0.319610 0.500010 0.424650 -0.537317
O23   O     O_R   0.680390 0.499990 0.575350 -0.504359
O24   O     O_3   0.261852 0.623398 0.080690 -0.539068

loop_
_geom_bond_atom_site_label_1
_geom_bond_atom_site_label_2
_ccdc_geom_bond_type
C36   H37   S    
C12   O12   A    
H19   O10   S    
C11   C18   S    
C23   C45   A    
C1    O1    A    
C27   C29   A    
C38   H3    S    
C3    C49   A    
C41   H15   S    
H9    O5    S    
C36   H36   S    
C43   H26   S    
C17   C23   S    
C40   H11   S    
C49   O15   S    
C24   C26   A    
C1    C7    S    
C1    O18   A    
C43   H25   S    
C11   C14   A    
H35   O17   S    
Cu2   O18   S    
C41   O8    S    
C34   C35   A    
C26   C45   S    
C16   C34   S    
C40   O7    S    
C46   H30   S    
C20   O3    S    
C23   C33   A    
C22   C25   A    
C30   H34   S    
C36   O24   S    
C25   C47   S    
C19   N1    T    
C17   O23   A    
Cu2   O22   S    
Cu2   O12   S    
C40   H14   S    
C15   O16   S    
C2    C6    S    
C38   O3    S    
C16   O22   A    
C3    C50   A    
C41   H16   S    
C44   O14   S    
C14   O17   S    
C21   C32   A    
C42   H22   S    
Cu1   O20   S    
C13   C19   S    
Cu1   Cu2   S    
C44   H28   S    
C44   H29   S    
C10   C14   A    
C37   H39   S    
H18   O9    S    
C39   O4    S    
C3    O13   S    
C39   H6    S    
C27   O7    S    
C37   O2    S    
C2    C4    A    
C31   O24   S    
C2    C49   A    
C38   H5    S    
C8    C12   S    
C39   H7    S    
C42   H20   S    
C38   H4    S    
Cu2   N1    S    
C43   O13   S    
C9    C11   A    
C46   H32   S    
C37   H2    S    
C32   O2    S    
C20   C22   A    
H33   O16   S    
C40   H13   S    
C13   C15   A    
C33   C47   A    
H10   O6    S    
C5    C50   S    
C21   C24   A    
C25   C27   A    
C35   C45   A    
C17   O21   A    
C41   H17   S    
C12   O19   A    
C4    C48   A    
Cu2   O21   S    
C36   H38   S    
C43   H24   S    
C42   H21   S    
C22   O5    S    
C37   H40   S    
C33   O9    S    
Cu1   O19   S    
C44   H27   S    
C10   H12   S    
C10   C13   A    
C16   O20   A    
C5    C8    T    
C24   O6    S    
C6    C7    T    
C29   H23   S    
C35   O10   S    
C4    O11   S    
C26   C28   A    
C28   C30   A    
C9    C15   A    
C29   C31   A    
C30   C32   A    
C21   O4    S    
C48   O14   S    
C18   N2    T    
C39   H8    S    
C48   C50   A    
Cu1   O23   S    
C42   O11   S    
Cu1   N2    S    
C46   H31   S    
C28   O8    S    
C9    H1    S    
C46   O15   S    
C34   C47   A    
Cu1   O1    S    
C20   C31   A    
