data_mof_unit_42835.cif
_audit_creation_date              2012-12-10T21:28:58-0500
_audit_creation_method            fapswitch 2.2
_symmetry_space_group_name_H-M    P1
_symmetry_Int_Tables_number       1
_space_group_crystal_system       triclinic
_cell_length_a                    10.681706
_cell_length_b                    16.233074
_cell_length_c                    16.490875
_cell_angle_alpha                 85.637781
_cell_angle_beta                  92.910773
_cell_angle_gamma                 91.427386
_cell_volume                      2846.86885431

loop_
_atom_site_label
_atom_site_type_symbol
_atom_type_description
_atom_site_fract_x
_atom_site_fract_y
_atom_site_fract_z
_atom_type_partial_charge
C1    C     C_R   0.499732 0.487545 0.653189 0.925783
C2    C     C_R   0.527750 0.465047 0.910207 0.170617
C3    C     C_R   0.637705 0.465995 0.866686 0.188516
C4    C     C_R   0.740514 0.499824 0.494286 0.867415
C5    C     C_R   0.628870 0.472691 0.781218 0.045551
C6    C     C_R   0.666236 0.490879 0.151060 0.162750
C7    C     C_R   0.634592 0.476833 0.232740 0.094589
C8    C     C_R   0.591426 0.542807 0.097583 0.161792
C9    C     C_R   0.535845 0.521312 0.261097 -0.147794
C10   C     C_R   0.470120 0.578296 0.208725 -0.308544
C11   C     C_R   0.494345 0.588267 0.126216 0.203940
C12   C     C_R   0.937509 0.430325 0.455938 -0.020835
C13   C     C_R   0.423653 0.761681 0.465673 0.267300
C14   C     C_R   0.427325 0.849842 0.458635 0.012239
C15   C     C_R   0.527430 0.892624 0.498607 0.211007
C16   C     C_R   0.506488 0.512046 0.346666 0.906109
C17   C     C_R   0.619738 0.845670 0.544150 0.054629
C18   C     C_R   0.609557 0.757640 0.551912 0.245930
C19   C     C_R   0.517887 0.145075 0.554927 0.081896
C20   C     C_R   0.535152 0.232273 0.553802 0.257752
C21   C     C_R   0.464890 0.110059 0.484898 0.261850
C22   C     C_R   0.430203 0.249529 0.423676 -0.089556
C23   C     C_R   0.873214 0.501514 0.477669 -0.178546
C24   C     C_R   0.421627 0.163335 0.418527 0.065397
C25   C     C_R   0.260630 0.502008 0.490605 0.891567
C26   C     C_R   0.886142 0.349494 0.450398 -0.239134
C27   C     C_R   0.944892 0.291171 0.407165 0.197778
C28   C     C_R   0.049278 0.317120 0.361763 0.188682
C29   C     C_R   0.109256 0.393837 0.375830 0.131568
C30   C     C_R   0.061446 0.442709 0.434321 0.060728
C31   C     C_3   0.946071 0.734085 0.457762 -0.851079
C32   C     C_3   0.748068 0.476222 0.734473 -0.919165
C33   C     C_3   0.294647 0.454206 0.922385 -0.881442
C34   C     C_R   0.938545 0.579425 0.476137 0.215523
C35   C     C_3   0.286195 0.639475 0.079159 -0.800684
C36   C     C_3   0.269249 0.466206 0.740933 -0.873816
C37   C     C_3   0.609795 0.268373 0.623126 -0.830277
C38   C     C_3   0.550836 0.090966 0.631643 -0.899734
C39   C     C_3   0.726907 0.892361 0.585600 -0.885309
C40   C     C_3   0.698798 0.710572 0.611253 -0.788619
C41   C     C_3   0.327451 0.897111 0.406713 -0.862196
C42   C     C_3   0.367622 0.128567 0.342039 -0.902627
C43   C     C_3   0.314854 0.703309 0.348487 -0.724298
C44   C     C_3   0.873237 0.163688 0.480915 -0.808418
C45   C     C_R   0.067259 0.577667 0.486485 -0.241013
C46   C     C_3   0.018961 0.270932 0.226018 -0.843074
C47   C     C_3   0.202755 0.431090 0.316785 -0.898296
C48   C     C_3   0.653858 0.334813 0.288023 -0.697875
C49   C     C_3   0.880954 0.500458 0.112773 -0.792163
C50   C     C_3   0.788961 0.376105 0.938945 -0.745548
C51   C     C_R   0.128871 0.507521 0.469157 -0.152112
C52   C     C_R   0.508637 0.475861 0.741084 -0.120240
C53   C     C_R   0.397829 0.466983 0.784783 0.113216
C54   C     C_R   0.408320 0.460951 0.870599 0.142039
H1    H     H_    0.396267 0.612361 0.231537 0.168741
H2    H     H_    0.806631 0.422202 0.754471 0.247369
H3    H     H_    0.731528 0.474926 0.667847 0.233280
H4    H     H_    0.289556 0.510677 0.955806 0.248108
H5    H     H_    0.204232 0.446834 0.887693 0.241353
H6    H     H_    0.303552 0.399722 0.967125 0.239028
H7    H     H_    0.447578 0.649926 0.012338 0.237456
H8    H     H_    0.239727 0.674853 0.026156 0.235090
H9    H     H_    0.260728 0.668214 0.134810 0.244529
H10   H     H_    0.250591 0.574490 0.080962 0.241245
H11   H     H_    0.271549 0.472652 0.673724 0.229124
H12   H     H_    0.395305 0.289856 0.373409 0.143129
H13   H     H_    0.219638 0.406739 0.756977 0.241011
H14   H     H_    0.213829 0.518283 0.758843 0.240590
H15   H     H_    0.547551 0.278822 0.673069 0.247666
H16   H     H_    0.685710 0.226700 0.647564 0.206511
H17   H     H_    0.659313 0.325848 0.602920 0.269309
H18   H     H_    0.500610 0.030328 0.633334 0.257758
H19   H     H_    0.653402 0.080851 0.636684 0.241864
H20   H     H_    0.522308 0.120587 0.686138 0.242968
H21   H     H_    0.800970 0.852915 0.615826 0.240439
H22   H     H_    0.773685 0.934716 0.539849 0.243995
H23   H     H_    0.801788 0.328796 0.478419 0.204845
H24   H     H_    0.689459 0.929234 0.632506 0.246561
H25   H     H_    0.692597 0.733399 0.672689 0.207366
H26   H     H_    0.679433 0.644258 0.618355 0.284496
H27   H     H_    0.796265 0.718812 0.592044 0.241163
H28   H     H_    0.372617 0.940633 0.361357 0.254699
H29   H     H_    0.262330 0.858581 0.371254 0.233182
H30   H     H_    0.268000 0.930685 0.445942 0.249275
H31   H     H_    0.347762 0.177842 0.293063 0.226105
H32   H     H_    0.435933 0.086589 0.319059 0.249752
H33   H     H_    0.279263 0.093661 0.354966 0.255934
H34   H     H_    0.119421 0.630963 0.505728 0.182431
H35   H     H_    0.232990 0.739596 0.451921 0.202780
H36   H     H_    0.241460 0.739817 0.313037 0.196092
H37   H     H_    0.289349 0.637461 0.342789 0.231555
H38   H     H_    0.406983 0.718249 0.321800 0.244471
H39   H     H_    0.929888 0.173552 0.362692 0.259219
H40   H     H_    0.834885 0.100967 0.470279 0.244119
H41   H     H_    0.804805 0.194096 0.516468 0.246494
H42   H     H_    0.963976 0.157363 0.516645 0.246275
H43   H     H_    0.187180 0.271149 0.294091 0.235242
H44   H     H_    0.055415 0.226599 0.185376 0.246974
H45   H     H_    0.808763 0.655596 0.412547 0.250308
H46   H     H_    0.024901 0.334098 0.195327 0.243041
H47   H     H_    0.919224 0.254489 0.235971 0.245410
H48   H     H_    0.230646 0.495393 0.328407 0.213230
H49   H     H_    0.287704 0.393966 0.318776 0.240430
H50   H     H_    0.160074 0.433677 0.253953 0.235013
H51   H     H_    0.798340 0.423807 0.284320 0.228817
H52   H     H_    0.704371 0.299111 0.245714 0.200019
H53   H     H_    0.552021 0.332362 0.270429 0.233329
H54   H     H_    0.667536 0.304808 0.350367 0.261391
H55   H     H_    0.785458 0.391467 0.146561 0.229149
H56   H     H_    0.880455 0.786209 0.446536 0.253193
H57   H     H_    0.916890 0.517919 0.173703 0.226408
H58   H     H_    0.862028 0.557137 0.072323 0.259834
H59   H     H_    0.954240 0.465327 0.085787 0.231522
H60   H     H_    0.829374 0.492786 0.884381 0.231866
H61   H     H_    0.880372 0.376698 0.974056 0.233655
H62   H     H_    0.797145 0.337666 0.886601 0.222095
H63   H     H_    0.716877 0.348107 0.979450 0.254061
H64   H     H_    0.012023 0.737170 0.407618 0.241614
H65   H     H_    0.997231 0.741546 0.517146 0.240093
H66   H     H_    0.801800 0.534011 0.745669 0.234669
N1    N     N_2   0.535194 0.472378 0.994807 -0.148610
N2    N     N_2   0.891675 0.209605 0.403452 -0.308174
N3    N     N_2   0.092439 0.266502 0.302408 -0.312196
N4    N     N_2   0.702119 0.419181 0.286701 -0.297942
N5    N     N_2   0.768178 0.449864 0.120254 -0.278168
N6    N     N_2   0.756271 0.459665 0.910417 -0.267687
N7    N     N_2   0.595600 0.535339 0.013621 -0.157165
N8    N     N_R   0.515300 0.716920 0.509720 -0.134008
N9    N     N_2   0.542663 0.981650 0.494710 -0.146927
N10   N     N_2   0.444933 0.022657 0.482818 -0.159876
N11   N     N_R   0.484690 0.283070 0.490290 -0.118764
N12   N     N_2   0.875417 0.656597 0.460031 -0.269464
N13   N     N_2   0.420906 0.642885 0.071718 -0.293834
N14   N     N_2   0.316845 0.719146 0.433678 -0.254300
O1    O     O_R   0.494530 0.422540 0.612660 -0.610859
O2    O     O_R   0.504350 0.561840 0.618900 -0.614946
O3    O     O_R   0.678320 0.430330 0.496880 -0.637570
O4    O     O_R   0.688140 0.569640 0.503120 -0.616429
O5    O     O_R   0.495650 0.438160 0.381100 -0.602264
O6    O     O_R   0.505470 0.577460 0.387340 -0.612511
O7    O     O_R   0.311860 0.430360 0.496880 -0.596065
O8    O     O_R   0.321680 0.569670 0.503120 -0.599936
Zn1   Zn    Zn3+2 0.493440 0.406980 0.495830 0.930392
Zn2   Zn    Zn3+2 0.506560 0.593020 0.504170 0.944794

loop_
_geom_bond_atom_site_label_1
_geom_bond_atom_site_label_2
_ccdc_geom_bond_type
C49   H59   S    
C30   C51   A    
C33   H4    S    
C37   H15   S    
C22   N11   A    
C50   H63   S    
C24   C42   S    
C13   N14   S    
C25   O8    A    
C7    N4    S    
C35   N13   S    
C28   N3    S    
H7    N13   S    
C53   C54   A    
C12   C23   A    
C26   C27   A    
C31   N12   S    
H45   N12   S    
C29   C47   S    
C28   C29   A    
C19   C21   A    
C9    C16   S    
N1    N7    D    
O7    Zn1   S    
H60   N6    S    
C48   H53   S    
C45   C51   A    
C41   H29   S    
C15   C17   A    
C50   H61   S    
C17   C39   S    
C18   C40   S    
C22   H12   S    
C36   C53   S    
C18   N8    A    
C4    O3    A    
C13   N8    A    
O5    Zn1   S    
C48   H52   S    
C19   C20   A    
C40   H26   S    
C5    C52   A    
C35   H10   S    
C42   H32   S    
C39   H21   S    
C1    O2    A    
C9    C10   A    
C49   H57   S    
C5    C32   S    
O1    Zn1   S    
C46   H44   S    
C34   N12   S    
C33   H5    S    
C47   H48   S    
C13   C14   A    
C16   O6    A    
C32   H3    S    
C32   H66   S    
C27   N2    S    
C46   H47   S    
C38   H18   S    
C36   H13   S    
C26   H23   S    
C47   H49   S    
C43   H36   S    
C39   H24   S    
C45   H34   S    
H39   N2    S    
C2    C54   A    
C34   C45   A    
C4    C23   S    
C36   H11   S    
C6    C8    A    
C41   H30   S    
C43   H37   S    
H51   N4    S    
C12   C26   A    
C43   N14   S    
C25   C51   S    
C31   H64   S    
C29   C30   A    
C44   H42   S    
C19   C38   S    
C8    N7    S    
C15   N9    S    
C23   C34   A    
C17   C18   A    
C40   H25   S    
C42   H31   S    
C39   H22   S    
C10   H1    S    
N8    Zn2   S    
C31   H65   S    
C14   C41   S    
C50   N6    S    
C47   H50   S    
H55   N5    S    
C33   H6    S    
C49   H58   S    
C22   C24   A    
C46   N3    S    
C16   O5    A    
C3    N6    S    
C20   N11   A    
O8    Zn2   S    
N11   Zn1   S    
C52   C53   A    
N9    N10   D    
C38   H20   S    
C2    N1    S    
C33   C54   S    
C7    C9    A    
C46   H46   S    
H35   N14   S    
C12   C30   A    
C40   H27   S    
C25   O7    A    
O6    Zn2   S    
C6    N5    S    
C3    C5    A    
C48   N4    S    
C36   H14   S    
C6    C7    A    
C49   N5    S    
C43   H38   S    
C37   H17   S    
C2    C3    A    
H43   N3    S    
C44   H41   S    
O4    Zn2   S    
C20   C37   S    
C48   H54   S    
C8    C11   A    
C41   H28   S    
C11   N13   S    
C44   N2    S    
C31   H56   S    
C35   H8    S    
C50   H62   S    
O3    Zn1   S    
C1    C52   S    
C21   N10   S    
C44   H40   S    
C10   C11   A    
C4    O4    A    
O2    Zn2   S    
C21   C24   A    
C1    O1    A    
C27   C28   A    
C14   C15   A    
C35   H9    S    
C42   H33   S    
C37   H16   S    
C32   H2    S    
C38   H19   S    
