data_mof_unit_20390.cif
_audit_creation_date              2012-12-10T16:53:09-0500
_audit_creation_method            fapswitch 2.2
_symmetry_space_group_name_H-M    P1
_symmetry_Int_Tables_number       1
_space_group_crystal_system       triclinic
_cell_length_a                    10.803917
_cell_length_b                    10.935908
_cell_length_c                    9.701536
_cell_angle_alpha                 90.188408
_cell_angle_beta                  87.638428
_cell_angle_gamma                 91.177872
_cell_volume                      1145.02377794

loop_
_atom_site_label
_atom_site_type_symbol
_atom_type_description
_atom_site_fract_x
_atom_site_fract_y
_atom_site_fract_z
_atom_type_partial_charge
C1    C     C_R   0.502553 0.265711 0.499453 0.855875
C2    C     C_R   0.061341 0.606640 0.575974 0.013458
C3    C     C_R   0.127789 0.508093 0.513168 -0.029127
C4    C     C_R   0.065006 0.415172 0.443266 -0.170771
C5    C     C_R   0.937394 0.416097 0.437366 -0.168641
C6    C     C_R   0.872373 0.516545 0.487855 -0.021420
C7    C     C_2   0.477187 0.935429 0.389947 0.404801
C8    C     C_2   0.463806 0.865019 0.504521 0.063556
C9    C     C_2   0.461508 0.068429 0.398073 -0.239769
C10   C     C_2   0.513109 0.134632 0.497226 -0.236694
C11   C     C_2   0.427453 0.428988 0.926513 0.368410
C12   C     C_R   0.262300 0.505039 0.503705 0.825992
C13   C     C_2   0.434029 0.423616 0.081122 -0.093931
C14   C     C_R   0.488609 0.734047 0.500812 0.902406
C15   C     C_R   0.737787 0.506216 0.496790 0.820187
C16   C     C_R   0.112645 0.695083 0.667112 0.378085
C17   C     C_R   0.046906 0.801857 0.699439 -0.361702
C18   C     C_R   0.935629 0.825593 0.637049 0.420824
C19   C     C_R   0.882685 0.735492 0.554451 0.212362
C20   C     C_R   0.936401 0.619096 0.541506 -0.112501
Cu1   Cu    Cu3+1 0.500020 0.500020 0.638630 1.058410
Cu2   Cu    Cu3+1 0.499980 0.499980 0.361370 1.012741
H1    H     H_    0.114964 0.339416 0.396927 0.153545
H2    H     H_    0.565802 0.092540 0.576598 0.202919
H3    H     H_    0.566824 0.550496 0.890839 0.179109
H4    H     H_    0.378554 0.353824 0.135433 0.180162
H5    H     H_    0.546067 0.569183 0.103740 0.217201
H6    H     H_    0.085956 0.869649 0.767741 0.183183
H7    H     H_    0.889183 0.338597 0.392751 0.153962
H8    H     H_    0.414915 0.112940 0.315233 0.165382
N1    N     N_2   0.498640 0.498660 0.846910 -0.287083
N2    N     N_2   0.498610 0.498630 0.153040 -0.291159
O1    O     O_R   0.500020 0.321960 0.617040 -0.536667
O2    O     O_R   0.499980 0.321920 0.382900 -0.593159
O3    O     O_R   0.319670 0.500020 0.617100 -0.482882
O4    O     O_R   0.319630 0.499980 0.382950 -0.596518
O5    O     O_R   0.500020 0.678080 0.617100 -0.538040
O6    O     O_R   0.499980 0.678040 0.382960 -0.517733
O7    O     O_R   0.680370 0.500020 0.617050 -0.581983
O8    O     O_R   0.680330 0.499980 0.382900 -0.556421
Br1   Br    Br    0.305549 0.321317 0.850738 -0.426505
O9    O     O_3   0.220975 0.673331 0.732022 -0.673822
H9    H     H_    0.233485 0.735339 0.805176 0.358968
O10   O     O_3   0.878471 0.936917 0.652235 -0.673048
H10   H     H_    0.928305 0.990601 0.712209 0.337178
Br2   Br    Br    0.772053 0.790170 0.419745 -0.435764
O11   O     O_3   0.507486 0.883166 0.263180 -0.680229
H11   H     H_    0.515858 0.948789 0.192867 0.343538
Br3   Br    Br    0.394897 0.925737 0.678650 -0.506683

loop_
_geom_bond_atom_site_label_1
_geom_bond_atom_site_label_2
_ccdc_geom_bond_type
H3    N1    S    
Cu1   O3    S    
C18   O10   S    
C12   O4    A    
C2    C16   A    
C9    C10   D    
C13   N2    D    
C19   C20   A    
Cu1   O7    S    
Cu2   O8    S    
C15   O8    A    
Cu1   N1    S    
C2    C3    A    
C6    C15   S    
C19   Br2   S    
C11   N1    D    
C7    C8    D    
Cu1   Cu2   S    
C14   O5    A    
C11   C13   S    
C15   O7    A    
Cu2   N2    S    
C9    H8    S    
C1    O2    A    
C11   Br1   S    
C5    H7    S    
C5    C6    A    
Cu2   O2    S    
C13   H4    S    
Cu1   O1    S    
O9    H9    S    
C1    O1    A    
C14   O6    A    
Cu2   O6    S    
O11   H11   S    
C16   O9    S    
C6    C20   A    
O10   H10   S    
Cu1   O5    S    
C17   C18   A    
C18   C19   A    
C7    C9    S    
C4    H1    S    
C16   C17   A    
C8    C14   S    
C3    C12   S    
C10   H2    S    
H5    N2    S    
C17   H6    S    
C2    C20   A    
C8    Br3   S    
Cu2   O4    S    
C1    C10   S    
C3    C4    A    
C4    C5    A    
C12   O3    A    
C7    O11   S    
