data_mof_unit_38485.cif
_audit_creation_date              2012-12-11T14:38:22-0500
_audit_creation_method            fapswitch 2.2
_symmetry_space_group_name_H-M    P1
_symmetry_Int_Tables_number       1
_space_group_crystal_system       monoclinic
_cell_length_a                    19.803519
_cell_length_b                    11.113475
_cell_length_c                    19.644243
_cell_angle_alpha                 90.0
_cell_angle_beta                  95.451243
_cell_angle_gamma                 90.0
_cell_volume                      4303.86805681

loop_
_atom_site_label
_atom_site_type_symbol
_atom_type_description
_atom_site_fract_x
_atom_site_fract_y
_atom_site_fract_z
_atom_type_partial_charge
C1    C     C_R   0.708105 0.994197 0.366479 0.558260
C2    C     C_3   0.167349 0.518829 0.482994 0.222973
C3    C     C_3   0.332651 0.018829 0.517006 0.222974
C4    C     C_3   0.667349 0.018795 0.482996 0.221089
C5    C     C_3   0.783516 0.322519 0.551531 0.274310
C6    C     C_3   0.216465 0.322532 0.448469 0.273828
C7    C     C_3   0.283535 0.822532 0.551531 0.273828
C8    C     C_3   0.716484 0.822519 0.448469 0.274310
C9    C     C_3   0.778511 0.459881 0.560622 -0.030492
C10   C     C_3   0.221482 0.459893 0.439376 -0.026718
C11   C     C_3   0.278517 0.959893 0.560624 -0.026718
C12   C     C_R   0.291897 0.994203 0.633522 0.556527
C13   C     C_3   0.721489 0.959881 0.439378 -0.030492
C14   C     C_3   0.752913 0.407607 0.431154 -0.004314
C15   C     C_3   0.247081 0.407616 0.568844 -0.005206
C16   C     C_3   0.252919 0.907616 0.431156 -0.005206
C17   C     C_3   0.747087 0.907606 0.568846 -0.004315
C18   C     C_3   0.814120 0.494298 0.439718 0.194542
C19   C     C_3   0.185877 0.494320 0.560280 0.193425
C20   C     C_3   0.314123 0.994320 0.439720 0.193424
C21   C     C_3   0.685880 0.994298 0.560281 0.194544
C22   C     C_3   0.774782 0.296189 0.475689 -0.219147
C23   C     C_R   0.208102 0.494203 0.366478 0.556528
C24   C     C_3   0.225203 0.296201 0.524311 -0.219074
C25   C     C_3   0.274797 0.796201 0.475689 -0.219074
C26   C     C_3   0.725218 0.796188 0.524311 -0.219147
C27   C     C_3   0.520472 0.296762 0.956612 0.242886
C28   C     C_3   0.553531 0.289699 0.029421 0.197101
C29   C     C_3   0.946469 0.789699 0.970579 0.197099
C30   C     C_3   0.979528 0.796762 0.043388 0.242881
C31   C     C_3   0.427589 0.163100 0.989609 0.048343
C32   C     C_3   0.564659 0.059506 0.024571 0.038482
C33   C     C_3   0.935341 0.559506 0.975429 0.038483
C34   C     C_R   0.791895 0.494197 0.633521 0.558258
C35   C     C_3   0.072411 0.663100 0.010391 0.048344
C36   C     C_3   0.537951 0.073332 0.947027 0.060981
C37   C     C_3   0.458273 0.151482 0.063644 0.110039
C38   C     C_3   0.041727 0.651482 0.936356 0.110039
C39   C     C_3   0.962049 0.573332 0.052973 0.060989
C40   C     C_R   0.535708 0.180423 0.338379 0.582270
C41   C     C_R   0.464521 0.180398 0.661791 0.578441
C42   C     C_R   0.035479 0.680398 0.338209 0.578439
C43   C     C_R   0.964292 0.680423 0.661621 0.582269
C44   C     C_3   0.483591 0.175915 0.937327 -0.076731
C45   C     C_3   0.689543 0.465817 0.457320 0.223387
C46   C     C_3   0.535342 0.169915 0.065605 -0.096216
C47   C     C_3   0.964658 0.669915 0.934394 -0.096215
C48   C     C_3   0.016409 0.675915 0.062673 -0.076728
C49   C     C_1   0.760853 0.427906 0.904045 0.076095
C50   C     C_1   0.249263 0.397865 0.105540 0.191601
C51   C     C_1   0.250737 0.897865 0.894460 0.191602
C52   C     C_1   0.739147 0.927906 0.095954 0.076058
C53   C     C_1   0.747769 0.406843 0.034430 0.163681
C54   C     C_1   0.268670 0.359961 0.976340 0.067123
C55   C     C_1   0.231329 0.859961 0.023659 0.067123
C56   C     C_3   0.310454 0.465811 0.542674 0.222881
C57   C     C_1   0.752231 0.906843 0.965570 0.163687
C58   C     C_1   0.752530 0.416969 0.963600 0.094144
C59   C     C_1   0.261540 0.375185 0.047392 0.146621
C60   C     C_1   0.238459 0.875185 0.952607 0.146621
C61   C     C_1   0.747470 0.916969 0.036400 0.094123
C62   C     C_1   0.743563 0.391551 0.094555 0.184156
C63   C     C_1   0.271039 0.345562 0.915299 0.110813
C64   C     C_1   0.228961 0.845562 0.084701 0.110814
C65   C     C_1   0.756437 0.891551 0.905445 0.184166
C66   C     C_R   0.739659 0.363760 0.360330 0.606338
C67   C     C_3   0.189546 0.965811 0.457326 0.222881
C68   C     C_R   0.260339 0.363763 0.639671 0.609793
C69   C     C_R   0.239661 0.863763 0.360329 0.609793
C70   C     C_R   0.760341 0.863760 0.639670 0.606339
C71   C     C_R   0.722336 0.954330 0.163501 0.555738
C72   C     C_R   0.274591 0.945441 0.832178 0.613071
C73   C     C_R   0.225409 0.445441 0.167822 0.613070
C74   C     C_R   0.777664 0.454330 0.836499 0.555744
C75   C     C_R   0.562474 0.181208 0.137152 0.580528
C76   C     C_R   0.450748 0.181509 0.865064 0.611175
C77   C     C_R   0.049252 0.681509 0.134936 0.611177
C78   C     C_3   0.810457 0.965817 0.542680 0.223387
C79   C     C_R   0.937526 0.681209 0.862848 0.580525
C80   C     C_R   0.735889 0.357278 0.163567 0.593361
C81   C     C_R   0.275666 0.316129 0.843997 0.600162
C82   C     C_R   0.224334 0.816129 0.156003 0.600162
C83   C     C_R   0.764111 0.857278 0.836433 0.593367
C84   C     C_1   0.486365 0.173758 0.594707 0.118334
C85   C     C_1   0.513845 0.173787 0.405449 0.108499
C86   C     C_1   0.986155 0.673787 0.594551 0.108500
C87   C     C_1   0.013635 0.673758 0.405293 0.118333
C88   C     C_1   0.503896 0.171573 0.464851 0.107852
C89   C     C_3   0.832651 0.518795 0.517004 0.221090
C90   C     C_1   0.496298 0.171558 0.535299 0.109232
C91   C     C_1   0.003702 0.671558 0.464701 0.109232
C92   C     C_1   0.996104 0.671573 0.535148 0.107853
C93   C     C_3   0.703496 0.490628 0.533629 -0.284838
C94   C     C_3   0.296500 0.490623 0.466365 -0.285062
C95   C     C_3   0.203500 0.990623 0.533635 -0.285062
C96   C     C_3   0.796503 0.990628 0.466371 -0.284838
Cr1   Cr    Cr6+3 0.765780 0.160710 0.267420 1.068188
Cr2   Cr    Cr6+3 0.383970 0.323720 0.751490 1.158219
Cr3   Cr    Cr6+3 0.116030 0.823720 0.248510 1.158216
Cr4   Cr    Cr6+3 0.883970 0.823720 0.751490 1.140970
Cr5   Cr    Cr6+3 0.234220 0.160710 0.732580 1.085542
Cr6   Cr    Cr6+3 0.265780 0.660710 0.267420 1.085542
Cr7   Cr    Cr6+3 0.734220 0.660710 0.732580 1.068193
Cr8   Cr    Cr6+3 0.612200 0.009560 0.248850 1.193626
Cr9   Cr    Cr6+3 0.387800 0.009560 0.751150 1.153045
Cr10  Cr    Cr6+3 0.112200 0.509560 0.248850 1.153042
Cr11  Cr    Cr6+3 0.887800 0.509560 0.751150 1.193634
Cr12  Cr    Cr6+3 0.616030 0.323720 0.248510 1.140966
F1    F     F_    0.895804 0.468702 0.535937 -0.588493
F2    F     F_    0.366240 0.390027 0.553096 -0.634359
F3    F     F_    0.133760 0.890027 0.446904 -0.634359
F4    F     F_    0.866248 0.890045 0.553104 -0.633633
F5    F     F_    0.300535 0.098703 0.403381 -0.693334
F6    F     F_    0.699467 0.098684 0.596615 -0.687585
F7    F     F_    0.800533 0.598684 0.403385 -0.687587
F8    F     F_    0.199465 0.598703 0.596619 -0.693334
F9    F     F_    0.844938 0.273836 0.578679 -0.549102
F10   F     F_    0.155036 0.273867 0.421328 -0.550935
F11   F     F_    0.344964 0.773867 0.578672 -0.550934
F12   F     F_    0.104187 0.468772 0.464059 -0.588473
F13   F     F_    0.655062 0.773836 0.421320 -0.549103
F14   F     F_    0.395813 0.968772 0.535941 -0.588473
F15   F     F_    0.604196 0.968702 0.464063 -0.588493
F16   F     F_    0.475426 0.393161 0.951556 -0.623783
F17   F     F_    0.622839 0.296445 0.028343 -0.699710
F18   F     F_    0.877161 0.796445 0.971657 -0.699712
F19   F     F_    0.024574 0.893161 0.048444 -0.623793
F20   F     F_    0.633752 0.390045 0.446895 -0.633633
H1    H     H_    0.688635 0.581678 0.545265 0.129518
H2    H     H_    0.141426 0.452654 0.581903 0.218091
H3    H     H_    0.358574 0.952654 0.418097 0.218091
H4    H     H_    0.641432 0.952630 0.581909 0.216340
H5    H     H_    0.559730 0.317030 0.921470 0.254520
H6    H     H_    0.537437 0.370982 0.056645 0.249992
H7    H     H_    0.962563 0.870982 0.943355 0.249989
H8    H     H_    0.940270 0.817030 0.078530 0.254520
H9    H     H_    0.396625 0.246420 0.985050 0.203563
H10   H     H_    0.620606 0.068308 0.031223 0.197985
H11   H     H_    0.879394 0.568308 0.968777 0.197985
H12   H     H_    0.311368 0.581672 0.454730 0.130013
H13   H     H_    0.103375 0.746420 0.014950 0.203563
H14   H     H_    0.512645 0.989679 0.928717 0.228861
H15   H     H_    0.454227 0.058639 0.082791 0.248738
H16   H     H_    0.045773 0.558639 0.917209 0.248739
H17   H     H_    0.987354 0.489679 0.071283 0.228865
H18   H     H_    0.668259 0.434988 0.561553 0.202270
H19   H     H_    0.331731 0.434972 0.438439 0.198774
H20   H     H_    0.168269 0.934972 0.561561 0.198774
H21   H     H_    0.831740 0.934988 0.438447 0.202270
H22   H     H_    0.677299 0.551001 0.429355 0.249593
H23   H     H_    0.188632 0.081672 0.545270 0.130013
H24   H     H_    0.322704 0.550996 0.570637 0.249222
H25   H     H_    0.177296 0.050996 0.429363 0.249222
H26   H     H_    0.822700 0.051001 0.570645 0.249593
H27   H     H_    0.340591 0.115340 0.526298 0.151709
H28   H     H_    0.659399 0.115303 0.473700 0.151615
H29   H     H_    0.840601 0.615303 0.526300 0.151615
H30   H     H_    0.159409 0.615340 0.473702 0.151709
H31   H     H_    0.742970 0.279654 0.577562 0.217612
H32   H     H_    0.257003 0.279653 0.422432 0.214794
H33   H     H_    0.242997 0.779653 0.577568 0.214794
H34   H     H_    0.811365 0.081679 0.454735 0.129518
H35   H     H_    0.757030 0.779654 0.422437 0.217612
H36   H     H_    0.738223 0.224691 0.464990 0.089873
H37   H     H_    0.261758 0.224699 0.535005 0.089612
H38   H     H_    0.238242 0.724699 0.464994 0.089613
H39   H     H_    0.761777 0.724691 0.535010 0.089873
H40   H     H_    0.404151 0.252753 0.230637 0.365096
H41   H     H_    0.578228 0.930326 0.828410 0.361254
H42   H     H_    0.921765 0.430338 0.171602 0.361262
H43   H     H_    0.095847 0.752757 0.769363 0.365096
H44   H     H_    0.601209 0.733336 0.038408 0.387233
H45   H     H_    0.825215 0.266304 0.461526 0.199207
H46   H     H_    0.267068 0.116140 0.974663 0.361655
H47   H     H_    0.232932 0.616140 0.025337 0.361656
H48   H     H_    0.898831 0.233313 0.961655 0.387246
H49   H     H_    0.174772 0.266315 0.538478 0.199342
H50   H     H_    0.325228 0.766315 0.461522 0.199342
H51   H     H_    0.674785 0.766304 0.538474 0.199207
H52   H     H_    0.858568 0.452630 0.418090 0.216339
O1    O     O_R   0.783100 0.287550 0.345460 -0.553158
O2    O     O_R   0.454350 0.284910 0.836260 -0.446488
O3    O     O_R   0.045650 0.784910 0.163740 -0.446490
O4    O     O_R   0.954350 0.784910 0.836260 -0.441962
O5    O     O_R   0.677950 0.374280 0.185410 -0.507858
O6    O     O_R   0.322050 0.374280 0.814590 -0.482417
O7    O     O_R   0.177950 0.874280 0.185410 -0.482419
O8    O     O_R   0.822050 0.874280 0.814590 -0.507855
O9    O     O_3   0.664670 0.164660 0.254930 -0.360975
O10   O     O_3   0.335330 0.164660 0.745070 -0.356060
O11   O     O_3   0.164670 0.664660 0.254930 -0.356059
O12   O     O_R   0.216900 0.287550 0.654540 -0.550459
O13   O     O_3   0.835330 0.664660 0.745070 -0.360980
O14   O     O_R   0.760020 0.037400 0.337700 -0.528296
O15   O     O_R   0.239980 0.037400 0.662300 -0.540545
O16   O     O_R   0.260020 0.537400 0.337700 -0.540545
O17   O     O_R   0.739980 0.537400 0.662300 -0.528296
O18   O     O_R   0.666600 0.921990 0.332020 -0.374515
O19   O     O_R   0.333400 0.921990 0.667980 -0.386060
O20   O     O_R   0.166600 0.421990 0.332020 -0.386060
O21   O     O_R   0.833400 0.421990 0.667980 -0.374515
O22   O     O_R   0.557260 0.082670 0.312540 -0.462707
O23   O     O_R   0.283100 0.787550 0.345460 -0.550459
O24   O     O_R   0.442740 0.082670 0.687460 -0.482223
O25   O     O_R   0.057260 0.582670 0.312540 -0.482225
O26   O     O_R   0.942740 0.582670 0.687460 -0.462709
O27   O     O_R   0.548410 0.285740 0.316480 -0.457733
O28   O     O_R   0.451590 0.285740 0.683520 -0.459989
O29   O     O_R   0.048410 0.785740 0.316480 -0.459989
O30   O     O_R   0.951590 0.785740 0.683520 -0.457734
O31   O     O_R   0.680500 0.375040 0.327000 -0.432411
O32   O     O_R   0.319500 0.375040 0.673000 -0.431527
O33   O     O_R   0.180500 0.875040 0.327000 -0.431527
O34   O     O_R   0.716900 0.787550 0.654540 -0.553156
O35   O     O_R   0.819500 0.875040 0.673000 -0.432410
O36   O     O_R   0.780350 0.286720 0.192720 -0.478064
O37   O     O_R   0.219650 0.286720 0.807280 -0.456547
O38   O     O_R   0.280350 0.786720 0.192720 -0.456547
O39   O     O_R   0.719650 0.786720 0.807280 -0.478058
O40   O     O_R   0.757470 0.036630 0.196110 -0.500367
O41   O     O_R   0.242530 0.036630 0.803890 -0.487396
O42   O     O_R   0.257470 0.536630 0.196110 -0.487396
O43   O     O_R   0.742530 0.536630 0.803890 -0.500375
O44   O     O_R   0.663840 0.921160 0.179280 -0.448429
O45   O     O_R   0.554710 0.081900 0.170950 -0.436602
O46   O     O_R   0.336160 0.921160 0.820720 -0.443555
O47   O     O_R   0.163840 0.421160 0.179280 -0.443556
O48   O     O_R   0.836160 0.421160 0.820720 -0.448404
O49   O     O_2   0.411876 0.366046 0.108689 -0.286942
O50   O     O_2   0.336360 0.190386 0.109933 -0.289903
O51   O     O_3   0.433838 0.203148 0.204019 -0.462098
O52   O     O_2   0.587228 0.167279 0.831172 -0.274347
O53   O     O_2   0.669951 0.131875 0.928860 -0.268396
O54   O     O_3   0.618581 0.947334 0.860741 -0.500240
O55   O     O_2   0.912772 0.667280 0.168827 -0.274357
O56   O     O_R   0.445290 0.081900 0.829050 -0.472232
O57   O     O_2   0.830049 0.631875 0.071139 -0.268402
O58   O     O_3   0.881420 0.447334 0.139259 -0.500263
O59   O     O_2   0.088125 0.866047 0.891311 -0.286945
O60   O     O_2   0.163640 0.690386 0.890067 -0.289901
O61   O     O_3   0.066162 0.703148 0.795981 -0.462099
O62   O     O_2   0.544376 0.879717 0.124346 -0.220994
O63   O     O_2   0.483961 0.853028 0.014187 -0.199883
O64   O     O_3   0.611457 0.816353 0.024180 -0.522710
O65   O     O_2   0.395238 0.949979 0.931857 -0.237277
O66   O     O_2   0.351805 0.986566 0.040615 -0.258951
O67   O     O_R   0.054710 0.581900 0.170950 -0.472231
O68   O     O_3   0.298127 0.109633 0.938145 -0.623672
O69   O     O_2   0.104762 0.449980 0.068143 -0.237276
O70   O     O_2   0.148195 0.486566 0.959385 -0.258949
O71   O     O_3   0.201873 0.609634 0.061855 -0.623672
O72   O     O_2   0.955624 0.379716 0.875654 -0.220945
O73   O     O_2   0.016039 0.353030 0.985813 -0.199942
O74   O     O_3   0.888543 0.316353 0.975819 -0.522717
O75   O     O_R   0.945290 0.581900 0.829050 -0.436608
O76   O     O_R   0.545650 0.284910 0.163740 -0.441962
S1    S     S_3+6 0.408350 0.232973 0.121621 0.023691
S2    S     S_3+6 0.605587 0.085729 0.891139 -0.003030
S3    S     S_3+6 0.894413 0.585729 0.108860 -0.003040
S4    S     S_3+6 0.091650 0.732973 0.878379 0.023691
S5    S     S_3+6 0.548490 0.901491 0.049651 0.015892
S6    S     S_3+6 0.368330 0.045230 0.975269 -0.029481
S7    S     S_3+6 0.131670 0.545230 0.024731 -0.029479
S8    S     S_3+6 0.951510 0.401492 0.950349 0.015888

loop_
_geom_bond_atom_site_label_1
_geom_bond_atom_site_label_2
_ccdc_geom_bond_type
Cr1   O14   S    
Cr4   O35   S    
C8    C13   S    
O61   S4    S    
C87   C91   T    
C25   H38   S    
C94   H12   S    
C14   C18   S    
C1    O18   A    
C66   O31   A    
C47   C79   S    
Cr2   O10   S    
Cr5   O12   S    
C45   C93   S    
C71   O40   A    
Cr10  O25   S    
Cr3   O7    S    
C93   H18   S    
H46   O68   S    
Cr8   O45   S    
C80   O36   A    
Cr4   O13   S    
C56   C94   S    
O51   S1    S    
C33   S8    S    
C28   C46   S    
C33   C39   S    
C73   O42   A    
C63   C81   S    
C31   S6    S    
C28   H6    S    
C17   C26   S    
C32   C36   S    
C30   C48   S    
Cr4   O8    S    
C37   S1    S    
Cr11  O21   S    
C52   C61   T    
C20   F5    S    
C76   O2    A    
C8    F13   S    
C65   C83   S    
C54   C63   T    
C10   C94   S    
C45   F20   S    
Cr5   O41   S    
C18   H52   S    
C89   F1    S    
C16   C25   S    
C8    C26   S    
C79   O4    A    
C42   O25   A    
C45   H22   S    
Cr7   O17   S    
C35   S7    S    
C4    C13   S    
C44   C76   S    
C43   O30   A    
C36   H14   S    
O49   S1    D    
Cr11  O26   S    
C74   O48   A    
Cr7   O43   S    
C27   C44   S    
C12   O19   A    
C5    C22   S    
C78   C96   S    
C5    H31   S    
Cr1   O36   S    
C78   F4    S    
C23   O16   A    
O57   S3    D    
Cr4   O4    S    
C80   O5    A    
C36   S2    S    
Cr10  O67   S    
C31   H9    S    
O53   S2    D    
Cr3   O3    S    
O66   S6    D    
C3    F14   S    
C50   C59   T    
C27   C28   S    
C19   H2    S    
Cr1   O9    S    
H42   O58   S    
C40   O27   A    
O74   S8    S    
C17   C70   S    
C72   O46   A    
C29   F18   S    
H43   O61   S    
C43   O26   A    
C67   C95   S    
C18   C89   S    
Cr2   O28   S    
C32   H10   S    
C7    H33   S    
C84   C90   T    
Cr10  O11   S    
Cr12  O27   S    
C93   H1    S    
C35   C48   S    
Cr5   O15   S    
C56   F2    S    
C46   C75   S    
C7    C11   S    
C14   C45   S    
O68   S6    S    
C54   C59   S    
C26   H39   S    
C37   C46   S    
H41   O54   S    
C95   H20   S    
C13   C96   S    
C27   H5    S    
C7    F11   S    
O59   S4    D    
C75   O45   A    
C35   C38   S    
C69   O33   A    
C75   O76   A    
C31   C44   S    
C50   C73   S    
C9    C89   S    
C91   C92   S    
C73   O47   A    
C2    F12   S    
C25   H50   S    
C78   H26   S    
Cr9   O24   S    
O63   S5    D    
Cr3   O33   S    
C6    F10   S    
C26   H51   S    
C41   C84   S    
Cr2   O32   S    
C74   O43   A    
C17   C21   S    
C49   C58   T    
C31   C37   S    
C4    F15   S    
C5    F9    S    
C77   O67   A    
C70   O34   A    
C40   C85   S    
Cr2   O2    S    
C15   C19   S    
Cr6   O23   S    
C51   C60   T    
C21   H4    S    
C5    C9    S    
C29   C30   S    
C22   H36   S    
C53   C62   T    
Cr12  O5    S    
H47   O71   S    
C82   O38   A    
O50   S1    D    
C79   O75   A    
C62   C80   S    
C16   C20   S    
C6    C24   S    
C55   C64   T    
C39   H17   S    
C48   C77   S    
C3    H27   S    
Cr6   O11   S    
C14   C66   S    
Cr1   O40   S    
Cr11  O75   S    
O58   S3    S    
C76   O56   A    
C16   C67   S    
Cr9   O46   S    
O69   S7    D    
C41   O24   A    
Cr1   O1    S    
Cr7   O34   S    
C64   C82   S    
C38   C47   S    
C27   F16   S    
C42   O29   A    
C72   O41   A    
C35   H13   S    
O60   S4    D    
O73   S8    D    
C67   F3    S    
C15   C24   S    
C4    H28   S    
C66   O1    A    
C29   C47   S    
Cr5   O10   S    
C30   H8    S    
Cr7   O39   S    
C9    C34   S    
C89   H29   S    
Cr9   O56   S    
O72   S8    D    
Cr12  O9    S    
C36   C44   S    
C1    C13   S    
C51   C72   S    
C70   O35   A    
C20   H3    S    
C39   S3    S    
C2    C10   S    
O55   S3    D    
C9    C93   S    
C81   O6    A    
Cr11  O13   S    
Cr12  O31   S    
C28   F17   S    
Cr6   O42   S    
Cr10  O20   S    
Cr3   O29   S    
C85   C88   T    
C11   C95   S    
C94   H19   S    
O54   S2    S    
C30   F19   S    
C88   C90   S    
C71   O44   A    
C37   H15   S    
C29   H7    S    
C2    C19   S    
C49   C74   S    
C43   C86   S    
C32   C46   S    
Cr9   O10   S    
C16   C69   S    
C40   O22   A    
C21   F6    S    
C8    H35   S    
C38   S4    S    
C18   F7    S    
C6    C10   S    
C6    H32   S    
C53   C58   S    
Cr11  O48   S    
C57   C61   S    
C81   O37   A    
C42   C87   S    
C10   C23   S    
Cr7   O13   S    
C15   C68   S    
C7    C25   S    
C82   O7    A    
C67   H25   S    
C15   C56   S    
C14   C22   S    
C41   O28   A    
C24   H37   S    
C38   H16   S    
Cr6   O16   S    
Cr2   O6    S    
C52   C71   S    
C3    C20   S    
H40   O51   S    
Cr3   O11   S    
C4    C21   S    
C34   O17   A    
C19   F8    S    
C33   H11   S    
C33   C47   S    
C96   H21   S    
C23   O20   A    
Cr4   O30   S    
C17   C78   S    
C12   O15   A    
O62   S5    D    
C96   H34   S    
C1    O14   A    
O52   S2    D    
C32   S5    S    
C83   O8    A    
O65   S6    D    
O70   S7    D    
C3    C11   S    
Cr6   O38   S    
Cr8   O18   S    
H48   O74   S    
Cr5   O37   S    
Cr9   O19   S    
C95   H23   S    
C2    H30   S    
H44   O64   S    
C69   O23   A    
C22   H45   S    
C83   O39   A    
O71   S7    S    
C24   H49   S    
C68   O12   A    
Cr10  O47   S    
C86   C92   T    
O64   S5    S    
C34   O21   A    
C56   H24   S    
C55   C60   S    
Cr8   O9    S    
Cr8   O44   S    
Cr12  O76   S    
C77   O3    A    
C11   C12   S    
Cr8   O22   S    
C39   C48   S    
C57   C65   T    
C68   O32   A    
