data_mof_unit_53465.cif
_audit_creation_date              2012-12-11T15:34:57-0500
_audit_creation_method            fapswitch 2.2
_symmetry_space_group_name_H-M    P1
_symmetry_Int_Tables_number       1
_space_group_crystal_system       triclinic
_cell_length_a                    30.709731
_cell_length_b                    7.249245
_cell_length_c                    25.749633
_cell_angle_alpha                 90.244256
_cell_angle_beta                  111.908968
_cell_angle_gamma                 89.76619
_cell_volume                      5318.36731145

loop_
_atom_site_label
_atom_site_type_symbol
_atom_type_description
_atom_site_fract_x
_atom_site_fract_y
_atom_site_fract_z
_atom_type_partial_charge
O1    O     O_R   0.295360 0.592990 0.320420 -0.506784
O2    O     O_R   0.704640 0.407010 0.679580 -0.511172
O3    O     O_R   0.204640 0.092990 0.179580 -0.506022
O4    O     O_R   0.795360 0.907010 0.820420 -0.510078
O5    O     O_R   0.294060 0.265620 0.213230 -0.492898
O6    O     O_R   0.705940 0.734380 0.786770 -0.516989
O7    O     O_R   0.205940 0.765620 0.286770 -0.492279
O8    O     O_R   0.794060 0.234380 0.713230 -0.517156
C1    C     C_R   0.303624 0.431584 0.198643 0.743803
C2    C     C_R   0.696890 0.568300 0.801733 0.787658
C3    C     C_R   0.196311 0.932486 0.301287 0.743161
C4    C     C_R   0.803165 0.067426 0.698325 0.787775
O9    O     O_R   0.300850 0.263360 0.322080 -0.558350
O10   O     O_R   0.699150 0.736640 0.677920 -0.547951
O11   O     O_R   0.199150 0.763360 0.177920 -0.558561
O12   O     O_R   0.800850 0.236640 0.822080 -0.548592
O13   O     O_R   0.211480 0.091820 0.289210 -0.540634
O14   O     O_R   0.788520 0.908180 0.710790 -0.542415
O15   O     O_R   0.288520 0.591820 0.210790 -0.540042
O16   O     O_R   0.711480 0.408180 0.789210 -0.542089
C5    C     C_R   0.313117 0.430733 0.343550 0.759240
C6    C     C_R   0.686662 0.568973 0.656674 0.730999
C7    C     C_R   0.186878 0.930568 0.156461 0.759909
C8    C     C_R   0.813295 0.069142 0.843362 0.731863
O17   O     O_3   0.220670 0.426670 0.239090 -0.371564
O18   O     O_3   0.779330 0.573330 0.760910 -0.376330
O19   O     O_3   0.279330 0.926670 0.260910 -0.371534
O20   O     O_3   0.720670 0.073330 0.739090 -0.376204
V1    V     V_3+5 0.255440 0.152290 0.252020 1.568329
V2    V     V_3+5 0.744560 0.847710 0.747980 1.502775
V3    V     V_3+5 0.244560 0.652290 0.247980 1.567423
V4    V     V_3+5 0.755440 0.347710 0.752020 1.500447
C9    C     C_R   0.850851 0.069679 0.900374 -0.115566
C10   C     C_R   0.148557 0.928420 0.100005 -0.081636
C11   C     C_R   0.648983 0.568963 0.599773 -0.115550
C12   C     C_R   0.351398 0.429080 0.400033 -0.081079
C13   C     C_R   0.879079 0.194258 0.995708 0.415788
C14   C     C_R   0.117862 0.797305 0.005343 0.417363
C15   C     C_R   0.620660 0.690181 0.504277 0.418212
C16   C     C_R   0.382036 0.300166 0.494744 0.412535
C17   C     C_R   0.841520 0.155048 0.944750 -0.057113
C18   C     C_R   0.156365 0.838177 0.055106 -0.054279
C19   C     C_R   0.658252 0.651889 0.555264 -0.058075
C20   C     C_R   0.343558 0.340522 0.444917 -0.055466
C21   C     C_R   0.897007 0.007450 0.909111 0.069984
C22   C     C_R   0.102496 0.989749 0.092818 0.058170
C23   C     C_R   0.602866 0.507974 0.591196 0.069227
C24   C     C_R   0.397441 0.489430 0.407295 0.058527
C25   C     C_R   0.934082 0.038525 0.962241 0.001564
C26   C     C_R   0.064280 0.955050 0.040736 0.001446
C27   C     C_R   0.565742 0.538247 0.538063 0.001006
C28   C     C_R   0.435614 0.455535 0.459455 0.002445
C29   C     C_R   0.925751 0.165859 0.999272 -0.053703
C30   C     C_R   0.071770 0.825289 0.003634 -0.055715
C31   C     C_R   0.574020 0.663685 0.500873 -0.054006
C32   C     C_R   0.428147 0.327143 0.496567 -0.054959
C33   C     C_R   0.979880 0.957207 0.979338 0.062916
C34   C     C_R   0.018236 0.035076 0.024497 0.065066
C35   C     C_R   0.519979 0.457677 0.521013 0.063252
C36   C     C_R   0.481606 0.534968 0.475750 0.065199
C37   C     C_R   0.010121 0.200782 0.047815 -0.201790
C38   C     C_R   0.987451 0.789827 0.956583 -0.203633
C39   C     C_R   0.489651 0.699585 0.452325 -0.201777
C40   C     C_R   0.512482 0.291278 0.543841 -0.201628
C41   C     C_R   0.964571 0.265560 0.036645 0.157547
C42   C     C_R   0.032726 0.723278 0.967791 0.165890
C43   C     C_R   0.535178 0.763226 0.463418 0.157627
C44   C     C_R   0.467240 0.225383 0.532534 0.162904
H1    H     H_    0.039273 0.284364 0.073766 0.150480
H2    H     H_    0.957976 0.707217 0.930763 0.150446
H3    H     H_    0.460469 0.783089 0.426292 0.150374
H4    H     H_    0.541991 0.208742 0.569731 0.150204
C45   C     C_R   0.083482 0.108512 0.467164 0.734025
C46   C     C_R   0.922163 0.887996 0.540316 0.724946
C47   C     C_R   0.417060 0.610221 0.034567 0.715731
C48   C     C_R   0.582059 0.408022 0.964145 0.743760
N1    N     N_R   0.070661 0.999513 0.420513 -0.585480
N2    N     N_R   0.931023 0.014551 0.582347 -0.569436
N3    N     N_R   0.428159 0.489025 0.078040 -0.582456
N4    N     N_R   0.570808 0.526994 0.920094 -0.565321
C49   C     C_R   0.030725 0.896220 0.404228 0.723627
C50   C     C_R   0.967387 0.135639 0.594229 0.728081
C51   C     C_R   0.466611 0.377289 0.091697 0.711362
C52   C     C_R   0.532189 0.638125 0.906070 0.716669
C53   C     C_R   0.003923 0.883732 0.438555 -0.142133
C54   C     C_R   0.998924 0.124501 0.565649 -0.164695
C55   C     C_R   0.494528 0.374107 0.058612 -0.145893
C56   C     C_R   0.504440 0.642997 0.939464 -0.185511
C57   C     C_R   0.014895 0.006440 0.484849 -0.073568
C58   C     C_R   0.986962 0.007942 0.518021 -0.066023
C59   C     C_R   0.484702 0.504041 0.014701 -0.060268
C60   C     C_R   0.514360 0.514515 0.983690 -0.025551
C61   C     C_R   0.053855 0.127399 0.498011 -0.164289
C62   C     C_R   0.946933 0.893052 0.503612 -0.165312
C63   C     C_R   0.444065 0.617330 0.000188 -0.141954
C64   C     C_R   0.555217 0.402749 0.998606 -0.159859
C65   C     C_R   0.965688 0.758870 0.427006 0.358994
C66   C     C_R   0.040425 0.232143 0.581453 0.346098
C67   C     C_R   0.532597 0.249288 0.069047 0.373304
C68   C     C_R   0.466975 0.770249 0.929657 0.301355
C69   C     C_R   0.933617 0.784360 0.454120 0.336260
C70   C     C_R   0.063377 0.254280 0.543345 0.371362
C71   C     C_R   0.566716 0.284676 0.045856 0.306324
C72   C     C_R   0.433015 0.737871 0.953424 0.387251
O21   O     O_2   0.125849 0.190412 0.484830 -0.423684
O22   O     O_2   0.890463 0.754578 0.535544 -0.445138
O23   O     O_2   0.381491 0.729393 0.027018 -0.431275
O24   O     O_2   0.617460 0.287668 0.971942 -0.445320
O25   O     O_2   0.016514 0.811507 0.354010 -0.440225
O26   O     O_2   0.971342 0.271573 0.631548 -0.453415
O27   O     O_2   0.478982 0.277657 0.139107 -0.449198
O28   O     O_2   0.519835 0.737532 0.858630 -0.436414
C73   C     C_R   0.912087 0.969243 0.666974 -0.027219
C74   C     C_R   0.102198 0.114250 0.351101 -0.025598
C75   C     C_R   0.589021 0.472392 0.835057 -0.005642
C76   C     C_R   0.397480 0.606999 0.148307 -0.021929
H5    H     H_    0.946706 0.911792 0.688818 0.172214
H6    H     H_    0.078764 0.231863 0.342705 0.154928
H7    H     H_    0.554816 0.410764 0.814210 0.180649
H8    H     H_    0.421000 0.723751 0.156612 0.149469
C77   C     C_R   0.880194 0.981338 0.694127 -0.259451
C78   C     C_R   0.132757 0.094799 0.322372 -0.178739
C79   C     C_R   0.620569 0.481474 0.807382 -0.262064
C80   C     C_R   0.367093 0.590046 0.177256 -0.180414
H9    H     H_    0.890935 0.931999 0.736661 0.145846
H10   H     H_    0.131751 0.198021 0.291656 0.175841
H11   H     H_    0.609890 0.426901 0.765298 0.148052
H12   H     H_    0.368299 0.694238 0.208033 0.175479
C81   C     C_R   0.835013 0.056385 0.666941 -0.188275
C82   C     C_R   0.164002 0.943924 0.332610 -0.196444
C83   C     C_R   0.665397 0.559957 0.833536 -0.191014
C84   C     C_R   0.335745 0.440422 0.167125 -0.197609
C85   C     C_R   0.821738 0.114656 0.610442 0.387746
C86   C     C_R   0.163810 0.811290 0.373163 0.368849
C87   C     C_R   0.678649 0.625398 0.889437 0.391066
C88   C     C_R   0.335691 0.306212 0.126538 0.370486
C89   C     C_R   0.854056 0.100428 0.583851 -0.082165
C90   C     C_R   0.132200 0.831071 0.400619 -0.109670
C91   C     C_R   0.646520 0.616125 0.916285 -0.089095
C92   C     C_R   0.367100 0.323566 0.098816 -0.114059
H13   H     H_    0.844070 0.144381 0.540763 0.205822
H14   H     H_    0.131701 0.730800 0.431385 0.219343
H15   H     H_    0.656530 0.665499 0.958950 0.205442
H16   H     H_    0.367435 0.222139 0.067975 0.213679
C93   C     C_R   0.899104 0.028987 0.611597 0.253366
C94   C     C_R   0.101674 0.981739 0.390199 0.257802
C95   C     C_R   0.601871 0.540573 0.889714 0.248199
C96   C     C_R   0.397641 0.473328 0.109000 0.258203
C97   C     C_3   0.959777 0.456157 0.057847 -0.599858
H17   H     H_    0.924040 0.513828 0.036841 0.233941
H18   H     H_    0.969198 0.453661 0.103837 0.260498
H19   H     H_    0.984016 0.552446 0.048675 0.167072
C98   C     C_3   0.037083 0.529867 0.948191 -0.608657
H20   H     H_    0.072978 0.473119 0.968739 0.234674
H21   H     H_    0.013375 0.436295 0.959284 0.167187
H22   H     H_    0.026534 0.526602 0.902031 0.256165
C99   C     C_3   0.539940 0.952684 0.441992 -0.600518
H23   H     H_    0.575662 0.009927 0.462967 0.234101
H24   H     H_    0.530566 0.948456 0.396015 0.260055
H25   H     H_    0.515666 0.050296 0.451022 0.167077
C100  C     C_3   0.463000 0.032607 0.552138 -0.602159
H26   H     H_    0.427154 0.976063 0.531540 0.233889
H27   H     H_    0.486809 0.938217 0.541109 0.166489
H28   H     H_    0.473494 0.030388 0.598291 0.259494
S1    S     S_3+6 0.765485 0.198703 0.568619 0.019959
O29   O     O_2   0.771182 0.389133 0.549373 -0.298803
O30   O     O_2   0.745821 0.076641 0.517931 -0.283347
O31   O     O_3   0.727865 0.204646 0.602020 -0.534142
H29   H     H_    0.696794 0.229587 0.572408 0.362299
S2    S     S_3+6 0.204165 0.625999 0.394034 -0.000813
O32   O     O_2   0.203354 0.537411 0.446368 -0.302865
O33   O     O_2   0.191012 0.483868 0.348187 -0.338083
O34   O     O_3   0.258625 0.703259 0.406044 -0.513695
H30   H     H_    0.266254 0.784884 0.439180 0.347536
S3    S     S_3+6 0.734948 0.709662 0.930703 0.021287
O35   O     O_2   0.729351 0.901920 0.949261 -0.300362
O36   O     O_2   0.754707 0.590394 0.981827 -0.279754
O37   O     O_3   0.772450 0.710547 0.897160 -0.533658
H31   H     H_    0.803655 0.733478 0.926729 0.361133
S4    S     S_3+6 0.295270 0.121854 0.105931 0.000427
O38   O     O_2   0.295891 0.031208 0.053570 -0.298463
O39   O     O_2   0.308513 0.980910 0.151856 -0.338794
O40   O     O_3   0.240872 0.201008 0.094094 -0.514051
H32   H     H_    0.233020 0.280407 0.060613 0.347796
C101  C     C_3   0.093799 0.053881 0.144400 -0.746863
H33   H     H_    0.105813 0.198425 0.154734 0.206574
H34   H     H_    0.056565 0.040655 0.139567 0.235922
H35   H     H_    0.112982 0.965434 0.180951 0.175820
C102  C     C_3   0.907241 0.947447 0.858290 -0.753769
H36   H     H_    0.944952 0.956109 0.864974 0.233946
H37   H     H_    0.894074 0.805359 0.845689 0.208190
H38   H     H_    0.889813 0.042411 0.822862 0.176855
C103  C     C_3   0.406193 0.551546 0.355735 -0.748176
H39   H     H_    0.394118 0.696080 0.345303 0.206648
H40   H     H_    0.443453 0.537399 0.360656 0.235722
H41   H     H_    0.387096 0.462402 0.319213 0.175990
C104  C     C_3   0.592759 0.449427 0.642083 -0.748592
H42   H     H_    0.555065 0.459357 0.635484 0.235550
H43   H     H_    0.605852 0.307053 0.654472 0.207437
H44   H     H_    0.610312 0.544166 0.677677 0.177592
C105  C     C_3   0.204782 0.769515 0.061051 -0.456144
H45   H     H_    0.203467 0.619043 0.052531 0.180423
H46   H     H_    0.217212 0.841854 0.031559 0.294924
H47   H     H_    0.232048 0.790796 0.103028 0.214800
C106  C     C_3   0.792414 0.226218 0.934082 -0.452852
H48   H     H_    0.787745 0.360556 0.912397 0.199040
H49   H     H_    0.765581 0.130384 0.906682 0.207827
H50   H     H_    0.784590 0.246020 0.972177 0.294172
C107  C     C_3   0.295130 0.273236 0.438907 -0.454166
H51   H     H_    0.296469 0.123031 0.447516 0.180460
H52   H     H_    0.282614 0.347109 0.468290 0.295395
H53   H     H_    0.267902 0.293894 0.396884 0.214478
C108  C     C_3   0.707535 0.718919 0.565674 -0.460586
H54   H     H_    0.713546 0.849989 0.589511 0.199208
H55   H     H_    0.733893 0.617590 0.591001 0.212142
H56   H     H_    0.714673 0.743838 0.527417 0.294304
S5    S     S_3+6 0.867667 0.234879 0.057879 0.075637
O41   O     O_2   0.911040 0.205515 0.109358 -0.292364
O42   O     O_2   0.850085 0.428851 0.057583 -0.282318
O43   O     O_3   0.826522 0.085916 0.060131 -0.439083
H57   H     H_    0.818200 0.128306 0.091877 0.413049
S6    S     S_3+6 0.127567 0.746981 0.942415 0.040356
O44   O     O_2   0.146137 0.553670 0.944913 -0.317952
O45   O     O_2   0.083115 0.767161 0.891730 -0.301327
O46   O     O_3   0.166992 0.895504 0.935530 -0.464131
H58   H     H_    0.173970 0.848575 0.903277 0.404258
S7    S     S_3+6 0.631923 0.727261 0.441953 0.073760
O47   O     O_2   0.588530 0.696198 0.390620 -0.293306
O48   O     O_2   0.649217 0.920845 0.441737 -0.283365
O49   O     O_3   0.673257 0.577263 0.439986 -0.440173
H59   H     H_    0.681462 0.617757 0.408094 0.412771
S8    S     S_3+6 0.372248 0.251853 0.557604 0.054143
O50   O     O_2   0.353787 0.058918 0.555080 -0.312628
O51   O     O_2   0.416634 0.272386 0.608357 -0.291699
O52   O     O_3   0.332693 0.401525 0.564374 -0.460366
H60   H     H_    0.325720 0.355779 0.596626 0.411302
S9    S     S_3+6 0.961557 0.553240 0.386524 0.159490
O53   O     O_2   0.936677 0.404044 0.404923 -0.281875
O54   O     O_2   0.934884 0.593972 0.325641 -0.211461
O55   O     O_3   0.015146 0.473651 0.394456 -0.469817
H61   H     H_    0.009412 0.355598 0.373490 0.357941
S10   S     S_3+6 0.069295 0.305270 0.652504 0.183990
O56   O     O_2   0.121400 0.317956 0.667553 -0.230588
O57   O     O_2   0.050735 0.490862 0.660720 -0.247742
O58   O     O_3   0.059435 0.151509 0.695652 -0.461295
H62   H     H_    0.073115 0.207926 0.733385 0.396325
S11   S     S_3+6 0.532310 0.028874 0.099702 0.125744
O59   O     O_2   0.556936 0.887363 0.077595 -0.297427
O60   O     O_2   0.556523 0.042133 0.162240 -0.219046
O61   O     O_3   0.476667 0.959249 0.083894 -0.498897
H63   H     H_    0.478413 0.867608 0.113025 0.360020
S12   S     S_3+6 0.468774 0.991649 0.900174 0.162702
O62   O     O_2   0.444260 0.983100 0.837640 -0.188926
O63   O     O_2   0.445343 0.135146 0.923198 -0.283958
O64   O     O_3   0.524703 0.056185 0.915348 -0.469023
H64   H     H_    0.541452 0.020374 0.954927 0.330973
S13   S     S_3+6 0.873853 0.714666 0.419267 0.201029
O65   O     O_2   0.861442 0.699902 0.357179 -0.217474
O66   O     O_2   0.866341 0.530806 0.441392 -0.241173
O67   O     O_3   0.837908 0.872149 0.430592 -0.453404
H65   H     H_    0.806408 0.814685 0.416029 0.406100
S14   S     S_3+6 0.097588 0.457879 0.548074 0.144011
O68   O     O_2   0.091367 0.525617 0.490700 -0.311076
O69   O     O_2   0.082702 0.609756 0.577829 -0.278425
O70   O     O_3   0.154664 0.409660 0.583343 -0.400995
H66   H     H_    0.171444 0.525004 0.582143 0.403826
S15   S     S_3+6 0.625597 0.208024 0.082857 0.196965
O71   O     O_2   0.634081 0.172304 0.143292 -0.215862
O72   O     O_2   0.634491 0.033482 0.056574 -0.253500
O73   O     O_3   0.663476 0.371803 0.080410 -0.441937
H67   H     H_    0.694822 0.312752 0.096188 0.407427
S16   S     S_3+6 0.374712 0.822758 0.917643 0.202152
O74   O     O_2   0.367347 0.994757 0.946226 -0.243923
O75   O     O_2   0.366230 0.865998 0.857634 -0.225953
O76   O     O_3   0.335607 0.661521 0.918204 -0.445162
H68   H     H_    0.304723 0.724408 0.903152 0.400590

loop_
_geom_bond_atom_site_label_1
_geom_bond_atom_site_label_2
_ccdc_geom_bond_type
O17   V3    S    
C104  H44   S    
C67   C71   A    
C47   O23   S    
C99   H23   S    
C55   C59   A    
C24   C103  S    
O19   V1    S    
C9    C21   A    
C105  H45   S    
C46   C62   A    
O3    C7    A    
O76   H68   S    
C10   C18   A    
C13   S5    S    
C85   C89   A    
C88   C92   A    
C67   S11   S    
C11   C23   A    
C92   C96   A    
S14   O70   S    
C100  H26   S    
C101  H33   S    
C47   C63   A    
C33   C38   A    
S3    O36   D    
C5    C12   S    
C27   C31   A    
O34   H30   S    
S4    O38   D    
S5    O43   S    
O1    C5    A    
C6    C11   S    
C56   C68   A    
C91   C95   A    
C35   C40   A    
C52   O28   S    
C36   C39   A    
C50   O26   S    
C89   C93   A    
C14   C18   A    
C24   C28   A    
C83   C87   A    
C97   H18   S    
O4    C8    A    
S15   O73   S    
O37   H31   S    
C84   C88   A    
C1    C84   S    
S2    O32   D    
C104  H42   S    
C37   H1    S    
C75   C95   A    
O1    V3    S    
C107  H53   S    
O13   V1    S    
C31   C43   A    
C38   H2    S    
O2    V4    S    
S13   O65   D    
C73   C93   A    
C102  H37   S    
C2    C83   S    
O55   H61   S    
C28   C36   A    
N2    C93   S    
C91   H15   S    
C1    O15   A    
C68   C72   A    
C15   C31   A    
C56   C60   A    
C62   C69   A    
C2    O16   A    
S16   O74   D    
C103  H40   S    
C66   C70   A    
C69   S13   S    
O2    C6    A    
S10   O57   D    
O52   H60   S    
C70   S14   S    
C49   O25   S    
C10   C22   A    
C45   C61   A    
C16   S8    S    
C11   C19   A    
O70   H66   S    
S5    O42   D    
C15   S7    S    
S4    O40   S    
N4    C52   A    
C80   H12   S    
C13   C29   A    
C7    C10   S    
C34   C37   A    
O11   C7    A    
O15   V3    S    
C35   C36   A    
C48   O24   S    
O58   H62   S    
C41   C97   S    
C105  H46   S    
S1    O30   D    
C82   C86   A    
O10   V2    S    
O43   H57   S    
C100  H27   S    
C80   C84   A    
S4    O39   D    
C88   S4    S    
C58   C62   A    
S3    O37   S    
O5    V1    S    
S11   O60   D    
C60   C64   A    
S13   O67   S    
C39   C43   A    
S11   O61   S    
S10   O58   S    
O7    V3    S    
C4    C81   S    
C38   C42   A    
C26   C34   A    
C17   C106  S    
C52   C56   A    
C75   C79   A    
C74   C94   A    
C107  H51   S    
C54   C58   A    
C97   H19   S    
C18   C105  S    
C59   C60   A    
C76   C96   A    
C53   C57   A    
O18   V4    S    
C101  H35   S    
C15   C19   A    
S6    O46   S    
C16   C32   A    
S5    O41   D    
C108  H54   S    
C106  H50   S    
O6    V2    S    
C57   C61   A    
C76   H8    S    
S13   O66   D    
O8    V4    S    
C78   H10   S    
C102  H38   S    
O7    C3    A    
O40   H32   S    
C72   S16   S    
C77   H9    S    
C85   S1    S    
C46   O22   S    
N2    C50   A    
S16   O75   D    
C45   O21   S    
S7    O47   D    
C14   C30   A    
C21   C25   A    
O8    C4    A    
C103  H41   S    
C65   C69   A    
C79   C83   A    
S7    O49   S    
S8    O51   D    
O46   H58   S    
O9    C5    A    
C43   C99   S    
C26   C30   A    
S15   O71   D    
C98   H22   S    
S6    O45   D    
C51   C55   A    
C74   H6    S    
S12   O64   S    
C73   H5    S    
C106  H48   S    
C21   C102  S    
O31   H29   S    
S7    O48   D    
C39   H3    S    
C103  H39   S    
S1    O31   S    
C75   H7    S    
S9    O54   D    
C90   H14   S    
O14   V2    S    
C105  H47   S    
C81   C85   A    
C12   C20   A    
C98   H21   S    
C86   S2    S    
C99   H24   S    
O64   H64   S    
C19   C108  S    
C3    C82   S    
C40   C44   A    
C79   H11   S    
C100  H28   S    
C29   C41   A    
C63   C72   A    
S12   O63   D    
O16   V4    S    
C108  H56   S    
O9    V1    S    
C89   H13   S    
C3    O13   A    
C76   C80   A    
S10   O56   D    
C92   H16   S    
C77   C81   A    
O67   H65   S    
C68   S12   S    
N4    C95   S    
C61   C70   A    
C86   C90   A    
C42   C98   S    
C23   C27   A    
C48   N4    A    
O11   V3    S    
S14   O68   D    
C30   C42   A    
C99   H25   S    
O12   V4    S    
C73   C77   A    
C65   S9    S    
C22   C26   A    
C8    C9    S    
C20   C107  S    
C87   C91   A    
C32   C44   A    
C14   S6    S    
C104  H43   S    
O61   H63   S    
C108  H55   S    
C9    C17   A    
O49   H59   S    
S3    O35   D    
C50   C54   A    
C97   H17   S    
C48   C64   A    
N3    C51   A    
S15   O72   D    
O10   C6    A    
C33   C34   A    
C25   C33   A    
S2    O33   D    
C44   C100  S    
C90   C94   A    
S16   O76   S    
C25   C29   A    
S9    O53   D    
N1    C94   S    
O20   V2    S    
S8    O50   D    
C107  H52   S    
C12   C24   A    
N3    C96   S    
C51   O27   S    
C40   H4    S    
C22   C101  S    
C13   C17   A    
C102  H36   S    
C54   C66   A    
O4    V2    S    
C66   S10   S    
C101  H34   S    
O6    C2    A    
S8    O52   S    
C71   S15   S    
C74   C78   A    
C55   C67   A    
C37   C41   A    
S1    O29   D    
C16   C20   A    
S14   O69   D    
C27   C35   A    
C59   C63   A    
O12   C8    A    
N1    C49   A    
C46   N2    A    
S9    O55   S    
C4    O14   A    
C45   N1    A    
O73   H67   S    
C23   C104  S    
O3    V1    S    
O5    C1    A    
C57   C58   A    
C64   C71   A    
C106  H49   S    
C47   N3    A    
S6    O44   D    
C78   C82   A    
C49   C53   A    
C53   C65   A    
C28   C32   A    
S11   O59   D    
C87   S3    S    
S12   O62   D    
C98   H20   S    
S2    O34   S    
