data_mof_unit_41175.cif
_audit_creation_date              2012-10-26T18:28:13-0400
_audit_creation_method            fapswitch 2.2
_symmetry_space_group_name_H-M    P1
_symmetry_Int_Tables_number       1
_space_group_crystal_system       triclinic
_cell_length_a                    27.813746
_cell_length_b                    11.02934
_cell_length_c                    9.814039
_cell_angle_alpha                 111.068171
_cell_angle_beta                  97.991886
_cell_angle_gamma                 91.070571
_cell_volume                      2774.39976342

loop_
_atom_site_label
_atom_site_type_symbol
_atom_type_description
_atom_site_fract_x
_atom_site_fract_y
_atom_site_fract_z
_atom_type_partial_charge
C1    C     C_R   0.496484 0.254107 0.440669 0.564508
C2    C     C_R   0.869978 0.390748 0.469558 0.023435
C3    C     C_R   0.354701 0.499441 0.504599 -0.007935
C4    C     C_R   0.645338 0.501070 0.495697 -0.007780
C5    C     C_R   0.972379 0.389867 0.487418 0.019183
C6    C     C_R   0.027735 0.616886 0.511160 0.019812
C7    C     C_R   0.976841 0.620662 0.515737 0.003618
C8    C     C_R   0.024029 0.391760 0.503918 0.003237
C9    C     C_R   0.949100 0.506021 0.498801 0.029988
C10   C     C_R   0.051372 0.503336 0.509907 0.029836
C11   C     C_R   0.943003 0.274602 0.457517 -0.146093
C12   C     C_R   0.503516 0.745893 0.559331 0.564620
C13   C     C_R   0.055881 0.722692 0.505913 -0.144745
C14   C     C_R   0.892917 0.275417 0.449420 -0.115081
C15   C     C_R   0.105712 0.719797 0.507637 -0.114994
C16   C     C_R   0.407503 0.499854 0.501469 0.553375
C17   C     C_R   0.592505 0.500167 0.498549 0.553646
C18   C     C_R   0.049203 0.285784 0.517145 -0.120265
C19   C     C_R   0.952943 0.736383 0.538561 -0.120473
C20   C     C_2   0.494568 0.114794 0.407187 -0.122038
C21   C     C_2   0.505434 0.885206 0.592813 -0.121938
C22   C     C_2   0.500905 0.069561 0.516642 -0.155071
C23   C     C_R   0.102706 0.501497 0.514053 -0.039550
C24   C     C_2   0.499102 0.930439 0.483358 -0.155058
C25   C     C_2   0.504193 0.510505 0.081217 -0.024740
C26   C     C_2   0.495812 0.489483 0.918782 -0.024911
C27   C     C_R   0.178268 0.393884 0.518562 0.389001
C28   C     C_R   0.822738 0.618584 0.507807 0.388782
C29   C     C_R   0.179864 0.608858 0.514672 0.388939
C30   C     C_R   0.819580 0.391643 0.466192 0.389317
C31   C     C_R   0.286896 0.531924 0.641804 -0.066030
C32   C     C_R   0.713450 0.481386 0.361120 -0.065089
C33   C     C_R   0.336847 0.531710 0.639274 -0.150494
C34   C     C_R   0.897706 0.507125 0.493407 -0.039590
C35   C     C_R   0.663448 0.480028 0.363047 -0.149960
C36   C     C_R   0.321713 0.466379 0.372336 -0.118410
C37   C     C_R   0.678123 0.523743 0.626448 -0.118132
C38   C     C_R   0.271428 0.465731 0.373908 0.045518
C39   C     C_R   0.728427 0.525435 0.625413 0.044910
C40   C     C_R   0.254103 0.499531 0.510112 0.266084
C41   C     C_R   0.746012 0.503863 0.491382 0.266497
C42   C     C_3   0.236579 0.428306 0.231092 -0.371382
C43   C     C_3   0.763051 0.550389 0.766487 -0.371467
C44   C     C_3   0.122286 0.163230 0.537434 -0.342981
C45   C     C_R   0.127198 0.390856 0.518697 0.031490
C46   C     C_3   0.881446 0.870270 0.560924 -0.343401
C47   C     C_R   0.874016 0.623693 0.511930 0.031275
C48   C     C_R   0.099721 0.283017 0.523846 -0.003975
C49   C     C_R   0.902586 0.739930 0.536217 -0.005045
C50   C     C_R   0.129551 0.610968 0.513012 0.023772
Cu1   Cu    Cu3+1 0.508480 0.521810 0.644910 0.943919
Cu2   Cu    Cu3+1 0.491520 0.478190 0.355090 0.944306
H1    H     H_    0.335073 0.440501 0.267677 0.132705
H2    H     H_    0.361446 0.557443 0.742788 0.133749
H3    H     H_    0.727031 0.464900 0.258197 0.123492
H4    H     H_    0.273529 0.557554 0.746372 0.124589
H5    H     H_    0.872174 0.184434 0.427434 0.161957
H6    H     H_    0.125503 0.803698 0.503563 0.161182
H7    H     H_    0.957462 0.180643 0.435542 0.103216
H8    H     H_    0.040377 0.808405 0.495823 0.101020
H9    H     H_    0.030177 0.204175 0.527132 0.105839
H10   H     H_    0.973180 0.827917 0.563594 0.106235
H11   H     H_    0.492525 0.864665 0.368257 0.157274
H12   H     H_    0.664601 0.540363 0.729540 0.133140
H13   H     H_    0.507484 0.135336 0.631742 0.157306
H14   H     H_    0.256019 0.401847 0.134047 0.119334
H15   H     H_    0.211987 0.343112 0.218126 0.152996
H16   H     H_    0.214466 0.511095 0.231389 0.162819
H17   H     H_    0.743426 0.566253 0.861925 0.118310
H18   H     H_    0.785195 0.465567 0.754961 0.159009
H19   H     H_    0.787631 0.638545 0.790846 0.155575
H20   H     H_    0.094996 0.091821 0.544671 0.091709
H21   H     H_    0.139418 0.112017 0.438569 0.184029
H22   H     H_    0.149495 0.191264 0.639702 0.179235
H23   H     H_    0.512025 0.951270 0.707715 0.106168
H24   H     H_    0.909665 0.949264 0.578375 0.095108
H25   H     H_    0.855098 0.864582 0.462472 0.182833
H26   H     H_    0.863638 0.899864 0.661277 0.180871
H27   H     H_    0.487974 0.048729 0.292285 0.105994
H28   H     H_    0.467484 0.417200 0.845966 0.147621
H29   H     H_    0.532525 0.582777 0.154031 0.146782
H30   H     H_    0.547905 0.622536 0.934274 0.203851
H31   H     H_    0.452092 0.377473 0.065728 0.203875
H32   H     H_    0.639022 0.462486 0.260739 0.132502
N1    N     N_R   0.202836 0.501075 0.515466 -0.397419
N2    N     N_R   0.797334 0.504467 0.486978 -0.397557
N3    N     N_2   0.478780 0.445430 0.137360 -0.352715
N4    N     N_2   0.521220 0.554570 0.862640 -0.353160
O1    O     O_R   0.504520 0.332330 0.577400 -0.496315
O2    O     O_2   0.798014 0.725684 0.525219 -0.512958
O3    O     O_2   0.792854 0.280771 0.443733 -0.499140
O4    O     O_2   0.205799 0.713486 0.514438 -0.500104
O5    O     O_R   0.495480 0.667670 0.422600 -0.496222
O6    O     O_R   0.490210 0.295500 0.332650 -0.487740
O7    O     O_R   0.509790 0.704500 0.667350 -0.487602
O8    O     O_R   0.437420 0.518430 0.622370 -0.499243
O9    O     O_R   0.562580 0.481570 0.377630 -0.499013
O10   O     O_R   0.423110 0.481600 0.377610 -0.494918
O11   O     O_R   0.576890 0.518400 0.622390 -0.495254
O12   O     O_2   0.203549 0.291152 0.519747 -0.513402

loop_
_geom_bond_atom_site_label_1
_geom_bond_atom_site_label_2
_ccdc_geom_bond_type
H31   N3    S    
C28   C47   A    
C23   C45   A    
C16   O10   A    
C46   H24   S    
C47   C49   A    
C13   H8    S    
C41   N2    S    
C46   C49   S    
C38   C42   S    
C11   C14   A    
C3    C33   A    
C19   H10   S    
Cu2   O9    S    
C25   N3    D    
C31   C40   A    
C15   C50   A    
C27   N1    A    
C36   H1    S    
C1    O6    A    
C43   H19   S    
C32   C41   A    
C31   C33   A    
C12   O7    A    
Cu2   O6    S    
C31   H4    S    
C30   N2    A    
C32   H3    S    
C29   N1    A    
Cu1   O8    S    
C27   C45   A    
C4    C35   A    
C43   H17   S    
C25   H29   S    
C11   H7    S    
C29   C50   A    
Cu1   O11   S    
C27   O12   S    
C16   O8    A    
Cu1   Cu2   S    
C32   C35   A    
C39   C41   A    
C46   H26   S    
C23   C50   A    
C39   C43   S    
C25   C26   S    
C12   C21   S    
C26   H28   S    
C40   N1    S    
C22   H13   S    
C5    C9    A    
C5    C8    A    
C19   C49   A    
Cu2   O5    S    
C44   H22   S    
C17   O11   A    
C4    C17   S    
C8    C10   A    
C20   C22   D    
C43   H18   S    
C7    C19   A    
C13   C15   A    
C28   N2    A    
C9    C34   A    
C15   H6    S    
C22   C24   S    
C12   O5    A    
C37   H12   S    
C45   C48   A    
C33   H2    S    
C7    C9    A    
C14   H5    S    
C1    C20   S    
C1    O1    A    
C20   H27   S    
Cu2   N3    S    
C30   O3    S    
C18   C48   A    
Cu1   N4    S    
C6    C10   A    
C46   H25   S    
C35   H32   S    
C18   H9    S    
C5    C11   A    
C6    C7    A    
C10   C23   A    
C24   H11   S    
C21   H23   S    
C2    C30   A    
C36   C38   A    
C37   C39   A    
Cu1   O1    S    
C6    C13   A    
C38   C40   A    
C2    C34   A    
C42   H15   S    
C3    C36   A    
H30   N4    S    
Cu2   O10   S    
C44   H20   S    
C42   H16   S    
C44   H21   S    
C2    C14   A    
C8    C18   A    
C4    C37   A    
C26   N4    D    
C21   C24   D    
C42   H14   S    
C28   O2    S    
C34   C47   A    
C17   O9    A    
C29   O4    S    
C3    C16   S    
C44   C48   S    
Cu1   O7    S    
