data_mof_unit_10228.cif
_audit_creation_date              2012-12-10T17:46:16-0500
_audit_creation_method            fapswitch 2.2
_symmetry_space_group_name_H-M    P1
_symmetry_Int_Tables_number       1
_space_group_crystal_system       triclinic
_cell_length_a                    14.150057
_cell_length_b                    10.643197
_cell_length_c                    9.929968
_cell_angle_alpha                 89.889452
_cell_angle_beta                  89.931732
_cell_angle_gamma                 91.601971
_cell_volume                      1494.88305183

loop_
_atom_site_label
_atom_site_type_symbol
_atom_type_description
_atom_site_fract_x
_atom_site_fract_y
_atom_site_fract_z
_atom_type_partial_charge
C1    C     C_R   0.502439 0.260677 0.500150 0.837319
C2    C     C_1   0.772189 0.500075 0.499890 -0.161392
C3    C     C_R   0.658601 0.136570 0.630186 -0.275105
C4    C     C_R   0.731451 0.073577 0.693369 -0.211289
C5    C     C_R   0.731642 0.942840 0.693034 0.711864
C6    C     C_R   0.658956 0.874675 0.629411 -0.277929
C7    C     C_R   0.583714 0.937083 0.566522 0.014722
C8    C     C_R   0.583512 0.068863 0.566916 0.106004
C9    C     C_R   0.509078 0.128608 0.500035 -0.070875
C10   C     C_R   0.439137 0.062010 0.429719 -0.197480
C11   C     C_R   0.439351 0.933622 0.429336 -0.165069
C12   C     C_R   0.329295 0.499672 0.500099 0.868022
C13   C     C_R   0.509484 0.872030 0.499314 -0.058872
C14   C     C_R   0.376678 0.334508 0.140311 -0.215864
C15   C     C_R   0.316332 0.252473 0.070471 0.648805
C16   C     C_R   0.316399 0.252468 0.931095 -0.267138
C17   C     C_R   0.376781 0.334395 0.860716 -0.211853
C18   C     C_R   0.439426 0.418331 0.928003 0.150224
C19   C     C_R   0.439406 0.418388 0.072493 -0.025792
C20   C     C_R   0.558080 0.578214 0.071121 0.679951
C21   C     C_R   0.557994 0.578109 0.928118 -0.197363
C22   C     C_R   0.502848 0.739474 0.499848 0.869049
C23   C     C_R   0.670709 0.500358 0.499916 0.867825
C24   C     C_1   0.227798 0.499379 0.500248 -0.176554
C25   C     C_1   0.142527 0.499246 0.500296 0.022303
C26   C     C_1   0.042615 0.499285 0.500271 0.042898
C27   C     C_1   0.957349 0.499460 0.500185 0.046371
C28   C     C_1   0.857446 0.499778 0.500023 0.035304
H1    H     H_    0.383107 0.109688 0.377584 0.181300
H2    H     H_    0.269152 0.188852 0.876837 0.187645
H3    H     H_    0.371935 0.329170 0.753963 0.221981
H4    H     H_    0.605304 0.642026 0.874114 0.186917
H5    H     H_    0.662780 0.238086 0.629780 0.179719
H6    H     H_    0.788447 0.126520 0.741407 0.179786
H7    H     H_    0.663300 0.773439 0.628220 0.167391
H8    H     H_    0.383450 0.881884 0.376995 0.166829
H9    H     H_    0.371781 0.329494 0.247062 0.210944
N1    N     N_R   0.499190 0.498800 0.142780 -0.152006
N2    N     N_R   0.499160 0.498720 0.857170 -0.132696
O1    O     O_R   0.500000 0.316780 0.614690 -0.631018
O2    O     O_R   0.499990 0.316750 0.385360 -0.626118
O3    O     O_R   0.373720 0.500010 0.614690 -0.607196
O4    O     O_R   0.373710 0.499990 0.385360 -0.615080
O5    O     O_R   0.500010 0.683250 0.614640 -0.613651
O6    O     O_R   0.500000 0.683220 0.385310 -0.557145
O7    O     O_R   0.626290 0.500010 0.614640 -0.609604
O8    O     O_R   0.626280 0.499990 0.385310 -0.540825
Zn1   Zn    Zn3+2 0.500010 0.500020 0.653130 0.944828
Zn2   Zn    Zn3+2 0.499990 0.499980 0.346870 1.007489
F1    F     F_    0.803222 0.881784 0.752939 -0.644480
F2    F     F_    0.617534 0.658480 0.137555 -0.630909
F3    F     F_    0.257109 0.172740 0.138820 -0.662189

loop_
_geom_bond_atom_site_label_1
_geom_bond_atom_site_label_2
_ccdc_geom_bond_type
C2    C28   T    
C18   N2    A    
C6    C7    A    
C19   N1    A    
C12   O4    A    
C20   N1    A    
C9    C10   A    
C12   C24   S    
C21   N2    A    
O6    Zn2   S    
N2    Zn1   S    
C17   C18   A    
C7    C8    A    
O8    Zn2   S    
C23   O7    A    
O3    Zn1   S    
C15   F3    S    
C24   C25   T    
C14   H9    S    
C11   C13   A    
C10   H1    S    
C26   C27   T    
C16   C17   A    
C22   O5    A    
C4    C5    A    
C1    O2    A    
C11   H8    S    
C13   C22   S    
C3    C8    A    
C20   F2    S    
C4    H6    S    
C5    C6    A    
C17   H3    S    
C21   H4    S    
O7    Zn1   S    
C5    F1    S    
C23   O8    A    
C10   C11   A    
C3    H5    S    
C16   H2    S    
C3    C4    A    
C7    C13   A    
C22   O6    A    
C1    C9    S    
C20   C21   A    
C18   C19   A    
O2    Zn2   S    
C2    C23   S    
O1    Zn1   S    
C14   C15   A    
O4    Zn2   S    
C12   O3    A    
C1    O1    A    
N1    Zn2   S    
C25   C26   S    
C14   C19   A    
C15   C16   A    
C6    H7    S    
O5    Zn1   S    
C8    C9    A    
C27   C28   S    
