data_mof_unit_35790.cif
_audit_creation_date              2013-03-05T15:59:23-0500
_audit_creation_method            fapswitch 2.2
_symmetry_space_group_name_H-M    P1
_symmetry_Int_Tables_number       1
_space_group_crystal_system       triclinic
_cell_length_a                    10.515607
_cell_length_b                    12.688361
_cell_length_c                    13.162536
_cell_angle_alpha                 82.239909
_cell_angle_beta                  91.467824
_cell_angle_gamma                 102.140515
_cell_volume                      1701.21325303

loop_
_atom_site_label
_atom_site_type_symbol
_atom_site_description
_atom_site_fract_x
_atom_site_fract_y
_atom_site_fract_z
_atom_type_partial_charge
O1    O     O_R   0.467970 0.366730 0.627150 -0.550222
O2    O     O_R   0.510820 0.544830 0.662520 -0.641638
C1    C     C_R   0.477503 0.439611 0.690719 0.913673
O3    O     O_R   0.664630 0.410960 0.482340 -0.595517
O4    O     O_R   0.707470 0.589060 0.517710 -0.598592
C2    C     C_R   0.741698 0.500232 0.500690 0.943307
Zn1   Zn    Zn3+2 0.471390 0.381080 0.476380 1.081770
Zn2   Zn    Zn3+2 0.528610 0.618920 0.523620 0.984469
O5    O     O_R   0.489180 0.455170 0.337480 -0.608112
O6    O     O_R   0.532030 0.633270 0.372850 -0.632377
O7    O     O_R   0.292530 0.410940 0.482290 -0.547657
O8    O     O_R   0.335370 0.589040 0.517660 -0.656340
C3    C     C_R   0.516169 0.560796 0.309024 0.901161
C4    C     C_R   0.258139 0.499611 0.499821 0.941876
C5    C     C_3   0.931501 0.398918 0.489177 -0.172593
C6    C     C_3   0.024531 0.428676 0.577287 0.342152
H1    H     H_    0.873951 0.316366 0.481352 0.212785
C7    C     C_3   0.122965 0.499396 0.500649 -0.155918
C8    C     C_3   0.031427 0.471694 0.410654 -0.217447
C9    C     C_3   0.974329 0.570446 0.425279 0.328656
C10   C     C_3   0.067672 0.600454 0.513114 -0.195933
C11   C     C_3   0.967571 0.527622 0.591621 -0.253660
C12   C     C_3   0.876507 0.499748 0.501782 -0.166574
H2    H     H_    0.060781 0.451411 0.336459 0.235051
H3    H     H_    0.125323 0.683037 0.520711 0.214006
H4    H     H_    0.937834 0.548566 0.665439 0.201216
C13   C     C_R   0.490995 0.728332 0.053604 0.341413
H5    H     H_    0.523024 0.765671 0.208847 0.203392
C14   C     C_R   0.517836 0.597137 0.199500 -0.103498
C15   C     C_R   0.461660 0.296483 0.839459 -0.155742
C16   C     C_R   0.462836 0.264647 0.944865 0.319094
C17   C     C_R   0.467048 0.343132 0.010490 -0.198522
C18   C     C_R   0.460797 0.451858 0.971850 0.067037
C19   C     C_R   0.436269 0.476518 0.867129 0.031350
C20   C     C_R   0.477972 0.536832 0.033529 0.049490
C21   C     C_R   0.457273 0.641906 0.992788 -0.089531
C22   C     C_R   0.401487 0.655302 0.894328 0.283987
C23   C     C_R   0.393061 0.573053 0.832623 -0.205067
C24   C     C_R   0.518271 0.520158 0.134648 -0.132746
C25   C     C_R   0.510329 0.702926 0.159049 -0.185815
C26   C     C_R   0.453343 0.402758 0.800005 -0.127300
H6    H     H_    0.546419 0.445803 0.166493 0.170240
H7    H     H_    0.470275 0.239018 0.788265 0.254180
H8    H     H_    0.470999 0.315889 0.091196 0.200273
H9    H     H_    0.346884 0.583160 0.758526 0.202085
C27   C     C_R   0.327423 0.091899 0.338977 -0.208374
H10   H     H_    0.254166 0.072133 0.281551 0.236354
N1    N     N_R   0.432930 0.222190 0.444670 -0.207478
C28   C     C_R   0.662241 0.800562 0.624114 -0.016322
C29   C     C_R   0.712998 0.908253 0.638548 0.260842
C30   C     C_R   0.658246 0.989840 0.583110 -0.144370
C31   C     C_R   0.548719 0.964045 0.519620 0.018868
C32   C     C_R   0.510738 0.855139 0.500977 0.197208
C33   C     C_R   0.480577 0.042765 0.469943 -0.099733
C34   C     C_R   0.393450 0.014534 0.388605 -0.035807
C35   C     C_R   0.367268 0.907308 0.363703 0.282968
C36   C     C_R   0.421094 0.828748 0.423641 -0.257850
C37   C     C_R   0.490059 0.146821 0.501616 0.336888
C38   C     C_R   0.350114 0.195935 0.366601 0.377427
N2    N     N_R   0.566370 0.776980 0.554790 -0.141673
H11   H     H_    0.703760 0.735293 0.663507 0.177311
H12   H     H_    0.706120 0.072877 0.586692 0.217900
H13   H     H_    0.395795 0.747689 0.405070 0.225066
N3    N     N_R   0.049924 0.349598 0.662318 0.228389
O9    O     O_R   0.954362 0.294562 0.720863 -0.275046
O10   O     O_R   0.167209 0.334851 0.681664 -0.377976
N4    N     N_R   0.464817 0.153902 0.985055 0.256036
O11   O     O_R   0.444299 0.078569 0.924991 -0.208986
O12   O     O_R   0.482710 0.126834 0.082487 -0.311089
N5    N     N_R   0.273575 0.269988 0.320830 0.232458
O13   O     O_R   0.160529 0.265952 0.360721 -0.368806
O14   O     O_R   0.295204 0.312904 0.225902 -0.399212
N6    N     N_R   0.284683 0.875485 0.279334 0.213677
O15   O     O_R   0.211834 0.778278 0.286174 -0.347637
O16   O     O_R   0.300664 0.934162 0.189814 -0.257128
N7    N     N_R   0.532523 0.165023 0.603157 0.196691
O17   O     O_R   0.637009 0.236847 0.617696 -0.382011
O18   O     O_R   0.478758 0.097124 0.680821 -0.314104
N8    N     N_R   0.821078 0.934770 0.706525 0.244946
O19   O     O_R   0.873276 0.858548 0.755900 -0.316101
O20   O     O_R   0.867098 0.035164 0.720931 -0.250857
N9    N     N_R   0.940257 0.648007 0.342541 0.234782
O21   O     O_R   0.950209 0.632935 0.247536 -0.311629
O22   O     O_R   0.897824 0.731825 0.363462 -0.333778
N10   N     N_R   0.343036 0.746411 0.858992 0.247317
O23   O     O_R   0.345093 0.784129 0.761899 -0.336239
O24   O     O_R   0.271572 0.781378 0.920863 -0.255328
N11   N     N_R   0.518899 0.840686 0.009092 0.264952
O25   O     O_R   0.573810 0.868459 0.919191 -0.282994
O26   O     O_R   0.519729 0.916116 0.066975 -0.241409

loop_
_geom_bond_atom_site_label_1
_geom_bond_atom_site_label_2
_geom_bond_distance
_ccdc_geom_bond_type
C34   C35   1.411551 A    
C9    N9    1.456629 S    
C27   C38   1.387208 A    
C7    C10   1.544178 S    
N6    O15   1.300891 A    
C4    C7    1.421186 S    
C8    C9    1.534634 S    
C29   N8    1.440069 S    
C37   N7    1.431257 S    
N10   O23   1.301786 A    
Zn1   O7    2.000570 S    
C30   H12   1.074634 S    
C28   N2    1.355809 A    
C22   N10   1.438591 S    
C21   C22   1.412827 A    
N7    O18   1.301443 A    
C15   C16   1.392157 A    
O7    C4    1.302069 A    
H5    C25   1.083055 S    
C5    C6    1.532759 S    
C35   C36   1.392297 A    
Zn1   O5    1.934102 S    
C7    C8    1.537861 S    
O5    C3    1.314121 A    
C23   H9    1.082404 S    
C5    C8    1.553980 S    
C20   C21   1.426691 A    
N3    O9    1.300173 A    
C27   C34   1.400965 A    
C15   C26   1.397802 A    
N5    O13   1.300210 A    
C5    C12   1.540178 S    
O1    Zn1   1.968773 S    
C10   C11   1.555155 S    
N6    O16   1.300607 A    
C19   C26   1.410968 A    
O3    Zn1   1.988687 S    
C32   N2    1.364013 A    
C31   C33   1.428043 A    
C36   H13   1.066683 S    
C24   H6    1.075961 S    
N10   O24   1.301528 A    
C28   H11   1.081588 S    
C30   C31   1.413514 A    
N7    O17   1.299808 A    
O3    C2    1.294561 A    
N8    O20   1.301552 A    
C32   C36   1.395370 A    
N4    O11   1.301466 A    
N4    O12   1.301493 A    
N3    O10   1.299635 A    
C20   C24   1.388757 A    
C22   C23   1.393900 A    
C16   C17   1.397003 A    
C9    C12   1.515865 S    
C13   C25   1.401376 A    
Zn2   O8    1.988689 S    
C14   C24   1.381997 A    
C29   C30   1.400282 A    
C17   H8    1.074375 S    
N11   O25   1.301800 A    
C6    C7    1.520706 S    
N11   O26   1.299853 A    
C28   C29   1.395083 A    
N9    O22   1.300381 A    
C15   H7    1.075869 S    
C31   C32   1.408413 A    
N1    C38   1.360106 A    
C33   C37   1.420582 A    
C3    C14   1.452439 S    
C33   C34   1.424505 A    
C5    H1    1.110545 S    
C10   H3    1.110628 S    
C27   H10   1.080626 S    
C1    C26   1.462713 S    
C6    C11   1.535133 S    
C35   N6    1.440357 S    
C19   C23   1.409366 A    
O2    Zn2   1.934100 S    
O8    C4    1.294919 A    
O6    C3    1.310023 A    
O4    Zn2   2.000567 S    
N1    C37   1.364648 A    
C13   C21   1.424083 A    
C17   C18   1.418837 A    
O2    C1    1.311103 A    
Zn1   N1    2.068303 S    
O4    C2    1.301158 A    
C2    C12   1.418594 S    
C14   C25   1.393161 A    
C18   C20   1.414613 A    
C18   C19   1.401317 A    
C8    H2    1.109940 S    
C13   N11   1.438393 S    
C16   N4    1.437291 S    
C38   N5    1.426183 S    
N8    O19   1.301644 A    
C9    C10   1.532514 S    
Zn2   O6    1.968775 S    
N9    O21   1.300375 A    
C11   H4    1.110280 S    
C11   C12   1.533915 S    
N5    O14   1.299314 A    
C6    N3    1.457681 S    
O1    C1    1.315669 A    
Zn2   N2    2.055970 S    
