data_mof_unit_44325.cif
_audit_creation_date              2012-12-10T16:57:07-0500
_audit_creation_method            fapswitch 2.2
_symmetry_space_group_name_H-M    P1
_symmetry_Int_Tables_number       1
_space_group_crystal_system       triclinic
_cell_length_a                    7.784357
_cell_length_b                    8.564955
_cell_length_c                    16.675801
_cell_angle_alpha                 92.135371
_cell_angle_beta                  79.735282
_cell_angle_gamma                 93.987292
_cell_volume                      1091.02698353

loop_
_atom_site_label
_atom_site_type_symbol
_atom_type_description
_atom_site_fract_x
_atom_site_fract_y
_atom_site_fract_z
_atom_type_partial_charge
Br1   Br    Br    0.716131 0.242876 0.226902 -0.421607
Br2   Br    Br    0.314855 0.820122 0.728967 -0.451365
Br3   Br    Br    0.785456 0.702702 0.936492 -0.398427
Br4   Br    Br    0.237282 0.491340 0.072135 -0.392088
C1    C     C_R   0.546361 0.794833 0.497855 1.000939
C2    C     C_R   0.500860 0.686762 0.240646 0.301002
C3    C     C_R   0.500151 0.408616 0.868649 0.403517
C4    C     C_R   0.524363 0.725922 0.157776 0.410131
C5    C     C_R   0.426154 0.541096 0.909253 -0.016749
C6    C     C_R   0.608017 0.622248 0.098962 -0.017026
C7    C     C_R   0.365826 0.657600 0.867531 -0.175775
C8    C     C_R   0.672594 0.484920 0.120838 -0.158900
C9    C     C_R   0.384230 0.647249 0.783562 0.202286
C10   C     C_R   0.641988 0.441857 0.201538 0.210624
C11   C     C_2   0.435478 0.569397 0.994305 0.259466
C12   C     C_R   0.453664 0.205154 0.502013 0.972500
C13   C     C_2   0.585545 0.631662 0.015079 0.270436
C14   C     C_2   0.570699 0.958452 0.496507 -0.303584
C15   C     C_2   0.429361 0.041502 0.503111 -0.296415
C16   C     C_R   0.476239 0.504582 0.654064 1.011053
C17   C     C_R   0.524774 0.501200 0.345900 0.993918
C18   C     C_R   0.459554 0.516274 0.741520 -0.197008
C19   C     C_R   0.550307 0.540023 0.260939 -0.195213
C20   C     C_R   0.511646 0.393436 0.783310 0.299045
H1    H     H_    0.312876 0.760446 0.900060 0.227797
H2    H     H_    0.661861 0.249699 0.877685 0.364349
H3    H     H_    0.733425 0.404677 0.074197 0.238753
H4    H     H_    0.703981 0.009996 0.490176 0.181378
H5    H     H_    0.296083 0.989942 0.509427 0.189176
H6    H     H_    0.022954 0.379598 0.439255 0.205718
H7    H     H_    0.977055 0.620415 0.560742 0.209005
H8    H     H_    0.544656 0.170139 0.775672 0.370643
H9    H     H_    0.460707 0.897344 0.284211 0.357960
H10   H     H_    0.357242 0.887854 0.173268 0.365465
N1    N     N_2   0.953500 0.457650 0.478520 -0.158237
N2    N     N_2   0.046500 0.542350 0.521480 -0.154915
O1    O     O_R   0.388470 0.738640 0.505270 -0.589074
O2    O     O_3   0.433012 0.788490 0.302728 -0.754890
O3    O     O_3   0.457105 0.856443 0.131720 -0.698142
O4    O     O_3   0.566037 0.301849 0.913482 -0.718492
O5    O     O_R   0.611530 0.261360 0.494730 -0.603959
O6    O     O_R   0.679650 0.711510 0.491500 -0.638988
O7    O     O_R   0.320350 0.288490 0.508500 -0.634012
O8    O     O_R   0.337210 0.515200 0.623500 -0.595785
O9    O     O_R   0.662790 0.484800 0.376500 -0.598089
O10   O     O_R   0.628380 0.488060 0.609730 -0.595062
O11   O     O_R   0.371620 0.511940 0.390270 -0.588484
O12   O     O_3   0.569034 0.261076 0.739489 -0.736581
Zn1   Zn    Zn3+2 0.305580 0.518120 0.509190 1.025860
Zn2   Zn    Zn3+2 0.694420 0.481880 0.490810 1.017848

loop_
_geom_bond_atom_site_label_1
_geom_bond_atom_site_label_2
_ccdc_geom_bond_type
O8    Zn1   S    
C10   C19   A    
C1    O6    A    
C2    O2    S    
C1    C14   S    
C4    O3    S    
C1    O1    A    
C5    C7    A    
O10   Zn2   S    
N1    N2    D    
C3    O4    S    
Br4   C11   S    
C5    C11   S    
C14   H4    S    
O11   Zn1   S    
H8    O12   S    
C12   O7    A    
H2    O4    S    
C6    C8    A    
O9    Zn2   S    
O6    Zn2   S    
C12   C15   S    
C2    C19   A    
H6    N1    S    
C16   O8    A    
C8    C10   A    
C9    C18   A    
Br3   C13   S    
N1    Zn2   S    
C17   O9    A    
C17   C19   S    
C18   C20   A    
C7    H1    S    
C6    C13   S    
C3    C20   A    
C20   O12   S    
C3    C5    A    
O5    Zn2   S    
C7    C9    A    
O1    Zn1   S    
C4    C6    A    
C14   C15   D    
C11   C13   D    
Br2   C9    S    
H7    N2    S    
O7    Zn1   S    
H9    O2    S    
C2    C4    A    
Br1   C10   S    
C8    H3    S    
C12   O5    A    
C16   O10   A    
N2    Zn1   S    
H10   O3    S    
C16   C18   S    
C17   O11   A    
C15   H5    S    
