data_mof_unit_24070.cif
_audit_creation_date              2012-12-11T14:46:16-0500
_audit_creation_method            fapswitch 2.2
_symmetry_space_group_name_H-M    P1
_symmetry_Int_Tables_number       1
_space_group_crystal_system       triclinic
_cell_length_a                    10.926188
_cell_length_b                    10.95411
_cell_length_c                    18.745254
_cell_angle_alpha                 90.032357
_cell_angle_beta                  90.079466
_cell_angle_gamma                 120.159828
_cell_volume                      1939.83659001

loop_
_atom_site_label
_atom_site_type_symbol
_atom_type_description
_atom_site_fract_x
_atom_site_fract_y
_atom_site_fract_z
_atom_type_partial_charge
C1    C     C_R   0.864469 0.638301 0.603464 0.557004
C2    C     C_R   0.964667 0.177664 0.712713 0.007774
C3    C     C_R   0.966074 0.191403 0.788113 -0.008082
C4    C     C_R   0.271554 0.633521 0.603348 0.550354
C5    C     C_R   0.719156 0.125063 0.710145 0.011790
C6    C     C_R   0.730899 0.163778 0.782058 0.030123
C7    C     C_R   0.587236 0.073295 0.675277 -0.067567
C8    C     C_R   0.479533 0.087131 0.706739 -0.121286
C9    C     C_R   0.500769 0.149233 0.773596 -0.141176
C10   C     C_R   0.626001 0.189659 0.810616 -0.071807
C11   C     C_R   0.842915 0.154844 0.673010 -0.042835
C12   C     C_R   0.412214 0.615569 0.778221 -0.119664
C13   C     C_R   0.723627 0.546714 0.713958 -0.145412
C14   C     C_R   0.706716 0.567592 0.785552 -0.146916
C15   C     C_R   0.780613 0.704069 0.814617 0.026149
C16   C     C_R   0.860850 0.222049 0.601930 0.537089
C17   C     C_R   0.865029 0.819493 0.771013 -0.136670
C18   C     C_R   0.881886 0.798986 0.699730 -0.135108
C19   C     C_R   0.815810 0.662055 0.671484 0.021992
C20   C     C_R   0.219961 0.544105 0.273711 -0.132775
C21   C     C_R   0.240238 0.561515 0.200906 -0.153109
C22   C     C_R   0.337655 0.693808 0.174201 0.012458
C23   C     C_R   0.395408 0.610129 0.705563 -0.126706
C24   C     C_R   0.403987 0.811326 0.220125 -0.144220
C25   C     C_R   0.383880 0.793216 0.293378 -0.158027
C26   C     C_R   0.297412 0.657650 0.320195 0.028623
C27   C     C_R   0.733451 0.172622 0.284110 -0.163398
C28   C     C_R   0.907333 0.611170 0.390120 0.570140
C29   C     C_R   0.736573 0.172646 0.211452 -0.179633
C30   C     C_R   0.842492 0.161193 0.175082 0.048135
C31   C     C_R   0.955725 0.165000 0.212914 0.236667
C32   C     C_R   0.955781 0.173431 0.287743 -0.145569
C33   C     C_R   0.844919 0.177998 0.323049 -0.010045
C34   C     C_R   0.326164 0.674127 0.674663 0.024677
C35   C     C_R   0.995134 0.704498 0.268959 -0.163046
C36   C     C_R   0.969507 0.712053 0.196988 -0.190646
C37   C     C_R   0.830843 0.637477 0.169536 0.031504
C38   C     C_R   0.723497 0.530683 0.211559 0.259847
C39   C     C_R   0.754794 0.513727 0.282092 -0.107353
C40   C     C_R   0.267853 0.632349 0.395391 0.534934
C41   C     C_R   0.885009 0.610989 0.312964 -0.021285
C42   C     C_R   0.809068 0.108093 0.895967 0.523101
C43   C     C_R   0.399061 0.701871 0.895505 0.538330
C44   C     C_R   0.773320 0.730069 0.890066 0.559798
C45   C     C_R   0.844007 0.171182 0.823371 -0.033818
C46   C     C_R   0.808995 0.108612 0.102253 0.566977
C47   C     C_R   0.394119 0.704994 0.103204 0.540356
C48   C     C_R   0.800105 0.690521 0.103338 0.561825
C49   C     C_R   0.861565 0.228250 0.395884 0.540351
C50   C     C_R   0.281968 0.751645 0.716671 -0.126723
C51   C     C_R   0.304420 0.761930 0.789768 -0.126091
C52   C     C_R   0.365539 0.689800 0.820699 0.038185
C53   C     C_3   0.108136 0.079145 0.197665 -0.003938
C54   C     C_3   0.215093 0.079467 0.145511 -0.351859
C55   C     C_3   0.487328 0.462957 0.212255 0.010496
C56   C     C_R   0.091707 0.231402 0.826461 -0.086796
C57   C     C_3   0.417613 0.371686 0.278045 -0.407023
C58   C     C_R   0.212564 0.251370 0.791589 -0.121710
C59   C     C_R   0.208516 0.225474 0.718731 -0.129286
C60   C     C_R   0.085424 0.186687 0.679733 -0.080676
Cr1   Cr    Cr6+3 0.791660 0.390250 0.499930 1.004586
Cr2   Cr    Cr6+3 0.098520 0.708290 0.500540 0.999191
Cr3   Cr    Cr6+3 0.109770 0.401430 0.499480 1.000060
Cr4   Cr    Cr6+3 0.874790 0.925890 0.000070 1.013108
Cr5   Cr    Cr6+3 0.574120 0.948670 0.999300 1.008979
Cr6   Cr    Cr6+3 0.551420 0.625320 0.000920 1.023565
H1    H     H_    0.224160 0.798483 0.693702 0.138469
H2    H     H_    0.646966 0.177797 0.309316 0.140624
H3    H     H_    0.649411 0.173230 0.184102 0.165758
H4    H     H_    0.046222 0.187069 0.317954 0.115502
H5    H     H_    0.099949 0.773449 0.290391 0.144270
H6    H     H_    0.056490 0.785234 0.163983 0.138595
H7    H     H_    0.675934 0.427759 0.313516 0.139192
H8    H     H_    0.461833 0.560948 0.801302 0.134142
H9    H     H_    0.428929 0.548990 0.674189 0.132062
H10   H     H_    0.309301 0.286973 0.821520 0.101166
H11   H     H_    0.098799 0.253120 0.883130 0.132571
H12   H     H_    0.381243 0.053241 0.678423 0.101519
H13   H     H_    0.085280 0.160609 0.624123 0.128107
H14   H     H_    0.640015 0.241318 0.861670 0.136845
H15   H     H_    0.569745 0.027806 0.622311 0.124835
H16   H     H_    0.419082 0.163058 0.797647 0.101334
H17   H     H_    0.672172 0.439889 0.693270 0.144876
H18   H     H_    0.478725 0.914915 0.199909 0.137549
H19   H     H_    0.012878 0.972138 0.198855 0.161439
H20   H     H_    0.157603 0.104413 0.251358 0.109611
H21   H     H_    0.255924 0.011499 0.165873 0.087172
H22   H     H_    0.164737 0.039856 0.092608 0.170962
H23   H     H_    0.639876 0.476964 0.818437 0.120967
H24   H     H_    0.306055 0.187961 0.139040 0.175429
H25   H     H_    0.403695 0.431415 0.171264 0.197518
H26   H     H_    0.526847 0.576604 0.224313 0.137928
H27   H     H_    0.418129 0.270748 0.274552 0.151451
H28   H     H_    0.472632 0.429176 0.327377 0.136624
H29   H     H_    0.306612 0.347440 0.282223 0.133070
H30   H     H_    0.301453 0.236736 0.692130 0.102150
H31   H     H_    0.921975 0.924876 0.792973 0.141833
H32   H     H_    0.953200 0.889172 0.667750 0.128304
H33   H     H_    0.144975 0.441463 0.294242 0.141277
H34   H     H_    0.186443 0.470826 0.165958 0.162505
H35   H     H_    0.270836 0.821875 0.822028 0.127408
H36   H     H_    0.438329 0.883006 0.328853 0.115672
O1    O     O_R   0.766500 0.250040 0.579790 -0.515761
O2    O     O_R   0.413330 0.603360 0.920440 -0.537387
O3    O     O_R   0.676110 0.626250 0.926750 -0.513106
O4    O     O_R   0.798570 0.516780 0.574780 -0.496082
O5    O     O_R   0.895350 0.809870 0.080950 -0.541361
O6    O     O_R   0.872490 0.049760 0.073800 -0.459165
O7    O     O_R   0.691680 0.088070 0.079070 -0.537688
O8    O     O_R   0.451720 0.825250 0.074050 -0.504710
O9    O     O_R   0.413580 0.606370 0.080960 -0.525095
O10   O     O_R   0.676340 0.629040 0.075550 -0.453463
O11   O     O_3   0.666780 0.833290 0.000090 -0.270201
O12   O     O_R   0.218690 0.701900 0.425960 -0.521879
O13   O     O_R   0.984000 0.732950 0.581090 -0.525589
O14   O     O_R   0.218600 0.700890 0.574760 -0.511094
O15   O     O_R   0.249390 0.515350 0.579940 -0.512790
O16   O     O_R   0.982790 0.280900 0.573700 -0.500683
O17   O     O_R   0.766600 0.251130 0.419260 -0.536408
O18   O     O_R   0.798660 0.517790 0.425980 -0.510837
O19   O     O_R   0.984100 0.734040 0.420570 -0.513653
O20   O     O_3   0.072184 0.180203 0.175515 -0.571083
O21   O     O_3   0.592127 0.438119 0.182736 -0.569405
O22   O     O_R   0.249490 0.516440 0.419420 -0.524244
O23   O     O_R   0.982880 0.281910 0.424890 -0.513634
O24   O     O_3   0.999980 0.499990 0.499980 -0.259973
O25   O     O_R   0.895110 0.806860 0.920430 -0.513153
O26   O     O_R   0.872260 0.046970 0.925000 -0.522878
O27   O     O_R   0.691430 0.085060 0.918550 -0.518356
O28   O     O_R   0.451490 0.822460 0.925250 -0.496972

loop_
_geom_bond_atom_site_label_1
_geom_bond_atom_site_label_2
_ccdc_geom_bond_type
C44   O25   A    
Cr6   O11   S    
C12   H8    S    
Cr1   O17   S    
C35   C36   A    
Cr3   O22   S    
C58   H10   S    
C7    C8    A    
C60   H13   S    
C49   O17   A    
C53   C54   S    
C27   C33   A    
C12   C23   A    
C29   C30   A    
C36   C37   A    
Cr1   O1    S    
C15   C44   S    
C54   H24   S    
C53   O20   S    
C5    C6    A    
Cr3   O15   S    
C2    C60   A    
C43   C52   S    
C48   O5    A    
C27   C29   A    
C33   C49   S    
C28   C41   S    
C18   C19   A    
C3    C56   A    
C43   O2    A    
C55   H25   S    
C27   H2    S    
C40   O12   A    
C8    C9    A    
Cr4   O26   S    
C46   O6    A    
C53   H20   S    
Cr6   O9    S    
C9    C10   A    
C38   O21   S    
C42   O26   A    
C9    H16   S    
Cr4   O25   S    
C22   C47   S    
C35   H5    S    
C59   C60   A    
C57   H27   S    
C13   C14   A    
Cr1   O18   S    
C8    H12   S    
C35   C41   A    
C2    C11   A    
C12   C52   A    
C4    O14   A    
Cr4   O6    S    
C29   H3    S    
C38   C39   A    
C40   O22   A    
C55   O21   S    
C34   C50   A    
C1    C19   S    
C13   C19   A    
C6    C45   A    
C51   C52   A    
Cr6   O2    S    
C1    O13   A    
C24   C25   A    
C39   C41   A    
C28   O18   A    
C5    C7    A    
Cr3   O16   S    
C10   H14   S    
C28   O19   A    
C32   H4    S    
C50   C51   A    
C25   C26   A    
C44   O3    A    
C3    C45   A    
C56   H11   S    
C42   C45   S    
C14   H23   S    
Cr2   O14   S    
C37   C38   A    
C16   O16   A    
C11   C16   S    
C16   O1    A    
C31   C32   A    
C30   C31   A    
C23   C34   A    
C17   C18   A    
Cr3   O23   S    
C37   C48   S    
Cr1   O4    S    
Cr5   O7    S    
Cr1   O24   S    
C7    H15   S    
C55   H26   S    
C57   H28   S    
C55   C57   S    
C22   C24   A    
C4    O15   A    
C59   H30   S    
Cr6   O3    S    
Cr2   O12   S    
Cr4   O5    S    
Cr2   O24   S    
C50   H1    S    
C15   C17   A    
C13   H17   S    
Cr4   O11   S    
C48   O10   A    
C21   H34   S    
Cr5   O11   S    
C30   C46   S    
C43   O28   A    
C31   O20   S    
C23   H9    S    
C6    C10   A    
Cr5   O27   S    
C5    C11   A    
C51   H35   S    
C47   O8    A    
C49   O23   A    
C1    O4    A    
Cr5   O28   S    
C32   C33   A    
C2    C3    A    
C58   C59   A    
Cr2   O13   S    
C54   H22   S    
C26   C40   S    
C54   H21   S    
C20   H33   S    
C20   C26   A    
C47   O9    A    
C56   C58   A    
C42   O27   A    
C39   H7    S    
C4    C34   S    
C24   H18   S    
C25   H36   S    
Cr5   O8    S    
Cr3   O24   S    
C20   C21   A    
C57   H29   S    
C46   O7    A    
C14   C15   A    
C53   H19   S    
C18   H32   S    
Cr6   O10   S    
C21   C22   A    
C17   H31   S    
Cr2   O19   S    
C36   H6    S    
