data_mof_unit_17455.cif
_audit_creation_date              2012-12-10T19:17:23-0500
_audit_creation_method            fapswitch 2.2
_symmetry_space_group_name_H-M    P1
_symmetry_Int_Tables_number       1
_space_group_crystal_system       triclinic
_cell_length_a                    15.983379
_cell_length_b                    14.776442
_cell_length_c                    15.906357
_cell_angle_alpha                 89.314498
_cell_angle_beta                  90.047269
_cell_angle_gamma                 89.616835
_cell_volume                      3756.36878729

loop_
_atom_site_label
_atom_site_type_symbol
_atom_type_description
_atom_site_fract_x
_atom_site_fract_y
_atom_site_fract_z
_atom_type_partial_charge
C1    C     C_R   0.340918 0.500349 0.501167 0.817110
C2    C     C_3   0.575204 0.433012 0.949649 -0.089921
C3    C     C_3   0.565804 0.432059 0.052217 0.627167
C4    C     C_1   0.495887 0.496129 0.824155 -0.005718
C5    C     C_1   0.497873 0.503020 0.175080 0.162124
C6    C     C_1   0.498993 0.502051 0.250461 -0.158568
C7    C     C_R   0.955518 0.588040 0.516945 0.338208
C8    C     C_R   0.956992 0.423033 0.537832 0.338087
C9    C     C_R   0.912204 0.505105 0.526076 -0.094463
C10   C     C_R   0.044491 0.422628 0.531855 -0.042772
C11   C     C_R   0.043425 0.587367 0.513882 -0.045000
C12   C     C_R   0.087488 0.504423 0.518563 -0.112997
C13   C     C_1   0.822649 0.502656 0.516891 -0.055253
C14   C     C_R   0.499913 0.500557 0.339880 0.818802
C15   C     C_1   0.177309 0.503147 0.512440 -0.018900
C16   C     C_1   0.252101 0.501535 0.506802 -0.165328
C17   C     C_1   0.747983 0.500407 0.508981 -0.172447
C18   C     C_R   0.567062 0.950067 0.539168 -0.102989
C19   C     C_R   0.568747 0.046718 0.536345 -0.106393
C20   C     C_R   0.499614 0.902663 0.502907 -0.092487
C21   C     C_R   0.501407 0.096834 0.500431 -0.093783
C22   C     C_R   0.433879 0.952288 0.464709 0.305194
C23   C     C_R   0.433012 0.049363 0.466750 0.318220
C24   C     C_1   0.499513 0.802482 0.501025 0.257264
C25   C     C_1   0.500528 0.197358 0.500229 0.262833
C26   C     C_R   0.659140 0.499878 0.501426 0.831072
C27   C     C_R   0.499685 0.499443 0.659936 0.821330
C28   C     C_3   0.515190 0.600500 0.046688 0.568594
C29   C     C_3   0.406474 0.472660 0.052527 0.565523
C30   C     C_3   0.406599 0.456802 0.953287 0.243807
C31   C     C_3   0.508334 0.599939 0.945969 0.276667
C32   C     C_1   0.497782 0.497808 0.748838 -0.230927
C33   C     C_3   0.496298 0.502303 0.082233 0.004249
C34   C     C_3   0.495127 0.495913 0.916117 -0.094947
Cu1   Cu    Cu3+1 0.500000 0.589220 0.500020 0.991675
Cu2   Cu    Cu3+1 0.500000 0.410780 0.500020 0.999921
N1    N     N_1   0.499980 0.276710 0.500030 -0.155741
N2    N     N_1   0.499980 0.723290 0.500030 -0.158034
O1    O     O_R   0.380310 0.575320 0.500040 -0.567131
O2    O     O_R   0.380310 0.424680 0.500040 -0.561609
O3    O     O_R   0.500000 0.575380 0.379460 -0.571904
O4    O     O_R   0.500000 0.424620 0.379460 -0.550801
O5    O     O_R   0.619690 0.575360 0.500000 -0.566570
O6    O     O_R   0.619690 0.424640 0.500000 -0.572959
O7    O     O_R   0.500000 0.575310 0.620580 -0.576948
O8    O     O_R   0.500000 0.424690 0.620580 -0.582043
C35   C     C_R   0.443641 0.668383 0.904369 0.089278
C36   C     C_R   0.367205 0.698131 0.940709 -0.072754
C37   C     C_R   0.314325 0.759773 0.899090 -0.148802
C38   C     C_R   0.335024 0.793354 0.819846 -0.109948
C39   C     C_R   0.408965 0.765689 0.781868 -0.157661
C40   C     C_R   0.462614 0.704931 0.823307 -0.158407
H1    H     H_    0.344056 0.673553 0.999410 0.240412
H2    H     H_    0.256138 0.780469 0.928129 0.136033
H3    H     H_    0.293401 0.840283 0.787582 0.125733
H4    H     H_    0.424639 0.790990 0.719772 0.132979
H5    H     H_    0.518978 0.685446 0.790311 0.181984
C41   C     C_R   0.320406 0.490137 0.914409 0.117905
C42   C     C_R   0.246127 0.455669 0.951365 -0.034044
C43   C     C_R   0.166922 0.475860 0.918712 -0.172713
C44   C     C_R   0.158987 0.528564 0.846161 -0.119687
C45   C     C_R   0.230359 0.559812 0.805621 -0.118912
C46   C     C_R   0.309749 0.539759 0.838171 -0.191353
H6    H     H_    0.248892 0.411010 0.005381 0.157272
H7    H     H_    0.111616 0.449297 0.949223 0.130363
H8    H     H_    0.097664 0.543905 0.820574 0.120533
H9    H     H_    0.224356 0.599460 0.748196 0.137057
H10   H     H_    0.360252 0.565880 0.802058 0.156493
O9    O     O_3   0.372304 0.904038 0.424373 -0.760009
H11   H     H_    0.348919 0.941770 0.378066 0.327343
O10   O     O_3   0.365817 0.099644 0.437189 -0.744998
H12   H     H_    0.314636 0.062592 0.441899 0.308873
O11   O     O_3   0.459814 0.664529 0.081767 -0.780285
H13   H     H_    0.474970 0.673535 0.141619 0.339423
O12   O     O_3   0.347395 0.540373 0.073494 -0.797577
H14   H     H_    0.344211 0.544864 0.135637 0.326286
O13   O     O_3   0.384444 0.391197 0.095295 -0.694036
H15   H     H_    0.328133 0.396518 0.120990 0.329599
O14   O     O_3   0.596920 0.623905 0.072180 -0.712541
H16   H     H_    0.602425 0.690783 0.069075 0.333691
O15   O     O_3   0.406441 0.362095 0.942916 -0.730884
H17   H     H_    0.378421 0.346178 0.889340 0.320800
O16   O     O_3   0.586556 0.628810 0.914682 -0.736070
H18   H     H_    0.594605 0.693732 0.928117 0.325418
O17   O     O_3   0.640930 0.455331 0.092270 -0.716567
H19   H     H_    0.677434 0.401190 0.097928 0.333683
O18   O     O_3   0.544664 0.345555 0.085884 -0.704462
H20   H     H_    0.502737 0.315314 0.050723 0.398064
C47   C     C_R   0.661120 0.470110 0.911006 0.207197
C48   C     C_R   0.680844 0.450068 0.825547 -0.125496
C49   C     C_R   0.754544 0.478770 0.786854 -0.146209
C50   C     C_R   0.812298 0.528955 0.831279 -0.113830
C51   C     C_R   0.796051 0.550985 0.914302 -0.185065
C52   C     C_R   0.722252 0.522727 0.953599 -0.039295
H21   H     H_    0.639836 0.410187 0.787258 0.129800
H22   H     H_    0.766859 0.461588 0.722009 0.128482
H23   H     H_    0.869372 0.551381 0.801192 0.121786
H24   H     H_    0.840465 0.591680 0.948404 0.133885
H25   H     H_    0.714665 0.549155 0.015179 0.236675
C53   C     C_R   0.580225 0.330856 0.920163 0.107215
C54   C     C_R   0.643139 0.274111 0.956311 -0.110882
C55   C     C_R   0.652110 0.183384 0.934326 -0.128626
C56   C     C_R   0.601142 0.146863 0.872806 -0.124070
C57   C     C_R   0.543650 0.202070 0.830771 -0.133643
C58   C     C_R   0.534500 0.292980 0.852541 -0.082688
H26   H     H_    0.686418 0.299872 0.001893 0.126114
H27   H     H_    0.699369 0.141565 0.964687 0.130548
H28   H     H_    0.607980 0.076453 0.856004 0.122572
H29   H     H_    0.506526 0.174659 0.780239 0.127190
H30   H     H_    0.491748 0.331367 0.814329 0.139316
C59   C     C_R   0.088760 0.674591 0.507301 0.203599
C60   C     C_R   0.137116 0.695332 0.435986 -0.149383
C61   C     C_R   0.180371 0.777200 0.430891 -0.100001
C62   C     C_R   0.175401 0.838917 0.496663 -0.080313
C63   C     C_R   0.127242 0.818842 0.567677 -0.174442
C64   C     C_R   0.083976 0.737040 0.573073 -0.105564
H31   H     H_    0.141246 0.648159 0.384535 0.129785
H32   H     H_    0.217678 0.792840 0.375918 0.155202
H33   H     H_    0.208738 0.902338 0.492608 0.143910
H34   H     H_    0.123515 0.866636 0.618597 0.127628
H35   H     H_    0.047192 0.722042 0.628626 0.122121
C65   C     C_R   0.090564 0.335448 0.539996 0.200054
C66   C     C_R   0.133019 0.299502 0.470593 -0.141575
C67   C     C_R   0.176015 0.217129 0.478208 -0.108732
C68   C     C_R   0.176963 0.170187 0.555041 -0.101526
C69   C     C_R   0.134783 0.205574 0.624368 -0.157518
C70   C     C_R   0.091571 0.287905 0.616978 -0.095897
H36   H     H_    0.132497 0.335137 0.410687 0.129842
H37   H     H_    0.208331 0.189677 0.424402 0.160102
H38   H     H_    0.210206 0.106357 0.560855 0.124284
H39   H     H_    0.135517 0.169171 0.683817 0.129391
H40   H     H_    0.059177 0.314773 0.671115 0.126463
O19   O     O_3   0.914753 0.670671 0.508330 -0.741119
H41   H     H_    0.854509 0.664117 0.520813 0.335262
O20   O     O_3   0.917449 0.341389 0.552232 -0.754510
H42   H     H_    0.860153 0.352697 0.573249 0.320405
C71   C     C_R   0.641601 0.095221 0.570936 0.132294
C72   C     C_R   0.696949 0.139984 0.516425 -0.162867
C73   C     C_R   0.768691 0.180813 0.548148 -0.119414
C74   C     C_R   0.785153 0.178076 0.634513 -0.114113
C75   C     C_R   0.729832 0.134309 0.689198 -0.137976
C76   C     C_R   0.658277 0.092724 0.657570 -0.123508
H43   H     H_    0.685389 0.141514 0.449313 0.135206
H44   H     H_    0.811812 0.213563 0.505414 0.178000
H45   H     H_    0.841002 0.209222 0.659096 0.151486
H46   H     H_    0.742965 0.131790 0.755923 0.135219
H47   H     H_    0.616419 0.057596 0.700094 0.117639
C77   C     C_R   0.637367 0.897879 0.577760 0.135922
C78   C     C_R   0.624392 0.846458 0.651412 -0.162203
C79   C     C_R   0.689996 0.795875 0.686893 -0.127107
C80   C     C_R   0.769058 0.796763 0.649415 -0.116980
C81   C     C_R   0.782578 0.848207 0.576402 -0.127682
C82   C     C_R   0.716951 0.898349 0.540396 -0.114864
H48   H     H_    0.563569 0.845682 0.681188 0.114758
H49   H     H_    0.679543 0.756049 0.743443 0.144780
H50   H     H_    0.819825 0.757578 0.676898 0.133197
H51   H     H_    0.843849 0.848940 0.547494 0.167551
H52   H     H_    0.727965 0.937203 0.483361 0.133489

loop_
_geom_bond_atom_site_label_1
_geom_bond_atom_site_label_2
_ccdc_geom_bond_type
C58   H30   S    
O12   H14   S    
C54   C55   A    
C3    O17   S    
C55   C56   A    
O11   H13   S    
Cu2   O4    S    
C59   C60   A    
C71   C76   A    
O15   H17   S    
C48   C49   A    
C26   O6    A    
O20   H42   S    
O17   H19   S    
C7    C11   A    
C42   H6    S    
C29   C30   S    
C45   H9    S    
C5    C6    T    
C17   C26   S    
C52   H25   S    
Cu2   N1    S    
C19   C21   A    
C7    O19   S    
C18   C77   S    
C72   H43   S    
C57   H29   S    
C3    C33   S    
C63   C64   A    
C29   C33   S    
C47   C52   A    
C31   O16   S    
C18   C19   A    
C65   C70   A    
C28   O14   S    
C9    C13   S    
C70   H40   S    
C60   C61   A    
C1    O2    A    
C25   N1    T    
C49   H22   S    
C81   H51   S    
C68   H38   S    
Cu1   Cu2   S    
C8    C9    A    
C5    C33   S    
C50   H23   S    
C24   N2    T    
C80   C81   A    
Cu2   O8    S    
C59   C64   A    
Cu1   O5    S    
C51   C52   A    
C22   O9    S    
C62   H33   S    
C14   O4    A    
C27   O7    A    
C2    C53   S    
C42   C43   A    
C37   H2    S    
C31   C35   S    
C8    O20   S    
C44   C45   A    
C28   O11   S    
C44   H8    S    
C57   C58   A    
C26   O5    A    
C62   C63   A    
C36   H1    S    
C4    C34   S    
C64   H35   S    
C30   C34   S    
C3    O18   S    
C39   C40   A    
C35   C36   A    
C23   O10   S    
C66   C67   A    
Cu1   N2    S    
C77   C78   A    
C40   H5    S    
C49   C50   A    
C41   C42   A    
O13   H15   S    
C11   C59   S    
O14   H16   S    
C43   C44   A    
C2    C47   S    
Cu1   O1    S    
C78   H48   S    
C45   C46   A    
C6    C14   S    
C73   H44   S    
O16   H18   S    
C12   C15   S    
Cu2   O2    S    
C19   C71   S    
C38   C39   A    
C53   C58   A    
C31   C34   S    
C55   H27   S    
C1    C16   S    
C80   H50   S    
C74   C75   A    
C41   C46   A    
C4    C32   T    
C10   C12   A    
C75   H46   S    
C14   O3    A    
C27   O8    A    
C36   C37   A    
C20   C22   A    
C28   C33   S    
C63   H34   S    
C79   H49   S    
C21   C23   A    
O19   H41   S    
Cu2   O6    S    
C77   C82   A    
Cu1   O7    S    
C82   H52   S    
C61   C62   A    
C54   H26   S    
C7    C9    A    
C21   C25   S    
C46   H10   S    
C27   C32   S    
C22   C23   A    
C76   H47   S    
C28   C31   S    
C39   H4    S    
C10   C65   S    
C48   H21   S    
C74   H45   S    
C43   H7    S    
C73   C74   A    
C35   C40   A    
C29   O12   S    
C71   C72   A    
C38   H3    S    
C13   C17   T    
C60   H31   S    
C30   O15   S    
C2    C3    S    
C47   C48   A    
O10   H12   S    
C78   C79   A    
C2    C34   S    
C66   H36   S    
C68   C69   A    
C69   H39   S    
C69   C70   A    
C30   C41   S    
C50   C51   A    
C67   H37   S    
C18   C20   A    
O9    H11   S    
Cu1   O3    S    
C72   C73   A    
C1    O1    A    
C61   H32   S    
C29   O13   S    
C81   C82   A    
O18   H20   S    
C8    C10   A    
C37   C38   A    
C56   C57   A    
C79   C80   A    
C56   H28   S    
C53   C54   A    
C65   C66   A    
C75   C76   A    
C51   H24   S    
C20   C24   S    
C15   C16   T    
C11   C12   A    
C67   C68   A    
