data_mof_unit_19767.cif
_audit_creation_date              2012-12-11T14:50:41-0500
_audit_creation_method            fapswitch 2.2
_symmetry_space_group_name_H-M    P1
_symmetry_Int_Tables_number       1
_space_group_crystal_system       triclinic
_cell_length_a                    10.913606
_cell_length_b                    10.891183
_cell_length_c                    18.79365
_cell_angle_alpha                 89.933663
_cell_angle_beta                  89.733302
_cell_angle_gamma                 60.041565
_cell_volume                      1935.35990734

loop_
_atom_site_label
_atom_site_type_symbol
_atom_type_description
_atom_site_fract_x
_atom_site_fract_y
_atom_site_fract_z
_atom_type_partial_charge
C1    C     C_R   0.237390 0.646142 0.610046 0.545605
C2    C     C_3   0.667920 0.553354 0.800691 -0.248196
C3    C     C_3   0.699366 0.674849 0.811921 0.048010
C4    C     C_3   0.669714 0.647833 0.676379 0.055810
C5    C     C_3   0.817274 0.629598 0.689890 -0.246879
C6    C     C_3   0.652646 0.535814 0.720738 -0.212807
C7    C     C_R   0.789033 0.138571 0.708500 -0.155492
C8    C     C_R   0.806316 0.120024 0.782055 -0.147737
C9    C     C_R   0.687149 0.164459 0.826276 0.020895
C10   C     C_R   0.551604 0.235375 0.797201 -0.143213
C11   C     C_R   0.535138 0.248232 0.724621 -0.139621
C12   C     C_R   0.653668 0.622255 0.601069 0.533498
C13   C     C_R   0.653059 0.198183 0.679512 0.020781
C14   C     C_R   0.187165 0.555821 0.721749 -0.159940
C15   C     C_R   0.177633 0.560380 0.795721 -0.155107
C16   C     C_R   0.174565 0.673497 0.833173 0.027899
C17   C     C_R   0.190085 0.776541 0.796264 -0.149443
C18   C     C_R   0.197274 0.773218 0.723116 -0.146566
C19   C     C_R   0.197212 0.662362 0.685007 0.027001
C20   C     C_R   0.802472 0.588965 0.292441 -0.110084
C21   C     C_R   0.818946 0.605128 0.221026 -0.122990
C22   C     C_R   0.709004 0.712255 0.181805 0.027027
C23   C     C_R   0.625742 0.232639 0.604398 0.539955
C24   C     C_R   0.583176 0.809486 0.216559 -0.135823
C25   C     C_R   0.564173 0.789896 0.288524 -0.142371
C26   C     C_R   0.672002 0.674820 0.325772 0.026423
C27   C     C_R   0.529786 0.189696 0.283807 -0.174498
C28   C     C_R   0.531224 0.184941 0.210979 -0.155775
C29   C     C_R   0.650056 0.166473 0.174214 -0.020254
C30   C     C_R   0.764382 0.161256 0.210708 -0.100365
C31   C     C_R   0.766979 0.160806 0.284309 0.248450
C32   C     C_R   0.645389 0.180714 0.321496 0.016903
C33   C     C_R   0.244234 0.731898 0.280097 -0.066303
C34   C     C_R   0.233712 0.644104 0.397499 0.571642
C35   C     C_R   0.229350 0.733921 0.207636 -0.096640
C36   C     C_R   0.174888 0.654799 0.176740 0.026607
C37   C     C_R   0.162559 0.553035 0.216691 -0.147707
C38   C     C_R   0.175918 0.551977 0.290100 -0.143680
C39   C     C_R   0.208016 0.648590 0.322170 0.054011
C40   C     C_R   0.701557 0.104195 0.896788 0.541655
C41   C     C_R   0.723746 0.688473 0.887899 0.552252
C42   C     C_R   0.117897 0.706544 0.905337 0.540844
C43   C     C_R   0.673795 0.109979 0.103085 0.546439
C44   C     C_R   0.732280 0.718386 0.105462 0.573004
C45   C     C_R   0.644807 0.626453 0.393624 0.539292
C46   C     C_R   0.100381 0.704820 0.110279 0.547523
C47   C     C_R   0.618030 0.228345 0.394784 0.573137
C48   C     C_3   0.574222 0.814405 0.781532 -0.231430
C49   C     C_3   0.555990 0.797926 0.701651 -0.239413
C50   C     C_3   0.835768 0.642367 0.769917 -0.222279
Cr1   Cr    Cr6+3 0.392930 0.397900 0.502230 1.017194
Cr2   Cr    Cr6+3 0.398240 0.708600 0.501260 1.035066
Cr3   Cr    Cr6+3 0.708800 0.393470 0.496460 1.096869
Cr4   Cr    Cr6+3 0.937620 0.938540 0.007640 1.020147
Cr5   Cr    Cr6+3 0.625150 0.937450 0.994520 1.009176
Cr6   Cr    Cr6+3 0.937990 0.625080 0.001190 1.005544
H1    H     H_    0.594520 0.904100 0.789156 0.149716
H2    H     H_    0.734339 0.426815 0.704596 0.146490
H3    H     H_    0.926496 0.540769 0.788634 0.135607
H4    H     H_    0.902108 0.524233 0.670809 0.135367
H5    H     H_    0.880854 0.103789 0.674430 0.126741
H6    H     H_    0.912170 0.063675 0.803698 0.132143
H7    H     H_    0.458256 0.271247 0.830328 0.129032
H8    H     H_    0.429028 0.298431 0.703783 0.138950
H9    H     H_    0.187492 0.469115 0.693466 0.115536
H10   H     H_    0.165573 0.479594 0.823215 0.120688
H11   H     H_    0.187962 0.865304 0.823401 0.126611
H12   H     H_    0.474407 0.841290 0.810249 0.121886
H13   H     H_    0.205987 0.856948 0.696691 0.128185
H14   H     H_    0.889336 0.502025 0.320050 0.170569
H15   H     H_    0.916066 0.528713 0.195576 0.133892
H16   H     H_    0.497988 0.895815 0.187724 0.130840
H17   H     H_    0.463652 0.859886 0.313807 0.118934
H18   H     H_    0.434714 0.204905 0.310207 0.151470
H19   H     H_    0.442300 0.188006 0.183869 0.142553
H20   H     H_    0.857286 0.145371 0.181854 0.190603
H21   H     H_    0.282242 0.797507 0.303161 0.148352
H22   H     H_    0.448047 0.814835 0.692625 0.138590
H23   H     H_    0.248388 0.806916 0.176737 0.149415
H24   H     H_    0.134680 0.481134 0.191821 0.117827
H25   H     H_    0.159575 0.477899 0.321537 0.128042
H26   H     H_    0.565496 0.880321 0.670983 0.124184
H27   H     H_    0.862060 0.727555 0.779273 0.132224
H28   H     H_    0.829021 0.711872 0.660405 0.120436
H29   H     H_    0.754870 0.452442 0.822660 0.133662
H30   H     H_    0.568653 0.576999 0.829012 0.121464
H31   H     H_    0.547364 0.546237 0.710560 0.128295
O1    O     O_R   0.507430 0.255570 0.581420 -0.527188
O2    O     O_R   0.524460 0.695920 0.424060 -0.517892
O3    O     O_R   0.736530 0.504260 0.414810 -0.473589
O4    O     O_R   0.691460 0.277160 0.422180 -0.422593
O5    O     O_3   0.499990 0.499990 0.499980 -0.270818
O6    O     O_R   0.089490 0.825610 0.930610 -0.526654
O7    O     O_R   0.818370 0.054540 0.929880 -0.503394
O8    O     O_R   0.605870 0.077310 0.915530 -0.527214
O9    O     O_R   0.646440 0.806700 0.917570 -0.503811
O10   O     O_R   0.837200 0.593290 0.915250 -0.523292
O11   O     O_R   0.065330 0.635370 0.931590 -0.510233
O12   O     O_R   0.280190 0.527390 0.578910 -0.508103
O13   O     O_R   0.068300 0.828790 0.091860 -0.507333
O14   O     O_R   0.798730 0.057480 0.079370 -0.504888
O15   O     O_R   0.584680 0.080480 0.076790 -0.529727
O16   O     O_R   0.626790 0.809640 0.067050 -0.502165
O17   O     O_R   0.816010 0.596460 0.076500 -0.516590
O18   O     O_R   0.045680 0.638310 0.081070 -0.528296
O19   O     O_3   0.833590 0.833690 0.001120 -0.267599
O20   O     O_R   0.260310 0.739740 0.584580 -0.520634
O21   O     O_R   0.532250 0.695150 0.573830 -0.512628
O22   O     O_R   0.744930 0.503430 0.576380 -0.527736
O23   O     O_R   0.699250 0.276390 0.571950 -0.499498
O24   O     O_R   0.499020 0.256400 0.419850 -0.540047
O25   O     O_R   0.272400 0.528160 0.429140 -0.514304
O26   O     O_R   0.251910 0.740570 0.423020 -0.484073
S1    S     S_3+6 0.928891 0.120084 0.325667 -0.003824
O27   O     O_2   0.920296 0.252650 0.354309 -0.291515
O28   O     O_2   0.959362 0.017294 0.385524 -0.270853
O29   O     O_3   0.061504 0.048546 0.265880 -0.574231
H32   H     H_    0.137861 0.061243 0.286463 0.348369

loop_
_geom_bond_atom_site_label_1
_geom_bond_atom_site_label_2
_ccdc_geom_bond_type
Cr3   O23   S    
Cr1   O25   S    
C42   O6    A    
C34   O25   A    
C6    H2    S    
Cr4   O14   S    
C35   C36   A    
Cr6   O11   S    
Cr4   O13   S    
C1    O12   A    
S1    O27   D    
C44   O17   A    
C7    C8    A    
Cr2   O26   S    
C34   O26   A    
Cr5   O15   S    
C33   C39   A    
C21   H15   S    
C50   H3    S    
C36   C37   A    
C42   O11   A    
C38   C39   A    
C41   O9    A    
C15   C16   A    
C46   O18   A    
Cr5   O16   S    
C3    C48   S    
C49   H22   S    
C13   C23   S    
C2    H29   S    
C18   C19   A    
C7    H5    S    
Cr4   O6    S    
C26   C45   S    
C3    C50   S    
C22   C44   S    
C10   H7    S    
Cr2   O20   S    
C8    C9    A    
Cr3   O4    S    
C36   C46   S    
C4    C12   S    
C29   C30   A    
C45   O2    A    
C9    C10   A    
C31   S1    S    
C25   H17   S    
C18   H13   S    
C21   C22   A    
C29   C43   S    
C20   H14   S    
Cr2   O2    S    
C2    C6    S    
Cr6   O10   S    
C12   O22   A    
C44   O16   A    
C50   H27   S    
Cr1   O12   S    
C37   H24   S    
C17   H11   S    
C1    C19   S    
Cr4   O19   S    
Cr5   O19   S    
C34   C39   S    
C48   H1    S    
C24   C25   A    
Cr6   O17   S    
Cr5   O8    S    
C11   H8    S    
C12   O21   A    
C5    H28   S    
C16   C17   A    
C25   C26   A    
C15   H10   S    
C9    C40   S    
C6    H31   S    
C49   H26   S    
C43   O14   A    
C37   C38   A    
Cr1   O5    S    
C30   H20   S    
C31   C32   A    
C7    C13   A    
Cr3   O5    S    
C17   C18   A    
C48   H12   S    
C45   O3    A    
Cr6   O19   S    
C1    O20   A    
C4    C6    S    
C48   C49   S    
C23   O1    A    
C38   H25   S    
C32   C47   S    
C41   O10   A    
C5    C50   S    
Cr2   O5    S    
C40   O8    A    
C27   H18   S    
C16   C42   S    
Cr3   O3    S    
C24   H16   S    
Cr3   O22   S    
C23   O23   A    
C46   O13   A    
C28   C29   A    
Cr1   O24   S    
C5    H4    S    
C27   C32   A    
C47   O4    A    
C14   C19   A    
C40   O7    A    
Cr5   O9    S    
Cr1   O1    S    
S1    O28   D    
C4    C49   S    
C2    C3    S    
C43   O15   A    
O29   H32   S    
C11   C13   A    
C33   H21   S    
C30   C31   A    
C20   C26   A    
C47   O24   A    
C35   H23   S    
C33   C35   A    
C14   H9    S    
C2    H30   S    
C22   C24   A    
Cr6   O18   S    
Cr4   O7    S    
S1    O29   S    
C3    C41   S    
C10   C11   A    
C4    C5    S    
C20   C21   A    
Cr2   O21   S    
C27   C28   A    
C14   C15   A    
C28   H19   S    
C8    H6    S    
