data_mof_unit_57669.cif
_audit_creation_date              2012-12-10T17:40:51-0500
_audit_creation_method            fapswitch 2.2
_symmetry_space_group_name_H-M    P1
_symmetry_Int_Tables_number       1
_space_group_crystal_system       triclinic
_cell_length_a                    14.863012
_cell_length_b                    15.432466
_cell_length_c                    9.857076
_cell_angle_alpha                 89.999929
_cell_angle_beta                  88.96894
_cell_angle_gamma                 90.000016
_cell_volume                      2260.58030129

loop_
_atom_site_label
_atom_site_type_symbol
_atom_type_description
_atom_site_fract_x
_atom_site_fract_y
_atom_site_fract_z
_atom_type_partial_charge
C1    C     C_R   0.383799 0.876057 0.501901 0.861023
C2    C     C_R   0.719002 0.218384 0.380898 -0.222066
C3    C     C_R   0.219002 0.281616 0.380899 -0.222066
C4    C     C_R   0.219002 0.718384 0.380898 -0.222066
C5    C     C_R   0.671908 0.800633 0.500791 -0.119358
C6    C     C_R   0.671908 0.199367 0.500791 -0.119359
C7    C     C_R   0.171908 0.300633 0.500791 -0.119358
C8    C     C_R   0.171908 0.699367 0.500791 -0.119358
C9    C     C_R   0.335131 0.000000 0.144622 -0.176252
C10   C     C_R   0.835131 0.500000 0.144622 -0.176251
C11   C     C_R   0.254181 0.000000 0.075915 -0.228941
C12   C     C_R   0.383799 0.123943 0.501901 0.861021
C13   C     C_R   0.754181 0.500000 0.075915 -0.228941
C14   C     C_R   0.254427 1.000000 0.935572 -0.173121
C15   C     C_R   0.754427 0.500000 0.935572 -0.173122
C16   C     C_R   0.335621 1.000000 0.863232 -0.147403
C17   C     C_R   0.835621 0.500000 0.863232 -0.147402
C18   C     C_R   0.418855 1.000000 0.929554 0.136348
C19   C     C_R   0.918855 0.500000 0.929554 0.136349
C20   C     C_R   0.418783 0.000000 0.074482 0.163867
C21   C     C_R   0.918783 0.500000 0.074482 0.163866
C22   C     C_R   0.577645 0.000000 0.069568 -0.160285
C23   C     C_R   0.883799 0.376057 0.501901 0.861023
C24   C     C_R   0.077645 0.500000 0.069568 -0.160286
C25   C     C_R   0.613279 0.125634 0.499841 0.887881
C26   C     C_R   0.613279 0.874366 0.499841 0.887882
C27   C     C_R   0.113279 0.625634 0.499841 0.887882
C28   C     C_R   0.113279 0.374366 0.499841 0.887882
C29   C     C_R   0.577605 0.000000 0.926057 -0.143348
C30   C     C_R   0.077605 0.500000 0.926057 -0.143347
C31   C     C_R   0.313266 0.205940 0.762717 -0.206771
C32   C     C_R   0.313266 0.794060 0.762717 -0.206773
C33   C     C_R   0.813267 0.705940 0.762717 -0.206772
C34   C     C_R   0.883799 0.623943 0.501901 0.861022
C35   C     C_R   0.813265 0.294060 0.762717 -0.206773
C36   C     C_R   0.260041 0.216318 0.879565 -0.176512
C37   C     C_R   0.260040 0.783682 0.879565 -0.176513
C38   C     C_R   0.760042 0.716318 0.879565 -0.176513
C39   C     C_R   0.760039 0.283682 0.879565 -0.176513
C40   C     C_R   0.669735 0.739847 0.869125 0.153663
C41   C     C_R   0.669732 0.260153 0.869124 0.153663
C42   C     C_R   0.169734 0.239847 0.869124 0.153663
C43   C     C_R   0.169733 0.760153 0.869124 0.153663
C44   C     C_R   0.636903 0.762014 0.741518 -0.191536
C45   C     C_R   0.289967 0.225464 0.383607 -0.224351
C46   C     C_R   0.636901 0.237987 0.741517 -0.191537
C47   C     C_R   0.136902 0.262014 0.741518 -0.191536
C48   C     C_R   0.136901 0.737986 0.741517 -0.191535
C49   C     C_R   0.693634 0.759950 0.624493 0.069752
C50   C     C_R   0.693633 0.240051 0.624492 0.069753
C51   C     C_R   0.193634 0.259950 0.624492 0.069752
C52   C     C_R   0.193633 0.740050 0.624492 0.069752
C53   C     C_R   0.277010 0.218978 0.632028 0.097824
C54   C     C_R   0.277010 0.781022 0.632028 0.097824
C55   C     C_R   0.777010 0.718979 0.632028 0.097824
C56   C     C_R   0.289966 0.774536 0.383607 -0.224351
C57   C     C_R   0.777009 0.281022 0.632028 0.097824
C58   C     C_R   0.319561 0.193545 0.507699 -0.112927
C59   C     C_R   0.319560 0.806455 0.507699 -0.112926
C60   C     C_R   0.819561 0.693545 0.507699 -0.112926
C61   C     C_R   0.819560 0.306455 0.507699 -0.112927
C62   C     C_3   0.610355 0.747961 0.994149 -0.432098
C63   C     C_3   0.533387 0.681813 0.994007 -0.343756
C64   C     C_3   0.470962 0.694674 0.116987 -0.875306
C65   C     C_3   0.610352 0.252040 0.994147 -0.432095
C66   C     C_3   0.533386 0.318190 0.994006 -0.343754
C67   C     C_R   0.789966 0.725464 0.383607 -0.224351
C68   C     C_3   0.470957 0.305327 0.116981 -0.875307
C69   C     C_3   0.110354 0.247960 0.994148 -0.432098
C70   C     C_3   0.033386 0.181812 0.994006 -0.343757
C71   C     C_3   0.970960 0.194673 0.116986 -0.875307
C72   C     C_3   0.110352 0.752040 0.994148 -0.432098
C73   C     C_3   0.033384 0.818187 0.994004 -0.343753
C74   C     C_3   0.970959 0.805327 0.116985 -0.875298
C75   C     C_R   0.789967 0.274536 0.383607 -0.224350
C76   C     C_R   0.719002 0.781616 0.380899 -0.222066
H1    H     H_    0.322327 0.208079 0.288116 0.169844
H2    H     H_    0.140859 0.500000 0.870041 0.163759
H3    H     H_    0.383305 0.191040 0.777899 0.171478
H4    H     H_    0.383304 0.808960 0.777899 0.171477
H5    H     H_    0.883305 0.691040 0.777898 0.171476
H6    H     H_    0.883304 0.308960 0.777899 0.171477
H7    H     H_    0.289127 0.204342 0.977806 0.143881
H8    H     H_    0.289126 0.795658 0.977806 0.143883
H9    H     H_    0.789128 0.704343 0.977806 0.143883
H10   H     H_    0.789125 0.295658 0.977807 0.143883
H11   H     H_    0.567053 0.781050 0.734768 0.150421
H12   H     H_    0.322327 0.791921 0.288116 0.169843
H13   H     H_    0.567052 0.218951 0.734765 0.150420
H14   H     H_    0.067053 0.281050 0.734767 0.150421
H15   H     H_    0.067052 0.718950 0.734766 0.150420
H16   H     H_    0.702330 0.811407 0.285118 0.163717
H17   H     H_    0.702330 0.188592 0.285118 0.163717
H18   H     H_    0.202330 0.311408 0.285118 0.163718
H19   H     H_    0.202330 0.688593 0.285118 0.163717
H20   H     H_    0.640920 0.000000 0.122098 0.150378
H21   H     H_    0.140920 0.500000 0.122098 0.150378
H22   H     H_    0.329031 0.000000 0.252253 0.215331
H23   H     H_    0.822327 0.708078 0.288116 0.169843
H24   H     H_    0.829031 0.500000 0.252253 0.215331
H25   H     H_    0.190881 0.000000 0.132046 0.155350
H26   H     H_    0.690881 0.500000 0.132046 0.155350
H27   H     H_    0.508567 0.685943 0.212427 0.267034
H28   H     H_    0.441338 0.760752 0.115326 0.256905
H29   H     H_    0.415501 0.646519 0.114581 0.244791
H30   H     H_    0.493150 0.688950 0.900730 0.213824
H31   H     H_    0.561589 0.615096 0.996211 0.221021
H32   H     H_    0.650409 0.737920 0.086925 0.196258
H33   H     H_    0.582406 0.814680 0.998558 0.213082
H34   H     H_    0.822328 0.291921 0.288116 0.169843
H35   H     H_    0.441329 0.239251 0.115309 0.256901
H36   H     H_    0.508561 0.314049 0.212423 0.267036
H37   H     H_    0.415500 0.353486 0.114579 0.244792
H38   H     H_    0.561590 0.384907 0.996216 0.221020
H39   H     H_    0.493151 0.311058 0.900725 0.213825
H40   H     H_    0.582400 0.185321 0.998554 0.213082
H41   H     H_    0.650406 0.262078 0.086924 0.196256
H42   H     H_    0.008566 0.185942 0.212426 0.267034
H43   H     H_    0.941337 0.260751 0.115324 0.256906
H44   H     H_    0.915500 0.146518 0.114580 0.244792
H45   H     H_    0.191376 1.000000 0.882224 0.147202
H46   H     H_    0.993149 0.188949 0.900728 0.213824
H47   H     H_    0.061588 0.115095 0.996210 0.221021
H48   H     H_    0.150408 0.237919 0.086925 0.196258
H49   H     H_    0.082405 0.314680 0.998557 0.213082
H50   H     H_    0.941338 0.739246 0.115327 0.256904
H51   H     H_    0.008564 0.814061 0.212425 0.267031
H52   H     H_    0.915496 0.853480 0.114576 0.244790
H53   H     H_    0.061585 0.884905 0.996205 0.221019
H54   H     H_    0.993146 0.811048 0.900726 0.213822
H55   H     H_    0.082404 0.685320 0.998558 0.213081
H56   H     H_    0.691376 0.500000 0.882224 0.147202
H57   H     H_    0.150406 0.762082 0.086925 0.196259
H58   H     H_    0.330366 1.000000 0.755742 0.215384
H59   H     H_    0.830366 0.500000 0.755742 0.215384
H60   H     H_    0.640859 0.000000 0.870041 0.163759
N1    N     N_R   0.498810 0.000000 0.142780 -0.116649
N2    N     N_R   0.998810 0.500000 0.142780 -0.116650
N3    N     N_R   0.498740 0.000000 0.857170 -0.126906
N4    N     N_R   0.998740 0.500000 0.857170 -0.126906
O1    O     O_R   0.408390 0.908380 0.614690 -0.656574
O2    O     O_R   0.591620 0.908390 0.614640 -0.621572
O3    O     O_R   0.091620 0.591610 0.614640 -0.621572
O4    O     O_R   0.091620 0.408390 0.614640 -0.621572
O5    O     O_R   0.591610 0.091610 0.385310 -0.616410
O6    O     O_R   0.591610 0.908390 0.385310 -0.616409
O7    O     O_R   0.091610 0.591610 0.385310 -0.616410
O8    O     O_R   0.091610 0.408390 0.385310 -0.616409
O9    O     O_R   0.408390 0.091620 0.614690 -0.656574
O10   O     O_R   0.908390 0.408380 0.614690 -0.656574
O11   O     O_R   0.908390 0.591620 0.614690 -0.656574
O12   O     O_R   0.408370 0.908380 0.385360 -0.638174
O13   O     O_R   0.408370 0.091620 0.385360 -0.638173
O14   O     O_R   0.908370 0.408380 0.385360 -0.638174
O15   O     O_R   0.908370 0.591620 0.385360 -0.638175
O16   O     O_R   0.591620 0.091610 0.614640 -0.621571
Zn1   Zn    Zn3+2 0.500010 0.000000 0.653130 0.911343
Zn2   Zn    Zn3+2 0.000010 0.500000 0.653130 0.911343
Zn3   Zn    Zn3+2 0.499980 0.000000 0.346870 0.923964
Zn4   Zn    Zn3+2 0.999980 0.500000 0.346870 0.923963

loop_
_geom_bond_atom_site_label_1
_geom_bond_atom_site_label_2
_ccdc_geom_bond_type
C44   C49   A    
C33   C55   A    
C64   H27   S    
C66   C68   S    
C37   C43   A    
C9    H22   S    
C22   C29   A    
C73   C74   S    
C36   C42   A    
C12   O13   A    
C4    C8    A    
C16   H58   S    
C64   H29   S    
C39   C41   A    
C46   H13   S    
C34   O15   A    
C61   C75   A    
C22   N1    A    
C43   C72   S    
C71   H44   S    
O3    Zn2   S    
O16   Zn1   S    
C19   C21   A    
C3    C7    A    
C1    C59   S    
C68   H36   S    
O5    Zn3   S    
C11   C14   A    
C56   H12   S    
C6    C25   S    
C62   H32   S    
C36   H7    S    
C31   H3    S    
O9    Zn1   S    
C40   C62   S    
C1    O12   A    
C15   C17   A    
O8    Zn4   S    
C26   O6    A    
N4    Zn2   S    
C70   H47   S    
C74   H52   S    
C15   H56   S    
C60   C67   A    
C19   N4    A    
C48   H15   S    
C17   H59   S    
C27   O3    A    
C41   C46   A    
C37   H8    S    
C70   C71   S    
C28   O4    A    
C44   H11   S    
O10   Zn2   S    
C43   C48   A    
C8    C52   A    
C40   C44   A    
C67   H23   S    
C68   H37   S    
C12   C58   S    
O12   Zn3   S    
C69   H49   S    
C14   H45   S    
C55   C60   A    
C4    C56   A    
C25   O16   A    
C34   C60   S    
C5    C49   A    
C2    C6    A    
C21   N2    A    
O7    Zn4   S    
C32   C54   A    
C35   H6    S    
C52   C54   A    
C54   C59   A    
C10   C21   A    
C29   N3    A    
C73   H53   S    
C45   C58   A    
C28   O8    A    
C30   N4    A    
C66   H39   S    
N1    Zn3   S    
C38   H9    S    
C24   H21   S    
O11   Zn2   S    
C17   C19   A    
C41   C65   S    
O6    Zn3   S    
C69   H48   S    
C24   N2    A    
C49   C55   A    
C3    C45   A    
C42   C69   S    
C31   C53   A    
C7    C28   S    
C63   C64   S    
C51   C53   A    
C68   H35   S    
C20   N1    A    
O13   Zn3   S    
C35   C39   A    
O14   Zn4   S    
C62   C63   S    
C32   H4    S    
C4    H19   S    
C70   H46   S    
C9    C20   A    
C74   H51   S    
C23   C61   S    
C53   C58   A    
C11   H25   S    
C16   C18   A    
C32   C37   A    
C6    C50   A    
C63   H30   S    
C10   H24   S    
C9    C11   A    
C76   H16   S    
C18   N3    A    
O1    Zn1   S    
C23   O10   A    
C13   C15   A    
C65   H40   S    
C14   C16   A    
O2    Zn1   S    
O4    Zn2   S    
C72   H55   S    
C64   H28   S    
C73   H54   S    
C75   H34   S    
C66   H38   S    
C71   H42   S    
O15   Zn4   S    
C50   C57   A    
C22   H20   S    
C12   O9    A    
C2    H17   S    
C72   C73   S    
C10   C13   A    
C47   C51   A    
C34   O11   A    
C57   C61   A    
C46   C50   A    
C33   C38   A    
C56   C59   A    
C71   H43   S    
C35   C57   A    
C5    C76   A    
C7    C51   A    
C38   C40   A    
C72   H57   S    
C74   H50   S    
C62   H33   S    
C33   H5    S    
C47   H14   S    
C3    H18   S    
C18   C20   A    
C42   C47   A    
C69   C70   S    
C24   C30   A    
C1    O1    A    
C5    C26   S    
C30   H2    S    
N2    Zn4   S    
C48   C52   A    
C29   H60   S    
N3    Zn1   S    
C27   O7    A    
C65   C66   S    
C23   O14   A    
C8    C27   S    
C65   H41   S    
C31   C36   A    
C25   O5    A    
C67   C76   A    
C39   H10   S    
C45   H1    S    
C13   H26   S    
C26   O2    A    
C63   H31   S    
C2    C75   A    
