data_mof_unit_58077.cif
_audit_creation_date              2012-10-26T19:57:11-0400
_audit_creation_method            fapswitch 2.2
_symmetry_space_group_name_H-M    P1
_symmetry_Int_Tables_number       1
_space_group_crystal_system       triclinic
_cell_length_a                    13.047
_cell_length_b                    10.938831
_cell_length_c                    9.68939
_cell_angle_alpha                 88.700383
_cell_angle_beta                  93.87898
_cell_angle_gamma                 90.980163
_cell_volume                      1379.168441

loop_
_atom_site_label
_atom_site_type_symbol
_atom_type_description
_atom_site_fract_x
_atom_site_fract_y
_atom_site_fract_z
_atom_type_partial_charge
C1    C     C_R   0.502053 0.265522 0.501476 0.547805
C2    C     C_2   0.509553 0.134035 0.504838 -0.161312
C3    C     C_2   0.444917 0.423547 0.921931 0.077754
C4    C     C_R   0.300647 0.502180 0.478094 0.531865
C5    C     C_2   0.429486 0.447491 0.072273 -0.014596
C6    C     C_R   0.494197 0.734587 0.497553 0.558764
C7    C     C_R   0.698412 0.498812 0.523238 0.547364
C8    C     C_R   0.809025 0.486924 0.531250 0.000691
C9    C     C_R   0.188662 0.514808 0.473265 -0.006465
C10   C     C_R   0.036857 0.599388 0.352766 -0.148864
C11   C     C_R   0.141526 0.577345 0.358809 -0.167295
C12   C     C_R   0.020795 0.458039 0.546388 0.061480
C13   C     C_R   0.126968 0.469547 0.580220 0.017433
C14   C     C_3   0.828483 0.690609 0.397404 -0.248907
C15   C     C_3   0.881399 0.798456 0.474875 -0.313472
C16   C     C_3   0.830537 0.919948 0.434824 -0.448550
C17   C     C_3   0.401121 0.305088 0.861154 -0.210314
C18   C     C_3   0.331858 0.228439 0.953342 -0.351547
C19   C     C_3   0.293098 0.112517 0.880864 -0.461504
C20   C     C_3   0.163898 0.460075 0.734607 -0.247493
C21   C     C_3   0.097994 0.536260 0.826354 -0.309884
C22   C     C_3   0.142532 0.538154 0.976181 -0.462690
C23   C     C_R   0.975178 0.542196 0.449338 0.013552
C24   C     C_3   0.385473 0.902452 0.587718 -0.280320
C25   C     C_3   0.286073 0.825443 0.567218 -0.290526
C26   C     C_3   0.200218 0.873950 0.649226 -0.465284
C27   C     C_R   0.870360 0.568668 0.455252 -0.036445
C28   C     C_R   0.852553 0.384548 0.603042 0.073069
C29   C     C_R   0.958858 0.371639 0.613095 0.123718
C30   C     C_2   0.501670 0.939318 0.389104 0.070092
C31   C     C_2   0.465705 0.863541 0.489524 0.001247
C32   C     C_2   0.487880 0.070974 0.389798 -0.108519
Cu1   Cu    Cu3+1 0.500020 0.500020 0.638640 0.890690
Cu2   Cu    Cu3+1 0.499980 0.499980 0.361360 0.912243
H1    H     H_    0.532998 0.088210 0.602346 0.096636
H2    H     H_    0.876464 0.996066 0.483063 0.149153
H3    H     H_    0.878015 0.783042 0.588349 0.164580
H4    H     H_    0.963462 0.805794 0.451771 0.165718
H5    H     H_    0.838619 0.699227 0.284773 0.133639
H6    H     H_    0.745000 0.697997 0.408506 0.160480
H7    H     H_    0.247884 0.136241 0.782941 0.157958
H8    H     H_    0.358752 0.054835 0.857734 0.150249
H9    H     H_    0.242928 0.059222 0.949051 0.149207
H10   H     H_    0.375568 0.201450 0.051487 0.166564
H11   H     H_    0.264199 0.282184 0.977491 0.147698
H12   H     H_    0.524248 0.578486 0.892937 0.204900
H13   H     H_    0.355787 0.325596 0.763127 0.190836
H14   H     H_    0.467105 0.246807 0.841092 0.174509
H15   H     H_    0.735602 0.259108 0.592110 0.238074
H16   H     H_    0.752958 0.331110 0.746372 0.256957
H17   H     H_    0.982273 0.265646 0.786246 0.244315
H18   H     H_    0.974081 0.188165 0.636337 0.247222
H19   H     H_    0.144161 0.444145 0.021781 0.152525
H20   H     H_    0.221528 0.578058 0.982189 0.151527
H21   H     H_    0.093556 0.595059 0.037603 0.142572
H22   H     H_    0.094202 0.631867 0.785173 0.158388
H23   H     H_    0.361565 0.411765 0.118268 0.145417
H24   H     H_    0.018467 0.499171 0.827007 0.177774
H25   H     H_    0.165426 0.363341 0.770551 0.168965
H26   H     H_    0.241247 0.497051 0.757834 0.183500
H27   H     H_    0.620701 0.845718 0.316593 0.234900
H28   H     H_    0.509086 0.842780 0.212704 0.252992
H29   H     H_    0.223435 0.871203 0.761636 0.153276
H30   H     H_    0.181536 0.969197 0.615633 0.155501
H31   H     H_    0.130177 0.815924 0.630790 0.139645
H32   H     H_    0.259608 0.825375 0.455669 0.159142
H33   H     H_    0.300693 0.730024 0.602617 0.195331
H34   H     H_    0.566672 0.523531 0.110733 0.208528
H35   H     H_    0.417816 0.891620 0.696299 0.142596
H36   H     H_    0.363004 0.999023 0.571444 0.148090
H37   H     H_    0.004722 0.657444 0.269630 0.111031
H38   H     H_    0.186929 0.617347 0.279279 0.125870
H39   H     H_    0.469348 0.117264 0.291053 0.158858
H40   H     H_    0.825921 0.934287 0.320728 0.162807
H41   H     H_    0.752273 0.921732 0.473015 0.162051
N1    N     N_2   0.498860 0.498660 0.846770 -0.351690
N2    N     N_2   0.498840 0.498630 0.152900 -0.362097
N3    N     N_3   0.790305 0.292347 0.666390 -0.645373
N4    N     N_3   0.003834 0.267081 0.684210 -0.649622
N5    N     N_3   0.557811 0.896428 0.277467 -0.634501
O1    O     O_R   0.500020 0.321960 0.617050 -0.517616
O2    O     O_R   0.499980 0.321920 0.382890 -0.482959
O3    O     O_R   0.349010 0.500000 0.598060 -0.535530
O4    O     O_R   0.348980 0.499950 0.363910 -0.498774
O5    O     O_R   0.500020 0.678080 0.617110 -0.503175
O6    O     O_R   0.499980 0.678040 0.382950 -0.504995
O7    O     O_R   0.651020 0.500050 0.636090 -0.495853
O8    O     O_R   0.650990 0.500000 0.401940 -0.501578

loop_
_geom_bond_atom_site_label_1
_geom_bond_atom_site_label_2
_ccdc_geom_bond_type
C2    H1    S    
C12   C29   A    
C16   H41   S    
C25   H33   S    
C17   H14   S    
H12   N1    S    
C24   H36   S    
C7    C8    S    
C22   H20   S    
C12   C23   A    
C6    O5    A    
C16   H40   S    
H28   N5    S    
C28   C29   A    
C18   C19   S    
Cu2   N2    S    
C30   C31   D    
H27   N5    S    
C1    O1    A    
C15   C16   S    
C9    C13   A    
H15   N3    S    
C2    C32   D    
C1    C2    S    
Cu2   O6    S    
C26   H30   S    
C15   H3    S    
Cu1   O5    S    
C14   H5    S    
C7    O7    A    
C29   N4    S    
C23   C27   A    
C14   C27   S    
C20   H26   S    
H18   N4    S    
C28   N3    S    
C19   H8    S    
C30   N5    S    
C10   H37   S    
C6    C31   S    
C21   C22   S    
Cu2   O4    S    
H16   N3    S    
C19   H9    S    
C24   H35   S    
Cu1   Cu2   S    
C22   H19   S    
C24   C25   S    
C32   H39   S    
C11   H38   S    
C25   C26   S    
C26   H29   S    
C15   H4    S    
C18   H10   S    
C9    C11   A    
Cu1   N1    S    
C7    O8    A    
C4    O4    A    
C17   C18   S    
Cu2   O8    S    
C12   C13   A    
C20   H25   S    
C3    N1    D    
Cu1   O3    S    
C8    C28   A    
C5    N2    D    
C18   H11   S    
H34   N2    S    
C13   C20   S    
C26   H31   S    
C25   H32   S    
C17   H13   S    
C3    C5    S    
C21   H22   S    
C22   H21   S    
C10   C23   A    
C6    O6    A    
C5    H23   S    
Cu1   O7    S    
C24   C31   S    
C21   H24   S    
C16   H2    S    
C30   C32   S    
C1    O2    A    
C4    O3    A    
C3    C17   S    
H17   N4    S    
C10   C11   A    
C14   H6    S    
C20   C21   S    
C8    C27   A    
C14   C15   S    
Cu2   O2    S    
C4    C9    S    
Cu1   O1    S    
C19   H7    S    
