data_mof_unit_56275.cif
_audit_creation_date              2012-12-11T15:21:36-0500
_audit_creation_method            fapswitch 2.2
_symmetry_space_group_name_H-M    P1
_symmetry_Int_Tables_number       1
_space_group_crystal_system       triclinic
_cell_length_a                    19.788933
_cell_length_b                    7.386875
_cell_length_c                    17.327562
_cell_angle_alpha                 90.000374
_cell_angle_beta                  108.292804
_cell_angle_gamma                 90.000065
_cell_volume                      2404.91375571

loop_
_atom_site_label
_atom_site_type_symbol
_atom_type_description
_atom_site_fract_x
_atom_site_fract_y
_atom_site_fract_z
_atom_type_partial_charge
O1    O     O_R   0.562310 0.505770 0.439670 -0.536899
O2    O     O_R   0.437690 0.005770 0.560330 -0.536896
O3    O     O_R   0.411650 0.169150 0.405330 -0.547615
O4    O     O_R   0.588350 0.669150 0.594670 -0.547612
C1    C     C_R   0.385069 0.345971 0.383062 0.682416
C2    C     C_R   0.614930 0.845971 0.616938 0.682431
O5    O     O_R   0.560140 0.175610 0.430010 -0.535886
O6    O     O_R   0.439860 0.675610 0.569990 -0.535886
O7    O     O_R   0.587240 0.012100 0.585200 -0.498761
O8    O     O_R   0.412760 0.512100 0.414800 -0.498764
C3    C     C_R   0.581696 0.343818 0.416519 0.720832
C4    C     C_R   0.418305 0.843819 0.583481 0.720829
O9    O     O_3   0.508720 0.341420 0.550890 -0.372596
O10   O     O_3   0.491280 0.841420 0.449110 -0.372601
V1    V     V_3+5 0.498380 0.063930 0.490560 1.478881
V2    V     V_3+5 0.501620 0.563930 0.509440 1.478880
C5    C     C_R   0.197392 0.860774 0.897207 0.455895
C6    C     C_R   0.802606 0.360784 0.102790 0.455890
C7    C     C_R   0.125871 0.911363 0.860150 -0.184124
C8    C     C_R   0.874128 0.411363 0.139849 -0.184118
C9    C     C_R   0.101126 0.936932 0.775181 -0.253558
C10   C     C_R   0.898874 0.436915 0.224819 -0.253567
C11   C     C_R   0.147475 0.916598 0.727527 -0.026263
C12   C     C_R   0.852525 0.416581 0.272472 -0.026267
C13   C     C_R   0.218928 0.863979 0.765365 -0.115062
C14   C     C_R   0.781069 0.363980 0.234632 -0.115064
C15   C     C_R   0.243661 0.829425 0.850245 -0.048052
C16   C     C_R   0.756336 0.329439 0.149751 -0.048051
C17   C     C_R   0.124395 0.949243 0.642649 0.388324
C18   C     C_R   0.875606 0.449207 0.357352 0.388328
C19   C     C_R   0.173971 0.960499 0.599287 0.392740
C20   C     C_R   0.826030 0.460469 0.400715 0.392733
C21   C     C_R   0.245522 0.908874 0.636836 -0.039163
C22   C     C_R   0.754478 0.408861 0.363163 -0.039163
C23   C     C_R   0.266520 0.851078 0.718694 -0.056661
C24   C     C_R   0.733478 0.351080 0.281303 -0.056664
C25   C     C_R   0.336570 0.790196 0.755457 -0.001522
C26   C     C_R   0.663425 0.290213 0.244538 -0.001520
C27   C     C_R   0.358234 0.739748 0.837421 -0.280161
C28   C     C_R   0.641759 0.239783 0.162571 -0.280161
C29   C     C_R   0.314962 0.771113 0.886495 0.476092
C30   C     C_R   0.685032 0.271146 0.113499 0.476095
C31   C     C_R   0.296279 0.912425 0.594329 -0.256951
C32   C     C_R   0.703723 0.412410 0.405672 -0.256952
C33   C     C_R   0.366288 0.849850 0.630508 -0.166404
C34   C     C_R   0.633712 0.349848 0.369492 -0.166404
C35   C     C_R   0.386463 0.793702 0.712230 0.449896
C36   C     C_R   0.613534 0.293712 0.287768 0.449891
H1    H     H_    0.046256 0.976417 0.746783 0.169607
H2    H     H_    0.953745 0.476388 0.253219 0.169604
H3    H     H_    0.281611 0.962928 0.532844 0.153133
H4    H     H_    0.718394 0.462901 0.467160 0.153136
H5    H     H_    0.411175 0.685785 0.865459 0.174702
H6    H     H_    0.588816 0.185833 0.134531 0.174702
C37   C     C_3   0.768767 0.774802 0.832665 -0.506944
C38   C     C_3   0.231231 0.274807 0.167335 -0.506926
H7    H     H_    0.800159 0.648222 0.850994 0.207418
H8    H     H_    0.199839 0.148229 0.149000 0.207414
H9    H     H_    0.758948 0.819517 0.889450 0.148422
H10   H     H_    0.241053 0.319530 0.110553 0.148428
C39   C     C_3   0.696615 0.735347 0.763541 0.222685
C40   C     C_3   0.303381 0.235343 0.236460 0.222696
H11   H     H_    0.848250 0.707219 0.739725 0.077705
H12   H     H_    0.151749 0.207219 0.260277 0.077706
H13   H     H_    0.746908 0.696292 0.626944 0.125196
H14   H     H_    0.253092 0.196302 0.373061 0.125192
C41   C     C_3   0.825132 0.845787 0.726109 0.336831
C42   C     C_3   0.174866 0.345788 0.273893 0.336836
C43   C     C_3   0.770204 0.095796 0.794112 0.235006
C44   C     C_3   0.229793 0.595799 0.205893 0.235013
C45   C     C_3   0.815989 0.918565 0.807992 -0.149304
C46   C     C_3   0.184008 0.418566 0.192010 -0.149306
H15   H     H_    0.756793 0.099174 0.851409 0.122715
H16   H     H_    0.243201 0.599193 0.148594 0.122722
C47   C     C_3   0.687482 0.870302 0.688151 -0.059876
C48   C     C_3   0.312516 0.370301 0.311850 -0.059867
C49   C     C_3   0.751823 0.830293 0.656568 -0.493424
C50   C     C_3   0.248176 0.330299 0.343434 -0.493429
C51   C     C_3   0.694468 0.072089 0.725259 0.793740
C52   C     C_3   0.305530 0.572086 0.274741 0.793731
H17   H     H_    0.750664 0.907368 0.602217 0.157711
H18   H     H_    0.249336 0.407382 0.397784 0.157713
O11   O     O_R   0.087220 0.271820 0.085230 -0.555084
O12   O     O_R   0.912780 0.771820 0.914770 -0.555089
O13   O     O_R   0.939860 0.595540 0.069990 -0.548830
O14   O     O_R   0.060140 0.095540 0.930010 -0.548826
C53   C     C_R   0.922485 0.426021 0.088373 0.737632
C54   C     C_R   0.077515 0.926021 0.911626 0.737642
O15   O     O_R   0.088340 0.601930 0.094680 -0.516273
O16   O     O_R   0.911660 0.101930 0.905320 -0.516268
O17   O     O_R   0.062310 0.765410 0.939660 -0.519879
O18   O     O_R   0.937690 0.265410 0.060340 -0.519880
C55   C     C_R   0.113386 0.432760 0.119798 0.709122
C56   C     C_R   0.886613 0.932759 0.880203 0.709134
O19   O     O_3   0.991270 0.429630 0.949130 -0.391944
O20   O     O_3   0.008730 0.929630 0.050870 -0.391946
V3    V     V_3+5 0.001620 0.707150 0.009440 1.432314
V4    V     V_3+5 0.998380 0.207150 0.990560 1.432325
O21   O     O_3   0.222654 0.849548 0.980711 -0.531784
C57   C     C_3   0.245616 0.024076 0.010086 -0.210620
H19   H     H_    0.271207 0.013685 0.075804 0.159092
H20   H     H_    0.200087 0.119176 0.998940 0.129052
H21   H     H_    0.285861 0.080090 0.983813 0.133559
O22   O     O_3   0.777343 0.349561 0.019286 -0.531784
C58   C     C_3   0.754390 0.524094 0.989914 -0.210613
H22   H     H_    0.728779 0.513702 0.924201 0.159099
H23   H     H_    0.799925 0.619162 0.001039 0.129065
H24   H     H_    0.714164 0.580147 0.016204 0.133534
C59   C     C_3   0.633625 0.734887 0.799623 -0.664333
H25   H     H_    0.640277 0.838248 0.847745 0.226035
H26   H     H_    0.582889 0.752838 0.750161 0.250190
H27   H     H_    0.628230 0.607039 0.830556 0.161310
C60   C     C_3   0.366372 0.234865 0.200380 -0.664314
H28   H     H_    0.359724 0.338220 0.152257 0.226043
H29   H     H_    0.417108 0.252814 0.249843 0.250182
H30   H     H_    0.371764 0.107014 0.169448 0.161302
C61   C     C_3   0.700780 0.542904 0.737717 -0.627882
H31   H     H_    0.711740 0.460638 0.791815 0.229062
H32   H     H_    0.650480 0.498178 0.695264 0.263428
H33   H     H_    0.745113 0.516268 0.714760 0.225132
C62   C     C_3   0.299208 0.042905 0.262284 -0.627930
H34   H     H_    0.288252 0.960632 0.208188 0.229069
H35   H     H_    0.349505 0.998184 0.304744 0.263433
H36   H     H_    0.254871 0.016279 0.285237 0.225132
O23   O     O_3   0.802898 0.270591 0.800713 -0.569104
C63   C     C_3   0.860168 0.307141 0.770378 -0.084927
H37   H     H_    0.842354 0.360914 0.708333 0.071241
H38   H     H_    0.900044 0.201060 0.777668 0.185882
H39   H     H_    0.890431 0.420999 0.806740 0.132464
O24   O     O_3   0.197098 0.770591 0.199304 -0.569112
C64   C     C_3   0.139821 0.807124 0.229630 -0.084908
H40   H     H_    0.157627 0.860884 0.291678 0.071251
H41   H     H_    0.099944 0.701041 0.222329 0.185877
H42   H     H_    0.109561 0.920988 0.193271 0.132453
O25   O     O_3   0.637160 0.072042 0.759042 -0.583827
C65   C     C_3   0.624679 0.225054 0.800517 -0.292354
H43   H     H_    0.671096 0.267308 0.851349 0.167829
H44   H     H_    0.586570 0.186291 0.832141 0.148785
H45   H     H_    0.596683 0.330824 0.757434 0.180262
O26   O     O_3   0.362833 0.572030 0.240949 -0.583836
C66   C     C_3   0.375321 0.725063 0.199494 -0.292333
H46   H     H_    0.328909 0.767321 0.148657 0.167818
H47   H     H_    0.413440 0.686324 0.167879 0.148765
H48   H     H_    0.403311 0.830820 0.242590 0.180280
O27   O     O_3   0.679185 0.214756 0.666818 -0.541092
C67   C     C_3   0.716940 0.223380 0.610284 -0.276645
H49   H     H_    0.688255 0.150407 0.553676 0.149987
H50   H     H_    0.772074 0.177214 0.634311 0.172757
H51   H     H_    0.718527 0.366416 0.592363 0.127856
O28   O     O_3   0.320819 0.714753 0.333183 -0.541098
C68   C     C_3   0.283065 0.723390 0.389718 -0.276627
H52   H     H_    0.311749 0.650417 0.446326 0.149984
H53   H     H_    0.227931 0.677229 0.365692 0.172753
H54   H     H_    0.281483 0.866428 0.407639 0.127853
O29   O     O_3   0.871264 0.957686 0.700113 -0.580092
C69   C     C_3   0.902223 0.863468 0.649431 -0.350336
H55   H     H_    0.861890 0.799386 0.596944 0.192513
H56   H     H_    0.940476 0.760734 0.684902 0.145885
H57   H     H_    0.931077 0.964290 0.624557 0.215108
O30   O     O_3   0.128734 0.457684 0.299891 -0.580091
C70   C     C_3   0.097779 0.363465 0.350576 -0.350322
H58   H     H_    0.138116 0.299407 0.403067 0.192522
H59   H     H_    0.059533 0.260714 0.315109 0.145877
H60   H     H_    0.068920 0.464283 0.375446 0.215118
O31   O     O_3   0.052970 0.967991 0.600438 -0.562192
C71   C     C_3   0.026902 0.795503 0.569274 -0.253406
H61   H     H_    0.024849 0.703079 0.619083 0.135101
H62   H     H_    0.059197 0.729722 0.535095 0.149353
H63   H     H_    0.972319 0.810879 0.526224 0.196983
O32   O     O_3   0.947032 0.467919 0.399565 -0.562188
C72   C     C_3   0.973089 0.295405 0.430703 -0.253436
H64   H     H_    0.975136 0.203014 0.380881 0.135082
H65   H     H_    0.940790 0.229607 0.464873 0.149335
H66   H     H_    0.027673 0.310746 0.473755 0.197046
O33   O     O_3   0.152793 0.040941 0.523266 -0.550578
C73   C     C_3   0.140331 0.909392 0.461284 -0.303314
H67   H     H_    0.163409 0.773085 0.481685 0.129459
H68   H     H_    0.164164 0.959559 0.415620 0.134433
H69   H     H_    0.082215 0.896403 0.430538 0.175186
O34   O     O_3   0.847210 0.540899 0.476738 -0.550582
C74   C     C_3   0.859684 0.409334 0.538714 -0.303259
H70   H     H_    0.836591 0.273042 0.518313 0.129444
H71   H     H_    0.835875 0.459502 0.584399 0.134434
H72   H     H_    0.917804 0.396318 0.569435 0.175218
O35   O     O_3   0.457492 0.771122 0.754415 -0.572220
C75   C     C_3   0.483239 0.939521 0.790567 -0.333736
H73   H     H_    0.445101 0.016986 0.813608 0.131838
H74   H     H_    0.498189 0.024252 0.745622 0.194466
H75   H     H_    0.529820 0.914990 0.844754 0.178041
O36   O     O_3   0.542505 0.271132 0.245585 -0.572222
C76   C     C_3   0.516757 0.439537 0.209442 -0.333731
H76   H     H_    0.554893 0.517014 0.186405 0.131834
H77   H     H_    0.501806 0.524252 0.254393 0.194467
H78   H     H_    0.470175 0.415014 0.155255 0.178049
O37   O     O_3   0.341728 0.741137 0.969734 -0.527128
C77   C     C_3   0.405876 0.838848 0.003826 -0.271027
H79   H     H_    0.452252 0.749317 0.009395 0.138292
H80   H     H_    0.408564 0.885168 0.065403 0.151538
H81   H     H_    0.409970 0.963827 0.969356 0.116632
O38   O     O_3   0.658264 0.241187 0.030258 -0.527133
C78   C     C_3   0.594125 0.338930 0.996172 -0.271040
H82   H     H_    0.547741 0.249435 0.990612 0.138291
H83   H     H_    0.591433 0.385224 0.934590 0.151541
H84   H     H_    0.590048 0.463925 0.030639 0.116641

loop_
_geom_bond_atom_site_label_1
_geom_bond_atom_site_label_2
_ccdc_geom_bond_type
C18   C20   A    
C72   H64   S    
O31   C71   S    
C37   H9    S    
C78   H82   S    
O1    C3    A    
C64   H42   S    
C39   C59   S    
C2    O7    A    
C9    H1    S    
C70   H58   S    
O19   V4    S    
O18   V4    S    
C2    C47   S    
C27   C29   A    
C45   C56   S    
C19   O33   S    
C74   H70   S    
C39   C47   S    
C52   O28   S    
C58   H23   S    
O36   C76   S    
O12   V3    S    
C11   C17   A    
C69   H55   S    
C23   C25   A    
C12   C14   A    
C67   H49   S    
C59   H26   S    
O27   C67   S    
O14   C54   A    
O32   C72   S    
O11   C55   A    
C8    C53   S    
C44   O24   S    
C6    C8    A    
C41   O29   S    
C68   H54   S    
C17   O31   S    
C43   C45   S    
C27   H5    S    
C15   C29   A    
C18   O32   S    
C62   H36   S    
C5    C7    A    
C66   H46   S    
C73   H69   S    
O33   C73   S    
O38   C78   S    
C38   C46   S    
O11   V4    S    
C41   C49   S    
C44   H16   S    
C68   H52   S    
C19   C21   A    
C43   H15   S    
C35   O35   S    
C36   O36   S    
C42   C46   S    
C10   H2    S    
C60   H30   S    
C32   H4    S    
C28   C30   A    
O2    C4    A    
O6    V2    S    
C53   O18   A    
C71   H62   S    
C78   H83   S    
C40   C48   S    
C77   H81   S    
O22   C58   S    
C70   H59   S    
C32   C34   A    
O16   C56   A    
C67   H50   S    
O13   C53   A    
C9    C11   A    
C42   C50   S    
H14   C50   S    
C72   H66   S    
C34   C36   A    
H13   C49   S    
C39   C61   S    
C76   H76   S    
C5    C15   A    
O25   C65   S    
C6    C16   A    
O26   C66   S    
C40   C60   S    
C51   O27   S    
C7    C54   S    
C59   H27   S    
C4    C33   S    
C61   H32   S    
C65   H43   S    
C6    O22   S    
C63   H39   S    
O3    C1    A    
C52   O26   S    
C44   C52   S    
C57   H21   S    
C38   H10   S    
O15   V3    S    
C66   H47   S    
C20   C22   A    
O4    V2    S    
O5    C3    A    
C76   H77   S    
H11   C41   S    
C67   H51   S    
C5    O21   S    
C50   H18   S    
O21   C57   S    
C54   O17   A    
C49   H17   S    
O6    C4    A    
O20   V3    S    
C57   H20   S    
C22   C32   A    
O1    V2    S    
O12   C56   A    
C58   H24   S    
O17   V3    S    
O2    V1    S    
C47   C49   S    
C62   H34   S    
C38   C40   S    
C13   C23   A    
C46   C55   S    
C65   H44   S    
C73   H67   S    
C8    C10   A    
C28   H6    S    
C37   H7    S    
C71   H61   S    
C78   H84   S    
C10   C12   A    
C61   H33   S    
O4    C2    A    
C25   C35   A    
C75   H74   S    
C64   H40   S    
H12   C42   S    
C70   H60   S    
O3    V1    S    
O34   C74   S    
C43   C51   S    
C60   H28   S    
C74   H72   S    
C14   C24   A    
C30   O38   S    
C29   O37   S    
C63   H38   S    
C16   C30   A    
C7    C9    A    
O10   V1    S    
C26   C36   A    
C69   H57   S    
C48   C52   S    
C48   C50   S    
C77   H79   S    
C64   H41   S    
C66   H48   S    
C13   C15   A    
C51   O25   S    
C58   H22   S    
C14   C16   A    
O30   C70   S    
C75   H75   S    
C69   H56   S    
O24   C64   S    
O7    V1    S    
C76   H78   S    
C1    O8    A    
C17   C19   A    
O8    V2    S    
C61   H31   S    
C65   H45   S    
C24   C26   A    
C26   C28   A    
C31   H3    S    
O35   C75   S    
O23   C63   S    
C1    C48   S    
C63   H37   S    
C37   C39   S    
O5    V1    S    
C57   H19   S    
C21   C23   A    
C22   C24   A    
C38   H8    S    
C41   C45   S    
C68   H53   S    
O15   C55   A    
O14   V4    S    
C12   C18   A    
C62   H35   S    
C77   H80   S    
O13   V3    S    
C43   O23   S    
O37   C77   S    
C72   H65   S    
C74   H71   S    
C11   C13   A    
C33   C35   A    
C71   H63   S    
C25   C27   A    
O9    V2    S    
C59   H25   S    
O29   C69   S    
O28   C68   S    
C20   O34   S    
C3    C34   S    
C44   C46   S    
C75   H73   S    
C42   O30   S    
C21   C31   A    
C47   C51   S    
C31   C33   A    
O16   V4    S    
C40   C62   S    
C37   C45   S    
C73   H68   S    
C60   H29   S    
