data_mof_unit_12852.cif
_audit_creation_date              2012-12-11T14:01:07-0500
_audit_creation_method            fapswitch 2.2
_symmetry_space_group_name_H-M    P1
_symmetry_Int_Tables_number       1
_space_group_crystal_system       triclinic
_cell_length_a                    18.852866
_cell_length_b                    11.016183
_cell_length_c                    18.71629
_cell_angle_alpha                 90.049654
_cell_angle_beta                  90.086128
_cell_angle_gamma                 90.140253
_cell_volume                      3887.10553526

loop_
_atom_site_label
_atom_site_type_symbol
_atom_type_description
_atom_site_fract_x
_atom_site_fract_y
_atom_site_fract_z
_atom_type_partial_charge
C1    C     C_R   0.271111 0.045705 0.851648 0.545597
C2    C     C_R   0.728888 0.045592 0.148327 0.551964
C3    C     C_R   0.771112 0.545702 0.851650 0.545759
C4    C     C_R   0.228889 0.545593 0.148328 0.551662
C5    C     C_R   0.473840 0.050829 0.072259 0.257506
C6    C     C_R   0.518965 0.056075 0.928812 0.260505
C7    C     C_R   0.973930 0.550870 0.072211 0.257379
C8    C     C_R   0.019059 0.556043 0.928764 0.260671
C9    C     C_R   0.979561 0.661269 0.035022 -0.173227
C10   C     C_R   0.004351 0.663644 0.965123 -0.092813
C11   C     C_R   0.479435 0.161242 0.035079 -0.173204
C12   C     C_R   0.504223 0.163654 0.965179 -0.092786
C13   C     C_2   0.263510 0.635534 0.932185 -0.106012
C14   C     C_2   0.736631 0.635450 0.067817 -0.099555
C15   C     C_2   0.763511 0.135522 0.932184 -0.105828
C16   C     C_2   0.236633 0.135445 0.067817 -0.099690
C17   C     C_2   0.256695 0.606619 0.085702 -0.100115
C18   C     C_2   0.743374 0.606445 0.914341 -0.106860
C19   C     C_2   0.756690 0.106619 0.085699 -0.099818
C20   C     C_2   0.243373 0.106446 0.914339 -0.107105
C21   C     C_2   0.307745 0.557039 0.045547 -0.164520
C22   C     C_2   0.692562 0.555899 0.954526 -0.164527
C23   C     C_2   0.807754 0.057062 0.045552 -0.164355
C24   C     C_2   0.192563 0.055895 0.954526 -0.164702
C25   C     C_2   0.318564 0.597468 0.971740 -0.166479
C26   C     C_2   0.681768 0.595755 0.028426 -0.168465
C27   C     C_2   0.818570 0.097486 0.971744 -0.166439
C28   C     C_2   0.181771 0.095745 0.028426 -0.168507
C29   C     C_2   0.485922 0.828740 0.571305 -0.091210
C30   C     C_2   0.486946 0.839200 0.415196 -0.101475
C31   C     C_2   0.013741 0.339076 0.585193 -0.104015
C32   C     C_2   0.014493 0.329067 0.428954 -0.104241
C33   C     C_2   0.467072 0.741789 0.451985 -0.165974
C34   C     C_2   0.452629 0.749343 0.527739 -0.148870
C35   C     C_2   0.045676 0.247240 0.472242 -0.157258
C36   C     C_2   0.032538 0.241211 0.548260 -0.160374
C37   C     C_2   0.245706 0.564436 0.583688 -0.107823
C38   C     C_2   0.727730 0.662667 0.436807 -0.098549
C39   C     C_2   0.745552 0.064296 0.583765 -0.105966
C40   C     C_2   0.228748 0.161016 0.436691 -0.107826
C41   C     C_2   0.237968 0.568541 0.428334 -0.101742
C42   C     C_2   0.740694 0.613370 0.589081 -0.107173
C43   C     C_2   0.737892 0.068348 0.428383 -0.101080
C44   C     C_2   0.240570 0.113252 0.589101 -0.105292
C45   C     C_R   0.472055 0.822194 0.853042 0.537574
C46   C     C_R   0.527917 0.821850 0.146938 0.585869
C47   C     C_R   0.972064 0.322191 0.853035 0.535179
C48   C     C_R   0.027926 0.321853 0.146931 0.588071
C49   C     C_2   0.181626 0.556921 0.472054 -0.152064
C50   C     C_2   0.777748 0.700301 0.555579 -0.153088
C51   C     C_2   0.681500 0.057133 0.472064 -0.155516
C52   C     C_2   0.277406 0.200505 0.555712 -0.148368
C53   C     C_2   0.185730 0.582117 0.547806 -0.156930
C54   C     C_2   0.762485 0.736297 0.481853 -0.164334
C55   C     C_2   0.685640 0.082385 0.547814 -0.162065
C56   C     C_2   0.261981 0.236182 0.482006 -0.160431
C57   C     C_R   0.272817 0.679417 0.859806 0.563929
C58   C     C_R   0.727216 0.679402 0.140161 0.569287
C59   C     C_R   0.772816 0.179412 0.859806 0.563348
C60   C     C_R   0.227217 0.179398 0.140161 0.569608
C61   C     C_R   0.270616 0.049334 0.649812 0.553612
C62   C     C_R   0.726403 0.042526 0.353803 0.547718
C63   C     C_R   0.770642 0.549342 0.649802 0.554246
C64   C     C_R   0.226441 0.542615 0.353770 0.546585
C65   C     C_R   0.468032 0.823231 0.646179 0.550612
C66   C     C_R   0.527533 0.824454 0.350495 0.551257
C67   C     C_R   0.972749 0.324542 0.649716 0.555430
C68   C     C_R   0.032276 0.323168 0.354015 0.550618
C69   C     C_R   0.259616 0.633552 0.647664 0.563763
C70   C     C_R   0.724255 0.691279 0.361616 0.573089
C71   C     C_R   0.759580 0.133490 0.647701 0.568087
C72   C     C_R   0.224460 0.190744 0.361729 0.567735
C73   C     C_R   0.498311 0.828978 0.074469 0.042711
C74   C     C_R   0.502832 0.830455 0.925005 -0.014238
C75   C     C_R   0.998348 0.328991 0.074448 0.042177
C76   C     C_R   0.002870 0.330442 0.924983 -0.013566
C77   C     C_R   0.492777 0.941118 0.037501 0.035109
C78   C     C_R   0.505719 0.942492 0.962768 -0.031819
C79   C     C_R   0.992845 0.441133 0.037469 0.034806
C80   C     C_R   0.005789 0.442482 0.962736 -0.031474
C81   C     C_R   0.504484 0.721146 0.962843 -0.166340
C82   C     C_R   0.499928 0.720334 0.035772 -0.175808
C83   C     C_R   0.004517 0.221139 0.962827 -0.166186
C84   C     C_R   0.999960 0.220340 0.035756 -0.175965
Cr1   Cr    Cr6+3 0.230530 0.836340 0.748870 1.036854
Cr2   Cr    Cr6+3 0.769470 0.836340 0.251130 1.016620
Cr3   Cr    Cr6+3 0.730530 0.336340 0.748870 1.040550
Cr4   Cr    Cr6+3 0.269470 0.336340 0.251130 1.013580
Cr5   Cr    Cr6+3 0.387420 0.989430 0.750820 1.062815
Cr6   Cr    Cr6+3 0.612580 0.989430 0.249180 1.046685
Cr7   Cr    Cr6+3 0.887420 0.489430 0.750820 1.060872
Cr8   Cr    Cr6+3 0.112580 0.489430 0.249180 1.048737
Cr9   Cr    Cr6+3 0.385640 0.677860 0.749230 1.018301
Cr10  Cr    Cr6+3 0.614360 0.677860 0.250770 1.023543
Cr11  Cr    Cr6+3 0.885640 0.177860 0.749230 1.020211
Cr12  Cr    Cr6+3 0.114360 0.177860 0.250770 1.023181
H1    H     H_    0.504784 0.633989 0.935942 0.141431
H2    H     H_    0.501552 0.632709 0.061972 0.136003
H3    H     H_    0.004804 0.133978 0.935930 0.141267
H4    H     H_    0.001570 0.132718 0.061961 0.136120
H5    H     H_    0.129065 0.537048 0.451013 0.156243
H6    H     H_    0.825537 0.737872 0.579513 0.154278
H7    H     H_    0.628898 0.037599 0.450992 0.152137
H8    H     H_    0.324981 0.238681 0.579747 0.153193
H9    H     H_    0.140584 0.627170 0.572146 0.155884
H10   H     H_    0.787915 0.818109 0.461867 0.140829
H11   H     H_    0.640610 0.127890 0.572079 0.157874
H12   H     H_    0.285959 0.319440 0.462328 0.139470
H13   H     H_    0.291163 0.587877 0.447573 0.087389
H14   H     H_    0.690364 0.580739 0.568380 0.105420
H15   H     H_    0.791107 0.087265 0.447675 0.096263
H16   H     H_    0.190377 0.080281 0.568175 0.097536
H17   H     H_    0.289027 0.512555 0.560678 0.092799
H18   H     H_    0.703361 0.578421 0.454073 0.112965
H19   H     H_    0.788741 0.012006 0.560830 0.099987
H20   H     H_    0.206140 0.075178 0.453661 0.107047
H21   H     H_    0.965923 0.746179 0.060709 0.096480
H22   H     H_    0.012403 0.750171 0.938889 0.137844
H23   H     H_    0.465777 0.246133 0.060775 0.096321
H24   H     H_    0.512254 0.250195 0.938954 0.138041
H25   H     H_    0.338343 0.480086 0.064547 0.143299
H26   H     H_    0.662148 0.478470 0.935458 0.149890
H27   H     H_    0.838375 0.980139 0.064564 0.143380
H28   H     H_    0.162150 0.978466 0.935457 0.149789
H29   H     H_    0.371074 0.589163 0.948605 0.154088
H30   H     H_    0.629498 0.585531 0.051804 0.149387
H31   H     H_    0.871083 0.089211 0.948614 0.154158
H32   H     H_    0.129501 0.085514 0.051806 0.149314
H33   H     H_    0.228494 0.686874 0.067619 0.115376
H34   H     H_    0.771455 0.687101 0.932427 0.110090
H35   H     H_    0.728472 0.186853 0.067606 0.115310
H36   H     H_    0.271453 0.187102 0.932426 0.110184
H37   H     H_    0.210103 0.637536 0.953937 0.122647
H38   H     H_    0.789963 0.638971 0.045928 0.122567
H39   H     H_    0.710103 0.137497 0.953931 0.122621
H40   H     H_    0.289965 0.138972 0.045928 0.122582
H41   H     H_    0.467362 0.651785 0.428160 0.154898
H42   H     H_    0.417243 0.680145 0.548971 0.153587
H43   H     H_    0.078090 0.174619 0.450647 0.150803
H44   H     H_    0.031659 0.151343 0.572166 0.153637
H45   H     H_    0.482531 0.929771 0.437838 0.108777
H46   H     H_    0.521334 0.899166 0.551875 0.086475
H47   H     H_    0.981822 0.402711 0.448748 0.099596
H48   H     H_    0.018857 0.429586 0.562685 0.102429
O1    O     O_R   0.215090 0.709860 0.828130 -0.490421
O2    O     O_R   0.784910 0.709860 0.171870 -0.506127
O3    O     O_R   0.715090 0.209860 0.828130 -0.490896
O4    O     O_R   0.284910 0.209860 0.171870 -0.506035
O5    O     O_R   0.445660 0.919250 0.676780 -0.486310
O6    O     O_R   0.554340 0.919250 0.323220 -0.499257
O7    O     O_R   0.945660 0.419250 0.676780 -0.491106
O8    O     O_R   0.054340 0.419250 0.323220 -0.493448
O9    O     O_R   0.456260 0.718170 0.670000 -0.515285
O10   O     O_R   0.543740 0.718170 0.330000 -0.519641
O11   O     O_R   0.956260 0.218170 0.670000 -0.513766
O12   O     O_R   0.043740 0.218170 0.330000 -0.517554
O13   O     O_R   0.320940 0.626760 0.674370 -0.504123
O14   O     O_R   0.679060 0.626760 0.325630 -0.485653
O15   O     O_R   0.820940 0.126760 0.674370 -0.495087
O16   O     O_R   0.179060 0.126760 0.325630 -0.491630
O17   O     O_3   0.334530 0.834540 0.749640 -0.270901
O18   O     O_3   0.665470 0.834540 0.250360 -0.297312
O19   O     O_3   0.834530 0.334540 0.749640 -0.269560
O20   O     O_3   0.165470 0.334540 0.250360 -0.298179
O21   O     O_R   0.236990 0.958390 0.823710 -0.514468
O22   O     O_R   0.763010 0.958390 0.176290 -0.513559
O23   O     O_R   0.736990 0.458390 0.823710 -0.514280
O24   O     O_R   0.263010 0.458390 0.176290 -0.513861
O25   O     O_R   0.332380 0.074750 0.830850 -0.502615
O26   O     O_R   0.667620 0.074750 0.169150 -0.506099
O27   O     O_R   0.832380 0.574750 0.830850 -0.502754
O28   O     O_R   0.167620 0.574750 0.169150 -0.506075
O29   O     O_R   0.445800 0.917770 0.825070 -0.457977
O30   O     O_R   0.554200 0.917770 0.174930 -0.447106
O31   O     O_R   0.945800 0.417770 0.825070 -0.459163
O32   O     O_R   0.054200 0.417770 0.174930 -0.446199
O33   O     O_R   0.456410 0.716580 0.829970 -0.534753
O34   O     O_R   0.543590 0.716580 0.170030 -0.547001
O35   O     O_R   0.956410 0.216580 0.829970 -0.537158
O36   O     O_R   0.043590 0.216580 0.170030 -0.545023
O37   O     O_R   0.321080 0.625290 0.822650 -0.493943
O38   O     O_R   0.678920 0.625290 0.177350 -0.481000
O39   O     O_R   0.821080 0.125290 0.822650 -0.495242
O40   O     O_R   0.178920 0.125290 0.177350 -0.480342
O41   O     O_R   0.214930 0.711450 0.668160 -0.502757
O42   O     O_R   0.785070 0.711450 0.331840 -0.490326
O43   O     O_R   0.714930 0.211450 0.668160 -0.503437
O44   O     O_R   0.285070 0.211450 0.331840 -0.487615
O45   O     O_R   0.236850 0.959870 0.675420 -0.500156
O46   O     O_R   0.763150 0.959870 0.324580 -0.518080
O47   O     O_R   0.736850 0.459870 0.675420 -0.497860
O48   O     O_R   0.263150 0.459870 0.324580 -0.519793
O49   O     O_R   0.332230 0.076350 0.670880 -0.510633
O50   O     O_R   0.667770 0.076350 0.329120 -0.505566
O51   O     O_R   0.832230 0.576350 0.670880 -0.511458
O52   O     O_R   0.167770 0.576350 0.329120 -0.505571
O53   O     O_3   0.445041 0.047372 0.140109 -0.673398
H49   H     H_    0.434158 0.131231 0.155912 0.329169
O54   O     O_3   0.550324 0.066236 0.862481 -0.674409
H50   H     H_    0.575892 0.989830 0.851932 0.321162
O55   O     O_3   0.945109 0.547455 0.140053 -0.672645
H51   H     H_    0.934232 0.631325 0.155839 0.329344
O56   O     O_3   0.050401 0.566159 0.862422 -0.674945
H52   H     H_    0.075937 0.489724 0.851866 0.320839

loop_
_geom_bond_atom_site_label_1
_geom_bond_atom_site_label_2
_ccdc_geom_bond_type
C16   C28   D    
C69   O41   A    
Cr3   O19   S    
O56   H52   S    
C38   C70   S    
C60   O40   A    
C37   C69   S    
C9    H21   S    
O55   H51   S    
C46   O34   A    
C35   C36   S    
Cr2   O22   S    
C53   H9    S    
Cr5   O29   S    
Cr6   O6    S    
C11   H23   S    
Cr10  O38   S    
C57   O37   A    
C81   C82   A    
C3    O23   A    
C62   O46   A    
Cr12  O12   S    
C77   C78   A    
Cr8   O32   S    
C31   C67   S    
C50   C54   S    
C30   H45   S    
Cr3   O3    S    
Cr6   O18   S    
Cr11  O15   S    
C7    C79   A    
Cr1   O1    S    
C47   C76   S    
C66   O6    A    
C45   O29   A    
C31   C36   D    
C16   C60   S    
C6    O54   S    
C38   H18   S    
C49   C53   S    
C75   C84   A    
C6    C78   A    
C37   H17   S    
C51   H7    S    
C24   H28   S    
Cr1   O17   S    
C3    C18   S    
C67   O11   A    
C26   H30   S    
C41   C49   D    
C31   H48   S    
C25   H29   S    
C72   O44   A    
C32   H47   S    
C65   O9    A    
C35   H43   S    
C12   H24   S    
C27   H31   S    
C39   C55   D    
C20   C24   D    
C15   H39   S    
C33   H41   S    
C40   C56   D    
C38   C54   D    
Cr8   O8    S    
C69   O13   A    
C46   O30   A    
Cr2   O18   S    
C23   C27   S    
C4    O28   A    
C9    C10   A    
Cr10  O18   S    
C51   C55   S    
C30   C33   D    
C45   O33   A    
C32   C68   S    
C37   C53   D    
Cr8   O20   S    
Cr5   O5    S    
C28   H32   S    
O54   H50   S    
Cr10  O14   S    
C41   H13   S    
C61   O45   A    
C82   H2    S    
C48   C75   S    
Cr7   O19   S    
Cr9   O37   S    
Cr12  O40   S    
Cr2   O2    S    
C76   C83   A    
Cr5   O17   S    
C64   O48   A    
C22   H26   S    
C7    C9    A    
C19   H35   S    
C14   C58   S    
Cr3   O23   S    
Cr2   O46   S    
C54   H10   S    
C67   O7    A    
C84   H4    S    
C32   C35   D    
C76   C80   A    
C21   C25   S    
C66   O10   A    
Cr9   O33   S    
Cr3   O43   S    
C14   H38   S    
Cr4   O24   S    
Cr4   O20   S    
C17   H33   S    
C29   C34   D    
C34   H42   S    
C14   C26   D    
C4    O24   A    
C55   H11   S    
C45   C74   S    
C70   O14   A    
C20   H36   S    
C19   C23   D    
C68   O8    A    
Cr11  O19   S    
C10   H22   S    
Cr7   O51   S    
C57   O1    A    
C15   C27   D    
C83   C84   A    
Cr6   O50   S    
C1    O21   A    
Cr10  O10   S    
Cr5   O49   S    
Cr6   O26   S    
C33   C34   S    
Cr4   O4    S    
Cr7   O31   S    
Cr12  O36   S    
Cr9   O13   S    
C36   H44   S    
C30   C66   S    
C47   O35   A    
C42   C50   D    
C29   C65   S    
C4    C17   S    
C44   H16   S    
Cr11  O35   S    
Cr12  O16   S    
C2    O26   A    
Cr9   O17   S    
C50   H6    S    
C39   H19   S    
C3    O27   A    
C5    C11   A    
C22   C26   S    
C5    O53   S    
C63   O51   A    
C18   H34   S    
C75   C79   A    
C62   O50   A    
C74   C81   A    
C5    C77   A    
C16   H40   S    
C6    C12   A    
C61   O49   A    
C73   C82   A    
C48   O36   A    
Cr3   O47   S    
Cr4   O48   S    
C2    O22   A    
C52   H8    S    
C1    C20   S    
C39   C71   S    
C40   C72   S    
Cr11  O39   S    
C2    C19   S    
C18   C22   D    
C13   H37   S    
C8    O56   S    
C24   C28   S    
C71   O43   A    
Cr8   O52   S    
C68   O12   A    
Cr10  O34   S    
C44   C52   D    
C23   H27   S    
C11   C12   A    
C58   O2    A    
Cr2   O42   S    
C44   C61   S    
C71   O15   A    
Cr6   O30   S    
C72   O16   A    
Cr7   O27   S    
C58   O38   A    
Cr1   O21   S    
Cr7   O7    S    
Cr9   O9    S    
C42   H14   S    
Cr5   O25   S    
C7    O55   S    
Cr1   O41   S    
C49   H5    S    
C43   C51   D    
C40   H20   S    
C81   H1    S    
C13   C25   D    
Cr8   O28   S    
C63   O47   A    
C29   H46   S    
C64   O52   A    
C1    O25   A    
Cr11  O11   S    
C65   O5    A    
O53   H49   S    
C15   C59   S    
C70   O42   A    
C79   C80   A    
C43   H15   S    
Cr12  O20   S    
Cr4   O44   S    
C13   C57   S    
C73   C77   A    
C8    C10   A    
C74   C78   A    
C8    C80   A    
C56   H12   S    
C59   O39   A    
C21   H25   S    
C83   H3    S    
C60   O4    A    
C41   C64   S    
Cr1   O45   S    
C42   C63   S    
C46   C73   S    
C47   O31   A    
C52   C56   S    
C43   C62   S    
C59   O3    A    
C48   O32   A    
C17   C21   D    
