data_mof_unit_66980.cif
_audit_creation_date              2012-12-11T17:40:59-0500
_audit_creation_method            fapswitch 2.2
_symmetry_space_group_name_H-M    P1
_symmetry_Int_Tables_number       1
_space_group_crystal_system       triclinic
_cell_length_a                    8.247091
_cell_length_b                    12.821755
_cell_length_c                    14.237064
_cell_angle_alpha                 93.649045
_cell_angle_beta                  90.430985
_cell_angle_gamma                 98.108403
_cell_volume                      1487.17905661

loop_
_atom_site_label
_atom_site_type_symbol
_atom_type_description
_atom_site_fract_x
_atom_site_fract_y
_atom_site_fract_z
_atom_type_partial_charge
Ba1   Ba    Ba6+2 0.855630 0.555280 0.454520 1.626834
Ba2   Ba    Ba6+2 0.334200 0.444810 0.545490 1.633948
C1    C     C_3   0.532409 0.932821 0.191543 -0.074164
C2    C     C_R   0.183577 0.491158 0.194976 0.064134
C3    C     C_R   0.341727 0.533388 0.224018 -0.315007
C4    C     C_3   0.036831 0.825089 0.204088 0.496721
C5    C     C_R   0.454271 0.576293 0.160540 0.029847
C6    C     C_R   0.409594 0.582365 0.066442 -0.131072
C7    C     C_R   0.251182 0.540902 0.033964 0.001169
C8    C     C_R   0.137577 0.490694 0.097278 -0.004380
C9    C     C_R   0.054190 0.500320 0.901541 -0.025968
C10   C     C_R   0.941267 0.448693 0.964684 0.001112
C11   C     C_R   0.009644 0.499237 0.803451 0.056344
C12   C     C_3   0.557082 0.828572 0.231833 0.340474
C13   C     C_R   0.856598 0.446681 0.772940 -0.288688
C14   C     C_R   0.742823 0.403336 0.836605 -0.008560
C15   C     C_R   0.784574 0.403977 0.931831 -0.151175
C16   C     C_3   0.988013 0.891344 0.125708 -0.321493
C17   C     C_R   0.206684 0.549398 0.939023 -0.027279
C18   C     C_R   0.758019 0.176846 0.544295 -0.249152
C19   C     C_R   0.428510 0.814932 0.470565 -0.274254
C20   C     C_R   0.402755 0.994298 0.438810 -0.088814
C21   C     C_R   0.338976 0.887633 0.435528 0.039321
C22   C     C_R   0.576460 0.847865 0.518294 0.078472
C23   C     C_3   0.476900 0.297156 0.259321 0.305377
C24   C     C_R   0.639118 0.958311 0.529583 -0.015372
C25   C     C_R   0.551470 0.032004 0.486602 -0.023330
C26   C     C_R   0.614302 0.141338 0.493178 0.071262
C27   C     C_R   0.847776 0.106349 0.584113 -0.022091
C28   C     C_3   0.240178 0.762866 0.672119 0.323831
C29   C     C_R   0.787149 0.997813 0.579373 -0.085745
C30   C     C_3   0.306416 0.872419 0.715031 -0.210323
C31   C     C_3   0.957300 0.235833 0.328872 0.311962
C32   C     C_3   0.923167 0.122946 0.287623 -0.179419
C33   C     C_3   0.713697 0.672016 0.736346 0.306812
C34   C     C_3   0.461754 0.269362 0.153788 -0.402980
C35   C     C_3   0.728235 0.694596 0.842604 -0.389840
C36   C     C_3   0.052365 0.189307 0.803842 0.410901
C37   C     C_3   0.068625 0.148006 0.900861 -0.374310
C38   C     C_3   0.581552 0.161458 0.831122 0.333800
C39   C     C_3   0.522370 0.064513 0.884291 -0.120935
C40   C     C_R   0.983568 0.443666 0.060504 -0.028517
H1    H     H_    0.614701 0.845695 0.302804 -0.016948
H2    H     H_    0.831633 0.758405 0.860354 0.130545
H3    H     H_    0.750232 0.622996 0.877478 0.069226
H4    H     H_    0.612954 0.719549 0.869977 0.106974
H5    H     H_    0.434767 0.781321 0.239257 -0.020553
H6    H     H_    0.463996 0.978207 0.242718 0.108418
H7    H     H_    0.572677 0.366998 0.271765 0.045732
H8    H     H_    0.428662 0.337406 0.117061 0.066205
H9    H     H_    0.098471 0.931080 0.091583 0.111083
H10   H     H_    0.122446 0.270052 0.804212 0.078295
H11   H     H_    0.921059 0.193386 0.789968 -0.103830
H12   H     H_    0.430107 0.870960 0.745615 0.136639
H13   H     H_    0.199328 0.155228 0.922506 0.139950
H14   H     H_    0.004140 0.194471 0.953310 0.060953
H15   H     H_    0.014487 0.063663 0.899938 0.113092
H16   H     H_    0.691179 0.202453 0.870252 -0.031340
H17   H     H_    0.613794 0.137182 0.757974 0.015501
H18   H     H_    0.401874 0.026929 0.855110 0.114215
H19   H     H_    0.925632 0.794044 0.241503 0.119018
H20   H     H_    0.505475 0.089197 0.959461 0.070609
H21   H     H_    0.378101 0.533373 0.297254 0.068868
H22   H     H_    0.497573 0.621302 0.019260 0.075817
H23   H     H_    0.224326 0.895913 0.772037 0.132544
H24   H     H_    0.694789 0.368765 0.980006 0.061476
H25   H     H_    0.294013 0.593092 0.894819 0.102195
H26   H     H_    0.859744 0.945543 0.611493 0.101439
H27   H     H_    0.378904 0.731968 0.463739 0.058196
H28   H     H_    0.911695 0.840633 0.071207 0.122342
H29   H     H_    0.917277 0.952507 0.154690 0.076504
H30   H     H_    0.342551 0.725596 0.641280 0.009051
H31   H     H_    0.145897 0.767098 0.616832 0.054542
H32   H     H_    0.361511 0.022927 0.676716 0.230532
H33   H     H_    0.196070 0.951664 0.621710 0.217591
H34   H     H_    0.842135 0.263076 0.352625 0.023224
H35   H     H_    0.932972 0.057016 0.410700 0.213322
H36   H     H_    0.831778 0.977498 0.325078 0.199457
H37   H     H_    0.829850 0.648820 0.709720 0.014329
H38   H     H_    0.357131 0.316710 0.284735 0.028405
H39   H     H_    0.365058 0.200562 0.138902 0.124129
H40   H     H_    0.580162 0.249510 0.126326 0.108823
H41   H     H_    0.412720 0.986482 0.083062 0.171561
H42   H     H_    0.516848 0.886428 0.051540 0.193263
H43   H     H_    0.582294 0.916469 0.894305 0.176454
H44   H     H_    0.732812 0.013733 0.927216 0.172683
H45   H     H_    0.046787 0.241801 0.388382 0.052301
H46   H     H_    0.821389 0.445209 0.699438 0.065544
H47   H     H_    0.895061 0.402026 0.105423 0.091310
H48   H     H_    0.332475 0.046750 0.405162 0.111783
H49   H     H_    0.807614 0.259787 0.546465 0.050367
H50   H     H_    0.209454 0.765934 0.119432 0.184877
H51   H     H_    0.161588 0.698309 0.214150 0.167126
H52   H     H_    0.839778 0.120093 0.225665 0.119795
H53   H     H_    0.040270 0.096506 0.264164 0.127327
H54   H     H_    0.611974 0.606545 0.720962 0.066944
H55   H     H_    0.652100 0.980619 0.180146 0.074217
N1    N     N_3   0.316015 0.949073 0.644324 -0.520754
N2    N     N_3   0.847371 0.054165 0.356152 -0.537616
N3    N     N_3   0.440507 0.913898 0.102888 -0.504620
N4    N     N_3   0.640765 0.989990 0.876329 -0.515324
N5    N     N_3   0.112278 0.737291 0.161473 -0.479106
O1    O     O_2   0.887370 0.460630 0.272300 -0.475607
O2    O     O_2   0.180765 0.115016 0.556375 -0.487315
O3    O     O_3   0.113890 0.121653 0.735686 -0.597105
O4    O     O_3   0.129410 0.451380 0.388510 -0.489592
O5    O     O_3   0.575400 0.626570 0.547370 -0.496876
O6    O     O_2   0.344320 0.238700 0.455090 -0.459936
O7    O     O_3   0.520208 0.210394 0.304066 -0.647499
O8    O     O_2   0.413510 0.420031 0.833506 -0.487171
O9    O     O_3   0.456063 0.224710 0.829159 -0.599069
O10   O     O_3   0.670210 0.653170 0.329170 -0.486306
O11   O     O_2   0.798533 0.603503 0.162131 -0.481339
O12   O     O_3   0.682771 0.763951 0.695838 -0.636125
O13   O     O_3   0.022485 0.293155 0.255528 -0.665681
O14   O     O_3   0.659743 0.775486 0.173017 -0.632515
O15   O     O_2   0.845380 0.761330 0.544970 -0.469521
O16   O     O_3   0.088930 0.704860 0.376040 -0.492231
O17   O     O_2   0.003613 0.889243 0.433218 -0.510182
O18   O     O_3   0.146156 0.889699 0.266482 -0.646903
O19   O     O_2   0.302330 0.539400 0.727760 -0.468711
O20   O     O_3   0.060300 0.548700 0.611500 -0.494444
O21   O     O_3   0.519500 0.346920 0.670840 -0.460691
O22   O     O_3   0.168536 0.707016 0.745127 -0.660919
O23   O     O_3   0.614310 0.373510 0.452640 -0.486739
O24   O     O_3   0.100780 0.295230 0.623970 -0.477469
P1    P     P_3+3 0.054400 0.427280 0.286870 0.967526
P2    P     P_3+3 0.668300 0.742890 0.573060 0.973607
P3    P     P_3+3 0.140619 0.841631 0.379761 0.906042
P4    P     P_3+3 0.135310 0.572810 0.713130 0.967046
P5    P     P_3+3 0.058615 0.158063 0.624797 0.947083
P6    P     P_3+3 0.648089 0.645861 0.206633 0.932576
P7    P     P_3+3 0.527904 0.240143 0.425945 0.939916
P8    P     P_3+3 0.535929 0.349215 0.793327 0.952002

loop_
_geom_bond_atom_site_label_1
_geom_bond_atom_site_label_2
_ccdc_geom_bond_type
C16   H28   S    
O11   P6    D    
C8    C40   A    
C23   H38   S    
Ba2   O5    S    
Ba1   P2    S    
O19   P4    D    
C14   P8    S    
H43   N4    S    
C5    C6    A    
H32   N1    S    
C33   H54   S    
C9    C17   A    
C24   C25   A    
C4    H19   S    
C33   C35   S    
C22   C24   A    
O5    P2    S    
Ba1   O10   S    
C36   C37   S    
C36   H10   S    
C13   C14   A    
C37   H15   S    
C1    H6    S    
O13   P1    S    
C3    H21   S    
C33   O12   S    
Ba1   Ba2   S    
C4    O18   S    
Ba1   O20   S    
C10   C40   A    
C13   H46   S    
O17   P3    D    
C1    N3    S    
C7    C17   A    
C37   H13   S    
C34   H40   S    
C14   C15   A    
O2    P5    D    
C10   C15   A    
C11   P4    S    
C17   H25   S    
O1    P1    D    
C7    C8    A    
Ba1   O1    S    
H50   N5    S    
Ba1   O4    S    
C24   C29   A    
C38   H17   S    
C39   H20   S    
C30   H12   S    
Ba2   O6    S    
C16   H9    S    
C32   N2    S    
C38   O9    S    
C18   C27   A    
Ba2   O20   S    
C29   H26   S    
C4    C16   S    
C18   H49   S    
C31   O13   S    
C38   H16   S    
O21   P8    S    
O7    P7    S    
C26   P7    S    
H42   N3    S    
Ba1   P1    S    
C32   H53   S    
O3    P5    S    
C3    C5    A    
C28   H31   S    
C6    C7    A    
C18   C26   A    
Ba2   O21   S    
O4    P1    S    
Ba2   O4    S    
H33   N1    S    
O18   P3    S    
C19   H27   S    
C30   N1    S    
O12   P2    S    
C1    H55   S    
C31   H34   S    
C37   H14   S    
O14   P6    S    
C34   H39   S    
C31   C32   S    
C20   H48   S    
O22   P4    S    
Ba1   O15   S    
O10   P6    S    
C5    P6    S    
C1    C12   S    
C6    H22   S    
Ba2   O24   S    
C38   C39   S    
Ba1   O5    S    
H41   N3    S    
C11   C13   A    
C20   C25   A    
O8    P8    D    
C35   H3    S    
H36   N2    S    
C34   H8    S    
Ba2   O19   S    
O23   P7    S    
C16   H29   S    
C2    P1    S    
C32   H52   S    
C39   H18   S    
C28   O22   S    
C2    C3    A    
H51   N5    S    
C28   H30   S    
C9    C10   A    
O9    P8    S    
C12   H5    S    
C23   O7    S    
C21   P3    S    
Ba1   O23   S    
C40   H47   S    
C35   H2    S    
C19   C21   A    
C31   H45   S    
O6    P7    D    
C27   C29   A    
O16   P3    S    
C28   C30   S    
C9    C11   A    
C27   P5    S    
C36   H11   S    
O24   P5    S    
C36   O3    S    
C12   O14   S    
C33   H37   S    
Ba2   P4    S    
C39   N4    S    
H35   N2    S    
Ba1   O16   S    
C4    N5    S    
C15   H24   S    
O15   P2    D    
C23   H7    S    
C23   C34   S    
Ba2   O23   S    
C19   C22   A    
C25   C26   A    
C22   P2    S    
C20   C21   A    
C12   H1    S    
C35   H4    S    
H44   N4    S    
C2    C8    A    
O20   P4    S    
C30   H23   S    
