data_mof_unit_30375.cif
_audit_creation_date              2012-12-10T20:27:54-0500
_audit_creation_method            fapswitch 2.2
_symmetry_space_group_name_H-M    P1
_symmetry_Int_Tables_number       1
_space_group_crystal_system       triclinic
_cell_length_a                    12.94977
_cell_length_b                    10.693434
_cell_length_c                    9.920337
_cell_angle_alpha                 88.03297
_cell_angle_beta                  96.834047
_cell_angle_gamma                 90.153276
_cell_volume                      1363.1779795

loop_
_atom_site_label
_atom_site_type_symbol
_atom_type_description
_atom_site_fract_x
_atom_site_fract_y
_atom_site_fract_z
_atom_type_partial_charge
C1    C     C_R   0.503912 0.260485 0.502649 0.872891
C2    C     C_R   0.555633 0.938325 0.410704 -0.231248
C3    C     C_R   0.489570 0.872291 0.489621 -0.089176
C4    C     C_R   0.297980 0.495840 0.474600 0.907639
C5    C     C_R   0.421345 0.936799 0.561743 -0.068756
C6    C     C_3   0.396050 0.917819 0.706030 0.238783
C7    C     C_3   0.423267 0.055201 0.722673 0.210807
C8    C     C_R   0.415606 0.456935 0.059230 0.099809
C9    C     C_R   0.580111 0.551052 0.080831 0.512686
C10   C     C_R   0.581043 0.546725 0.937896 -0.219456
C11   C     C_R   0.415133 0.459657 0.916725 0.155433
C12   C     C_R   0.026662 0.508850 0.567437 0.028337
C13   C     C_3   0.372057 0.332048 0.904801 -0.585502
C14   C     C_3   0.370782 0.327029 0.057827 0.307766
C15   C     C_R   0.495932 0.739758 0.497268 0.844100
C16   C     C_R   0.701153 0.501229 0.526313 0.895320
C17   C     C_R   0.812288 0.503362 0.542465 -0.109592
C18   C     C_R   0.185115 0.485865 0.463437 -0.212403
C19   C     C_R   0.019933 0.439772 0.334744 -0.315750
C20   C     C_R   0.127354 0.453613 0.339946 0.397265
C21   C     C_R   0.134127 0.503928 0.580036 0.296089
C22   C     C_3   0.655294 0.730098 0.163579 0.097207
C23   C     C_R   0.969975 0.469884 0.446016 -0.000757
C24   C     C_3   0.687346 0.800119 0.037308 -0.455192
C25   C     C_3   0.714460 0.936414 0.065804 -0.894749
C26   C     C_3   0.405017 0.114032 0.102093 0.145676
C27   C     C_3   0.317680 0.074280 0.186170 -0.397893
C28   C     C_3   0.293214 0.935404 0.169749 -0.932746
C29   C     C_3   0.007831 0.594945 0.905456 0.102965
C30   C     C_3   0.980612 0.716034 0.970676 -0.355464
C31   C     C_3   0.961131 0.693435 0.118015 -0.953135
C32   C     C_3   0.232842 0.826743 0.629287 0.103884
C33   C     C_3   0.168857 0.906860 0.518898 -0.345862
C34   C     C_R   0.863367 0.463674 0.436056 -0.206826
C35   C     C_3   0.097412 0.825956 0.424555 -0.980328
C36   C     C_R   0.866831 0.552158 0.658866 -0.344659
C37   C     C_R   0.975274 0.554104 0.673743 0.520736
C38   C     C_R   0.434653 0.063236 0.574722 -0.053644
C39   C     C_R   0.505721 0.128403 0.505552 -0.048437
C40   C     C_R   0.562214 0.066927 0.416446 -0.190898
H1    H     H_    0.819996 0.429686 0.344156 0.189758
H2    H     H_    0.614146 0.117524 0.356091 0.167188
H3    H     H_    0.607251 0.890914 0.352452 0.135623
H4    H     H_    0.572265 0.021005 0.775980 0.340219
H5    H     H_    0.708010 0.758411 0.253913 0.176508
H6    H     H_    0.574741 0.758488 0.177896 0.137501
H7    H     H_    0.755275 0.753395 0.003227 0.246500
H8    H     H_    0.622294 0.798537 0.953564 0.209122
H9    H     H_    0.646863 0.985291 0.099063 0.270030
H10   H     H_    0.735504 0.984424 0.971885 0.273426
H11   H     H_    0.781690 0.941977 0.146072 0.253410
H12   H     H_    0.447806 0.852187 0.771946 0.124198
H13   H     H_    0.472304 0.050507 0.130112 0.176307
H14   H     H_    0.379263 0.099324 0.993135 0.160061
H15   H     H_    0.340808 0.092388 0.294913 0.245625
H16   H     H_    0.245838 0.128400 0.151569 0.211648
H17   H     H_    0.273757 0.914784 0.060643 0.279843
H18   H     H_    0.225353 0.909847 0.222976 0.274409
H19   H     H_    0.360795 0.877282 0.213288 0.274140
H20   H     H_    0.079198 0.554736 0.963875 0.185521
H21   H     H_    0.944894 0.524451 0.912194 0.112894
H22   H     H_    0.045692 0.783718 0.967340 0.243344
H23   H     H_    0.358107 0.113862 0.747761 0.148935
H24   H     H_    0.910464 0.758168 0.911324 0.215124
H25   H     H_    0.899833 0.621581 0.125770 0.284128
H26   H     H_    0.935285 0.781765 0.159121 0.271314
H27   H     H_    0.034116 0.662318 0.179654 0.284531
H28   H     H_    0.125073 0.406754 0.151598 0.309224
H29   H     H_    0.223698 0.579837 0.722304 0.349845
H30   H     H_    0.176644 0.774099 0.684968 0.203399
H31   H     H_    0.282224 0.757776 0.584764 0.120889
H32   H     H_    0.120663 0.974229 0.567245 0.237441
H33   H     H_    0.221073 0.961368 0.458307 0.225488
H34   H     H_    0.647919 0.580548 0.892007 0.158619
H35   H     H_    0.143655 0.756151 0.376920 0.262701
H36   H     H_    0.054545 0.886201 0.343355 0.268840
H37   H     H_    0.040015 0.776483 0.481826 0.281038
H38   H     H_    0.293309 0.329392 0.847181 0.221891
H39   H     H_    0.430392 0.270003 0.869118 0.266274
H40   H     H_    0.291751 0.324803 0.089455 0.137195
H41   H     H_    0.824960 0.593876 0.734322 0.160314
H42   H     H_    0.974879 0.410987 0.241745 0.149309
N1    N     N_R   0.499290 0.499140 0.142710 -0.139403
N2    N     N_R   0.499290 0.499180 0.857070 -0.118556
O1    O     O_R   0.500010 0.316790 0.614690 -0.593921
O2    O     O_3   0.665910 0.598915 0.157336 -0.634484
O3    O     O_3   0.440311 0.237855 0.127103 -0.591442
O4    O     O_3   0.030980 0.624811 0.772470 -0.651888
O5    O     O_3   0.176906 0.432566 0.227244 -0.785800
O6    O     O_3   0.186549 0.499628 0.709406 -0.745778
O7    O     O_3   0.289277 0.904037 0.724111 -0.663388
O8    O     O_R   0.500000 0.316760 0.385350 -0.571822
O9    O     O_R   0.346360 0.499990 0.595720 -0.612433
O10   O     O_R   0.346350 0.499960 0.366370 -0.561386
O11   O     O_R   0.500000 0.683240 0.614650 -0.642530
O12   O     O_R   0.499990 0.683210 0.385310 -0.640719
O13   O     O_R   0.653650 0.500040 0.633630 -0.628249
O14   O     O_R   0.653640 0.500010 0.404280 -0.581105
O15   O     O_3   0.517421 0.074380 0.806551 -0.792299
Zn1   Zn    Zn3+2 0.500010 0.500020 0.653130 0.955592
Zn2   Zn    Zn3+2 0.499990 0.499980 0.346870 1.010919

loop_
_geom_bond_atom_site_label_1
_geom_bond_atom_site_label_2
_ccdc_geom_bond_type
C31   H26   S    
C13   H39   S    
C30   H24   S    
C18   C21   A    
C10   H34   S    
C37   O4    S    
C19   C20   A    
C28   H17   S    
C31   H27   S    
C12   C23   A    
C35   H35   S    
C26   C27   S    
C7    O15   S    
C36   C37   A    
C14   O3    S    
C15   O11   A    
C38   C39   A    
H4    O15   S    
C27   H15   S    
C16   O13   A    
C32   O7    S    
C6    O7    S    
C8    N1    A    
C12   C37   A    
C25   H10   S    
C29   O4    S    
C33   H32   S    
O10   Zn2   S    
C26   O3    S    
C17   C36   A    
C14   H40   S    
C19   H42   S    
C9    C10   A    
C36   H41   S    
C4    C18   S    
C40   H2    S    
C5    C38   A    
C34   H1    S    
C26   H14   S    
C32   H31   S    
C21   O6    S    
C1    O1    A    
C29   H21   S    
C35   H36   S    
C13   C14   S    
C24   H8    S    
C24   C25   S    
C39   C40   A    
C27   H16   S    
C16   C17   S    
C32   H30   S    
C12   C21   A    
C35   H37   S    
N2    Zn1   S    
C19   C23   A    
C25   H11   S    
C29   C30   S    
C9    O2    S    
C29   H20   S    
C2    H3    S    
C23   C34   A    
H28   O5    S    
O9    Zn1   S    
C7    H23   S    
O8    Zn2   S    
C9    N1    A    
C4    O10   A    
C33   H33   S    
C22   H6    S    
C1    O8    A    
C30   H22   S    
C22   C24   S    
C17   C34   A    
H29   O6    S    
C26   H13   S    
C15   O12   A    
O13   Zn1   S    
C3    C15   S    
C28   H19   S    
C31   H25   S    
C13   H38   S    
C8    C14   S    
N1    Zn2   S    
O11   Zn1   S    
C24   H7    S    
C3    C5    A    
C6    C7    S    
C28   H18   S    
C11   N2    A    
O14   Zn2   S    
C20   O5    S    
C32   C33   S    
C2    C3    A    
O1    Zn1   S    
C11   C13   S    
C30   C31   S    
C16   O14   A    
C5    C6    S    
C8    C11   A    
C10   N2    A    
C33   C35   S    
C7    C38   S    
C18   C20   A    
C22   O2    S    
C25   H9    S    
C1    C39   S    
C4    O9    A    
C2    C40   A    
C22   H5    S    
C27   C28   S    
C6    H12   S    
O12   Zn2   S    
