data_mof_unit_49083.cif
_audit_creation_date              2012-12-10T21:00:35-0500
_audit_creation_method            fapswitch 2.2
_symmetry_space_group_name_H-M    P1
_symmetry_Int_Tables_number       1
_space_group_crystal_system       triclinic
_cell_length_a                    18.12322
_cell_length_b                    18.183755
_cell_length_c                    18.32173
_cell_angle_alpha                 119.891722
_cell_angle_beta                  89.89053
_cell_angle_gamma                 120.004143
_cell_volume                      4280.18417344

loop_
_atom_site_label
_atom_site_type_symbol
_atom_type_description
_atom_site_fract_x
_atom_site_fract_y
_atom_site_fract_z
_atom_type_partial_charge
C1    C     C_R   0.109722 0.220035 0.609813 0.784442
C2    C     C_3   0.450068 0.896825 0.946908 -0.087379
C3    C     C_R   0.375323 0.125157 0.293601 -0.129054
C4    C     C_R   0.417427 0.076602 0.287440 -0.139803
C5    C     C_R   0.452088 0.047334 0.217927 -0.160683
C6    C     C_R   0.547216 0.935998 0.843212 0.139762
C7    C     C_R   0.636056 0.967229 0.846247 -0.102527
C8    C     C_R   0.657913 0.937881 0.767750 -0.109844
C9    C     C_R   0.591335 0.877286 0.685839 -0.148983
C10   C     C_R   0.502572 0.845018 0.682181 -0.142317
C11   C     C_R   0.480495 0.874251 0.760562 -0.129134
C12   C     C_3   0.475982 0.029915 0.074425 -0.027902
C13   C     C_3   0.523315 0.970022 0.927369 0.001536
C14   C     C_3   0.413603 0.422289 0.448565 -0.137141
C15   C     C_3   0.586582 0.577480 0.551539 -0.129110
C16   C     C_3   0.490574 0.408967 0.455658 -0.196262
C17   C     C_3   0.509688 0.590912 0.544521 -0.188159
C18   C     C_3   0.551034 0.500572 0.449587 0.064101
C19   C     C_3   0.449117 0.499252 0.550526 0.066456
C20   C     C_3   0.475109 0.514140 0.441799 -0.179437
C21   C     C_R   0.890628 0.779922 0.390176 0.781575
C22   C     C_3   0.525049 0.485696 0.558338 -0.176788
C23   C     C_R   0.082548 0.151408 0.833873 -0.134381
C24   C     C_R   0.930707 0.855060 0.167085 -0.138971
C25   C     C_R   0.392766 0.780921 0.887845 0.778111
C26   C     C_R   0.607140 0.219052 0.112643 0.840212
C27   C     C_R   0.074020 0.103460 0.743466 -0.130513
C28   C     C_R   0.935653 0.901038 0.256581 -0.134511
C29   C     C_R   0.017256 0.098503 0.686552 0.150532
C30   C     C_R   0.987118 0.901424 0.314132 0.150669
C31   C     C_R   0.967957 0.140324 0.720626 -0.130008
C32   C     C_3   0.973055 0.421082 0.414857 -0.082707
C33   C     C_R   0.034684 0.856818 0.281532 -0.122328
C34   C     C_R   0.976443 0.187888 0.811019 -0.102276
C35   C     C_R   0.029866 0.811316 0.192059 -0.099617
C36   C     C_R   0.033976 0.193792 0.867651 -0.058598
C37   C     C_R   0.977694 0.810169 0.134842 -0.090376
C38   C     C_R   0.959343 0.943474 0.535854 -0.254513
C39   C     C_R   0.042235 0.056425 0.464258 -0.255298
C40   C     C_R   0.948766 0.892247 0.444965 -0.052222
C41   C     C_R   0.052523 0.107641 0.555089 -0.052235
C42   C     C_R   0.991609 0.949357 0.408666 -0.012676
C43   C     C_3   0.026779 0.578799 0.585151 -0.101798
C44   C     C_R   0.010483 0.050488 0.591513 -0.013701
C45   C     C_R   0.652504 0.661745 0.832163 -0.109041
C46   C     C_R   0.334352 0.319502 0.149523 -0.121058
C47   C     C_R   0.605738 0.595500 0.858456 -0.109329
C48   C     C_R   0.385512 0.389948 0.128351 -0.111425
C49   C     C_R   0.109753 0.499612 0.888583 0.793474
C50   C     C_R   0.890468 0.500639 0.111688 0.802671
C51   C     C_R   0.596834 0.635270 0.943607 0.132950
C52   C     C_R   0.402939 0.355706 0.047145 0.154274
C53   C     C_R   0.636739 0.742148 0.002610 -0.129235
C54   C     C_3   0.411601 0.962771 0.977858 -0.291263
C55   C     C_R   0.368151 0.250336 0.987232 -0.129689
C56   C     C_R   0.683602 0.808123 0.976073 -0.106797
C57   C     C_R   0.316796 0.180124 0.008546 -0.158403
C58   C     C_R   0.691178 0.767908 0.890829 -0.109735
C59   C     C_R   0.299649 0.214616 0.089450 -0.126706
C60   C     C_R   0.593958 0.564764 0.028023 -0.256725
C61   C     C_R   0.406289 0.430333 0.966877 -0.261366
C62   C     C_R   0.550034 0.498032 0.054426 -0.044670
C63   C     C_R   0.450118 0.498109 0.941583 -0.043840
C64   C     C_R   0.454949 0.429399 0.023286 -0.019073
C65   C     C_3   0.587995 0.037084 0.023631 -0.172140
C66   C     C_R   0.545279 0.564899 0.970837 -0.014660
C67   C     C_R   0.080706 0.767383 0.931450 -0.031765
C68   C     C_R   0.946459 0.247902 0.081112 -0.032809
C69   C     C_R   0.077427 0.712023 0.965819 -0.120481
C70   C     C_R   0.940986 0.295421 0.041763 -0.140449
C71   C     C_R   0.015172 0.604297 0.917178 0.105384
C72   C     C_R   0.991371 0.403551 0.089162 0.116223
C73   C     C_R   0.392353 0.499728 0.607745 0.768372
C74   C     C_R   0.607673 0.500185 0.392269 0.768007
C75   C     C_R   0.956254 0.550126 0.832484 -0.186996
C76   C     C_3   0.485977 0.036495 0.958837 -0.007801
C77   C     C_R   0.045881 0.465423 0.177784 -0.183872
C78   C     C_R   0.958892 0.603294 0.796849 -0.113721
C79   C     C_R   0.052472 0.419835 0.217863 -0.116317
C80   C     C_R   0.020174 0.711955 0.845382 -0.019388
C81   C     C_R   0.004976 0.311233 0.170044 -0.020567
C82   C     C_R   0.956134 0.548168 0.013039 -0.268519
C83   C     C_R   0.043898 0.451868 0.987157 -0.274066
C84   C     C_R   0.947721 0.500281 0.056048 -0.052414
C85   C     C_R   0.052671 0.500193 0.944486 -0.050569
C86   C     C_R   0.992624 0.451865 0.043384 0.006183
C87   C     C_3   0.513446 0.963119 0.042796 0.014974
C88   C     C_R   0.008489 0.549502 0.957927 0.003225
C89   C     C_R   0.394057 0.499085 0.887636 0.797162
C90   C     C_R   0.605951 0.499954 0.111369 0.813057
C91   C     C_R   0.109081 0.500377 0.607764 0.775928
C92   C     C_R   0.890883 0.499597 0.392238 0.775934
C93   C     C_3   0.072369 0.511951 0.474419 -0.142192
C94   C     C_3   0.927484 0.487970 0.525621 -0.148243
C95   C     C_3   0.046905 0.590101 0.507853 -0.214171
C96   C     C_3   0.952945 0.409803 0.492179 -0.201164
C97   C     C_3   0.948473 0.499270 0.449090 0.031011
C98   C     C_3   0.549400 0.103087 0.054545 -0.070859
C99   C     C_3   0.051386 0.500636 0.550932 0.029191
C100  C     C_2   0.019463 0.764612 0.804396 0.320383
C101  C     C_2   0.021672 0.266797 0.212387 0.323238
C102  C     C_2   0.144870 0.882454 0.988392 0.317200
C103  C     C_2   0.891079 0.132792 0.027658 0.317923
C104  C     C_2   0.469579 0.077879 0.912435 0.384001
C105  C     C_2   0.528852 0.916916 0.084480 0.369134
C106  C     C_R   0.444212 0.065764 0.153360 0.106174
C107  C     C_R   0.403222 0.116487 0.161236 -0.040704
C108  C     C_R   0.369277 0.146347 0.231219 -0.072427
H1    H     H_    0.084618 0.664138 0.513462 0.135150
H2    H     H_    0.074974 0.856984 0.325272 0.102937
H3    H     H_    0.938809 0.220654 0.837124 0.125231
H4    H     H_    0.066352 0.776701 0.167094 0.124463
H5    H     H_    0.926289 0.900135 0.563985 0.180081
H6    H     H_    0.075481 0.099855 0.436245 0.177718
H7    H     H_    0.727148 0.819043 0.870316 0.153908
H8    H     H_    0.259347 0.159960 0.105454 0.137941
H9    H     H_    0.658652 0.630819 0.766284 0.129447
H10   H     H_    0.321237 0.346099 0.212272 0.130367
H11   H     H_    0.575571 0.513284 0.812350 0.109996
H12   H     H_    0.915246 0.335768 0.486571 0.138572
H13   H     H_    0.411567 0.470918 0.174978 0.108313
H14   H     H_    0.630710 0.773958 0.068573 0.150810
H15   H     H_    0.380728 0.222784 0.924199 0.131325
H16   H     H_    0.132758 0.521960 0.454348 0.159875
H17   H     H_    0.867287 0.478280 0.545997 0.148532
H18   H     H_    0.713899 0.890400 0.021462 0.165884
H19   H     H_    0.290024 0.098920 0.962277 0.114608
H20   H     H_    0.667016 0.616694 0.050919 0.177473
H21   H     H_    0.333223 0.378150 0.943715 0.176984
H22   H     H_    0.122061 0.752792 0.031749 0.167260
H23   H     H_    0.041163 0.231297 0.937713 0.138118
H24   H     H_    0.897815 0.248300 0.973559 0.162768
H25   H     H_    0.907659 0.466761 0.794389 0.129878
H26   H     H_    0.085281 0.549186 0.215090 0.119492
H27   H     H_    0.912519 0.559031 0.730860 0.165647
H28   H     H_    0.097043 0.470165 0.285942 0.163488
H29   H     H_    0.921270 0.584610 0.021816 0.174517
H30   H     H_    0.079128 0.415868 0.978646 0.171015
H31   H     H_    0.948790 0.355810 0.344109 0.170857
H32   H     H_    0.050856 0.643914 0.655842 0.164693
H33   H     H_    0.339124 0.932019 0.958395 0.177081
H34   H     H_    0.973517 0.774492 0.065528 0.130906
H35   H     H_    0.660544 0.068814 0.044787 0.165059
H36   H     H_    0.485660 0.335649 0.419107 0.139315
H37   H     H_    0.515875 0.664983 0.581966 0.142178
H38   H     H_    0.341838 0.358314 0.406966 0.148978
H39   H     H_    0.658383 0.641336 0.593075 0.153694
H40   H     H_    0.455716 0.525775 0.392974 0.129371
H41   H     H_    0.544191 0.473652 0.606923 0.126539
H42   H     H_    0.076148 0.842139 0.828524 0.047765
H43   H     H_    0.989173 0.184185 0.176974 0.061145
H44   H     H_    0.143651 0.929512 0.969410 0.041992
H45   H     H_    0.127059 0.156063 0.877807 0.132896
H46   H     H_    0.873914 0.092463 0.059481 0.054084
H47   H     H_    0.401893 0.054498 0.888126 0.037600
H48   H     H_    0.471835 0.857420 0.087207 0.043990
H49   H     H_    0.396303 0.131417 0.112276 0.138855
H50   H     H_    0.337654 0.185195 0.236795 0.121266
H51   H     H_    0.348239 0.147378 0.347276 0.123892
H52   H     H_    0.423110 0.061450 0.336538 0.129823
H53   H     H_    0.484535 0.010488 0.215433 0.127991
H54   H     H_    0.688645 0.014884 0.909022 0.156652
H55   H     H_    0.726570 0.962543 0.770461 0.168885
H56   H     H_    0.890376 0.854129 0.122703 0.132911
H57   H     H_    0.608429 0.854923 0.625154 0.125880
H58   H     H_    0.450936 0.797582 0.618626 0.124129
H59   H     H_    0.411629 0.849444 0.756986 0.103270
H60   H     H_    0.112384 0.071430 0.718000 0.123377
H61   H     H_    0.898849 0.935446 0.280889 0.127497
H62   H     H_    0.923831 0.136868 0.677408 0.108791
O1    O     O_3   0.251620 0.500000 0.748430 -0.484741
O2    O     O_R   0.570330 0.268390 0.136490 -0.644213
O3    O     O_R   0.134680 0.268390 0.572240 -0.646047
O4    O     O_R   0.865320 0.731610 0.427760 -0.646488
O5    O     O_R   0.306670 0.731630 0.863510 -0.640385
O6    O     O_R   0.693330 0.268370 0.136490 -0.637009
O7    O     O_R   0.135450 0.439270 0.865360 -0.645450
O8    O     O_R   0.864550 0.560730 0.134640 -0.644233
O9    O     O_R   0.429670 0.560710 0.692610 -0.637531
O10   O     O_R   0.570330 0.439290 0.307390 -0.646277
O11   O     O_R   0.308540 0.439240 0.865360 -0.652514
O12   O     O_3   0.748380 0.500000 0.251570 -0.486149
O13   O     O_R   0.691460 0.560760 0.134640 -0.650421
O14   O     O_R   0.133580 0.439310 0.571150 -0.621723
O15   O     O_R   0.866420 0.560690 0.428850 -0.626192
O16   O     O_R   0.430770 0.560690 0.864590 -0.636361
O17   O     O_R   0.569230 0.439310 0.135410 -0.634689
O18   O     O_R   0.133580 0.560760 0.692610 -0.651909
O19   O     O_R   0.866420 0.439240 0.307390 -0.650752
O20   O     O_2   0.954908 0.720797 0.741394 -0.572516
O21   O     O_2   0.074391 0.322916 0.287922 -0.587101
O22   O     O_2   0.200152 0.927168 0.059308 -0.582715
O23   O     O_R   0.134680 0.560740 0.864590 -0.632931
O24   O     O_2   0.862870 0.080914 0.946324 -0.607189
O25   O     O_2   0.532124 0.137649 0.901576 -0.570979
O26   O     O_2   0.605061 0.945370 0.115001 -0.602006
O27   O     O_R   0.865320 0.439260 0.135410 -0.631162
O28   O     O_R   0.306670 0.439270 0.571150 -0.642832
O29   O     O_R   0.693330 0.560730 0.428850 -0.642694
O30   O     O_R   0.135450 0.268370 0.694460 -0.636458
O31   O     O_R   0.864550 0.731630 0.305540 -0.637812
O32   O     O_R   0.429670 0.731610 0.863510 -0.625637
Zn1   Zn    Zn3+2 0.207400 0.586780 0.791530 0.965634
Zn2   Zn    Zn3+2 0.792600 0.413220 0.208470 0.985549
Zn3   Zn    Zn3+2 0.208510 0.413230 0.792630 0.961521
Zn4   Zn    Zn3+2 0.791490 0.586770 0.207370 0.973621
Zn5   Zn    Zn3+2 0.383150 0.586740 0.791530 0.980331
Zn6   Zn    Zn3+2 0.616850 0.413260 0.208470 0.983198
Zn7   Zn    Zn3+2 0.207400 0.413250 0.618010 0.973865
Zn8   Zn    Zn3+2 0.792600 0.586750 0.381990 0.970669

loop_
_geom_bond_atom_site_label_1
_geom_bond_atom_site_label_2
_ccdc_geom_bond_type
C76   C104  S    
C105  O26   D    
C71   C75   A    
C91   O18   A    
O30   Zn3   S    
C46   C59   A    
C15   C18   S    
C89   O16   A    
O6    Zn2   S    
O11   Zn3   S    
C68   C103  S    
C43   C94   S    
C50   C84   S    
O14   Zn7   S    
C39   C41   A    
C81   C101  S    
C79   H28   S    
C67   C69   A    
C1    O3    A    
O16   Zn5   S    
O12   Zn2   S    
C68   C81   A    
C50   O8    A    
C21   O31   A    
C43   C99   S    
C65   C98   S    
C82   H29   S    
C53   H14   S    
O1    Zn7   S    
C78   C80   A    
C85   C88   A    
C108  H50   S    
C90   O17   A    
C23   H45   S    
C76   C98   S    
C96   C99   S    
C62   C90   S    
O12   Zn8   S    
C17   C20   S    
C32   C97   S    
C46   H10   S    
O27   Zn2   S    
C60   C62   A    
C69   C71   A    
O28   Zn7   S    
C62   C64   A    
C100  O20   D    
C17   C19   S    
C82   C88   A    
C15   C22   S    
C56   C58   A    
C69   H22   S    
O17   Zn6   S    
C43   C95   S    
O31   Zn4   S    
C20   H40   S    
C103  O24   D    
C23   C27   A    
O1    Zn3   S    
C9    C10   A    
C93   C99   S    
C12   C98   S    
C30   C33   A    
C52   C55   A    
C61   H21   S    
C27   H60   S    
C47   H11   S    
C32   C93   S    
C63   C66   A    
C26   O2    A    
C93   C95   S    
C91   O14   A    
C80   C100  S    
C11   H59   S    
C34   H3    S    
C24   H56   S    
C70   H24   S    
C107  H49   S    
C50   O27   A    
C92   C97   S    
C65   C87   S    
C39   C42   A    
C49   O7    A    
C5    C106  A    
C45   C47   A    
O19   Zn2   S    
C7    H54   S    
C55   H15   S    
C45   C58   A    
C31   C34   A    
C70   C72   A    
C37   H34   S    
C14   C20   S    
C7    C8    A    
C19   C22   S    
C94   H17   S    
C32   H31   S    
C25   O32   A    
C52   C64   S    
C36   H23   S    
C6    C11   A    
C79   C81   A    
C38   H5    S    
C92   O15   A    
C8    C9    A    
C47   C51   A    
C26   O6    A    
C94   C97   S    
C100  H42   S    
C59   H8    S    
C101  H43   S    
C15   H39   S    
C51   C66   S    
C5    H53   S    
C61   C64   A    
C17   H37   S    
C38   C44   A    
C72   C77   A    
C93   H16   S    
C49   C85   S    
C25   O5    A    
C103  H46   S    
C102  O22   D    
C87   C105  S    
O9    Zn5   S    
O2    Zn6   S    
C107  C108  A    
C39   H6    S    
C73   O28   A    
C63   C89   S    
C61   C63   A    
C24   C37   A    
C77   C79   A    
C43   H32   S    
C3    H51   S    
C16   C18   S    
C74   O29   A    
C94   C96   S    
C2    C13   S    
O12   Zn6   S    
C26   C98   S    
C54   C76   S    
O13   Zn4   S    
C19   C73   S    
C1    C41   S    
C32   C96   S    
C21   O4    A    
C82   C84   A    
O32   Zn5   S    
C55   C57   A    
C29   C44   S    
C2    C54   S    
C58   H7    S    
C3    C108  A    
C41   C44   A    
C14   C16   S    
C1    O30   A    
C77   H26   S    
O1    Zn5   S    
C3    C4    A    
C48   H13   S    
C92   O19   A    
C78   H27   S    
C53   C56   A    
C45   H9    S    
C15   C17   S    
C95   C97   S    
C16   C22   S    
C12   C87   S    
C35   C37   A    
O4    Zn8   S    
C14   C19   S    
C96   H12   S    
O3    Zn7   S    
C67   C80   A    
C24   C28   A    
C60   H20   S    
C84   C86   A    
C4    C5    A    
C101  O21   D    
C8    H55   S    
C57   H19   S    
C72   C86   S    
C75   H25   S    
C6    C7    A    
C31   H62   S    
C10   H58   S    
C12   C106  S    
C13   C76   S    
C27   C29   A    
C14   H38   S    
O18   Zn1   S    
O23   Zn1   S    
O29   Zn8   S    
C91   C99   S    
C83   C86   A    
C9    H57   S    
C54   H33   S    
O5    Zn1   S    
C29   C31   A    
O10   Zn6   S    
C6    C13   S    
C38   C40   A    
C4    H52   S    
C21   C40   S    
C49   O23   A    
C65   H35   S    
O8    Zn4   S    
C28   C30   A    
C33   C35   A    
C104  O25   D    
O7    Zn3   S    
C2    C25   S    
C18   C20   S    
C104  H47   S    
O1    Zn1   S    
C83   C85   A    
C13   C65   S    
C75   C78   A    
C22   H41   S    
C57   C59   A    
C10   C11   A    
C51   C53   A    
C60   C66   A    
C71   C88   S    
C73   O9    A    
C46   C48   A    
C2    C87   S    
C28   H61   S    
C56   H18   S    
C105  H48   S    
C74   O10   A    
C90   O13   A    
C34   C36   A    
C18   C74   S    
C23   C36   A    
C106  C107  A    
C102  H44   S    
C68   C70   A    
C40   C42   A    
O15   Zn8   S    
C30   C42   S    
C95   H1    S    
C33   H2    S    
O12   Zn4   S    
C48   C52   A    
C16   H36   S    
C83   H30   S    
C12   C54   S    
C35   H4    S    
C67   C102  S    
C89   O11   A    
