data_mof_unit_29723.cif
_audit_creation_date              2012-10-26T19:04:43-0400
_audit_creation_method            fapswitch 2.2
_symmetry_space_group_name_H-M    P1
_symmetry_Int_Tables_number       1
_space_group_crystal_system       triclinic
_cell_length_a                    9.605879
_cell_length_b                    10.766734
_cell_length_c                    13.416421
_cell_angle_alpha                 91.797517
_cell_angle_beta                  72.562907
_cell_angle_gamma                 88.020575
_cell_volume                      1321.75819354

loop_
_atom_site_label
_atom_site_type_symbol
_atom_type_description
_atom_site_fract_x
_atom_site_fract_y
_atom_site_fract_z
_atom_type_partial_charge
C1    C     C_R   0.498370 0.737593 0.495532 0.547707
C2    C     C_R   0.372950 0.505296 0.815438 -0.001773
C3    C     C_R   0.413197 0.885556 0.330671 0.232898
C4    C     C_R   0.421174 0.504868 0.700263 0.526592
C5    C     C_R   0.454489 0.937201 0.231933 -0.097270
C6    C     C_R   0.515220 0.053415 0.219248 -0.166719
C7    C     C_R   0.529266 0.120380 0.305935 -0.133580
C8    C     C_R   0.501861 0.063933 0.402927 0.006910
C9    C     C_R   0.465784 0.938126 0.410339 0.034237
C10   C     C_R   0.488861 0.872558 0.495190 0.020503
C11   C     C_R   0.519451 0.937090 0.577797 -0.138444
C12   C     C_R   0.432509 0.511641 0.980617 0.031479
C13   C     C_R   0.523805 0.065468 0.578913 -0.132225
C14   C     C_R   0.512928 0.128843 0.492394 0.020125
C15   C     C_R   0.918738 0.335837 0.361162 -0.083660
C16   C     C_R   0.503121 0.262749 0.499211 0.529318
C17   C     C_R   0.021851 0.255945 0.291957 -0.150536
C18   C     C_R   0.165609 0.255768 0.291045 -0.154526
C19   C     C_R   0.207107 0.335256 0.359477 -0.075777
C20   C     C_R   0.106009 0.419142 0.431181 0.183130
C21   C     C_R   0.956348 0.419202 0.431570 0.157023
C22   C     C_R   0.896105 0.577019 0.565093 0.033622
C23   C     C_R   0.463934 0.545179 0.875042 0.031650
C24   C     C_R   0.043580 0.576215 0.565734 0.064140
C25   C     C_R   0.578201 0.501978 0.300296 0.520887
C26   C     C_R   0.769436 0.619702 0.036417 -0.135841
C27   C     C_R   0.620839 0.519820 0.187927 -0.002673
C28   C     C_R   0.239620 0.452963 0.865805 -0.133903
C29   C     C_R   0.200307 0.433509 0.972199 -0.141180
C30   C     C_R   0.296272 0.459696 0.028930 -0.125233
C31   C     C_R   0.537887 0.532900 0.033776 0.025151
C32   C     C_R   0.664718 0.598121 0.984732 0.048775
C33   C     C_R   0.683884 0.643743 0.885765 -0.145321
C34   C     C_R   0.583894 0.619279 0.832356 -0.125107
C35   C     C_R   0.521682 0.490549 0.134118 -0.139532
C36   C     C_R   0.747059 0.581509 0.138024 -0.136405
Cu1   Cu    Cu3+1 0.359340 0.500010 0.500010 1.002123
Cu2   Cu    Cu3+1 0.640660 0.499990 0.499990 0.938629
H1    H     H_    0.824756 0.605034 0.178987 0.148118
H2    H     H_    0.319817 0.326406 0.352295 0.172023
H3    H     H_    0.776704 0.698541 0.849316 0.101934
H4    H     H_    0.073782 0.638724 0.619695 0.126975
H5    H     H_    0.866386 0.669444 0.999385 0.116536
H6    H     H_    0.431050 0.436211 0.173553 0.109734
H7    H     H_    0.166867 0.423958 0.822358 0.135408
H8    H     H_    0.258742 0.441073 0.110889 0.115505
H9    H     H_    0.096574 0.394056 0.010419 0.123283
H10   H     H_    0.599613 0.662159 0.758371 0.125134
H11   H     H_    0.535762 0.887967 0.643028 0.111708
H12   H     H_    0.421844 0.895638 0.168299 0.131074
H13   H     H_    0.281971 0.676513 0.240967 0.327052
H14   H     H_    0.539357 0.096062 0.144319 0.117637
H15   H     H_    0.566526 0.214268 0.295949 0.097201
H16   H     H_    0.537001 0.115393 0.646681 0.124838
H17   H     H_    0.816969 0.641122 0.617804 0.107555
H18   H     H_    0.811253 0.328200 0.356151 0.179473
H19   H     H_    0.989658 0.193539 0.238761 0.136648
H20   H     H_    0.245820 0.193403 0.236844 0.140593
N1    N     N_R   0.852480 0.498790 0.499000 -0.244092
N2    N     N_R   0.148360 0.498710 0.498970 -0.212808
O1    O     O_R   0.381190 0.680360 0.500010 -0.423079
O2    O     O_2   0.143136 0.892759 0.313354 -0.297461
O3    O     O_3   0.252911 0.672063 0.318060 -0.489585
O4    O     O_R   0.618760 0.680340 0.500000 -0.501770
O5    O     O_R   0.323240 0.499990 0.650990 -0.514991
O6    O     O_R   0.560820 0.499960 0.650980 -0.506075
O7    O     O_R   0.381240 0.319660 0.500000 -0.518435
O8    O     O_R   0.618810 0.319640 0.499990 -0.520009
O9    O     O_R   0.439180 0.500040 0.349020 -0.485567
O10   O     O_R   0.676760 0.500010 0.349010 -0.528215
O11   O     O_2   0.167443 0.828228 0.479572 -0.261713
S1    S     S_3+6 0.239168 0.820354 0.363353 0.020179

loop_
_geom_bond_atom_site_label_1
_geom_bond_atom_site_label_2
_ccdc_geom_bond_type
C8    C9    A    
Cu1   O1    S    
Cu2   O10   S    
C26   C32   A    
C6    C7    A    
C11   H11   S    
Cu1   O9    S    
C27   C36   A    
C20   N2    A    
C24   H4    S    
C9    C10   A    
C25   O9    A    
C2    C4    S    
C19   C20   A    
H13   O3    S    
C24   N2    A    
C23   C34   A    
C33   H3    S    
C32   C33   A    
C2    C23   A    
C17   C18   A    
C22   H17   S    
O2    S1    D    
O11   S1    D    
C16   O7    A    
C31   C32   A    
C13   C14   A    
C15   H18   S    
C4    O6    A    
C35   H6    S    
C11   C13   A    
C12   C23   A    
C29   C30   A    
C27   C35   A    
C29   H9    S    
C3    C9    A    
C5    C6    A    
Cu1   O7    S    
C22   C24   A    
C26   C36   A    
C28   C29   A    
O3    S1    S    
Cu1   Cu2   S    
Cu2   O8    S    
C26   H5    S    
C21   N1    A    
C31   C35   A    
C12   C31   A    
Cu2   O4    S    
C16   O8    A    
C5    H12   S    
C14   C16   S    
C28   H7    S    
Cu1   N2    S    
C34   H10   S    
C19   H2    S    
C7    H15   S    
Cu2   N1    S    
C1    O4    A    
C15   C21   A    
C3    S1    S    
C33   C34   A    
C20   C21   A    
C13   H16   S    
C10   C11   A    
C22   N1    A    
C15   C17   A    
C7    C8    A    
C4    O5    A    
C18   C19   A    
C2    C28   A    
C25   O10   A    
C8    C14   A    
C6    H14   S    
C12   C30   A    
C30   H8    S    
C36   H1    S    
C1    C10   S    
Cu2   O6    S    
Cu1   O5    S    
C17   H19   S    
C18   H20   S    
C3    C5    A    
C25   C27   S    
C1    O1    A    
