data_mof_unit_67075.cif
_audit_creation_date              2013-03-05T15:58:16-0500
_audit_creation_method            fapswitch 2.2
_symmetry_space_group_name_H-M    P1
_symmetry_Int_Tables_number       1
_space_group_crystal_system       triclinic
_cell_length_a                    8.240625
_cell_length_b                    12.77803
_cell_length_c                    14.592548
_cell_angle_alpha                 92.613065
_cell_angle_beta                  91.134813
_cell_angle_gamma                 98.263727
_cell_volume                      1518.5045357

loop_
_atom_site_label
_atom_site_type_symbol
_atom_site_description
_atom_site_fract_x
_atom_site_fract_y
_atom_site_fract_z
_atom_type_partial_charge
P1    P     P_3+3 0.054400 0.427280 0.286870 0.474654
O1    O     O_2   0.887370 0.460630 0.272300 -0.362241
O2    O     O_3   0.129410 0.451380 0.388510 -0.338101
O3    O     O_3   0.670210 0.653170 0.329170 -0.353367
O4    O     O_2   0.775938 0.581106 0.171656 -0.409789
O5    O     O_3   0.987605 0.292637 0.259913 -0.609411
O6    O     O_3   0.725038 0.774284 0.168566 -0.556539
C1    C     C_3   0.647136 0.926885 0.095988 -0.666977
H1    H     H_    0.760513 0.977330 0.122334 0.197062
P2    P     P_3+3 0.668300 0.742890 0.573060 0.444405
P3    P     P_3+3 0.134522 0.841656 0.381847 0.428492
O7    O     O_2   0.845380 0.761330 0.544970 -0.364783
O8    O     O_3   0.088930 0.704860 0.376040 -0.401405
O9    O     O_2   0.995756 0.887159 0.432938 -0.400215
O10   O     O_3   0.685849 0.761536 0.692069 -0.584992
O11   O     O_3   0.123544 0.884722 0.270584 -0.544185
C2    C     C_3   0.111204 0.797405 0.207974 0.483269
H2    H     H_    0.004175 0.738051 0.222330 0.185434
H3    H     H_    0.224561 0.759787 0.209845 0.006493
C3    C     C_3   0.085146 0.835197 0.112963 -0.867532
H4    H     H_    0.036672 0.766367 0.066457 0.238586
H5    H     H_    0.995550 0.891796 0.114753 0.297793
C4    C     C_3   0.251877 0.761278 0.662914 0.395298
H6    H     H_    0.383654 0.764162 0.679968 0.102351
H7    H     H_    0.222014 0.721554 0.594178 0.113236
C5    C     C_3   0.212263 0.874096 0.660408 -0.928336
H8    H     H_    0.181028 0.903882 0.729630 0.271472
H9    H     H_    0.318505 0.927618 0.635634 0.226765
H10   H     H_    0.106045 0.876423 0.613359 0.276084
Ba1   Ba    Ba6+2 0.855630 0.555280 0.454520 1.554934
C6    C     C_3   0.077877 0.227505 0.307315 0.256425
H11   H     H_    0.207822 0.263095 0.315893 0.113957
C7    C     C_3   0.066669 0.120988 0.254188 -0.771129
H12   H     H_    0.939893 0.096193 0.227343 0.173012
H13   H     H_    0.098659 0.061857 0.301760 0.241492
C8    C     C_3   0.731814 0.671861 0.730349 0.397356
H14   H     H_    0.834735 0.644409 0.693403 0.124591
H15   H     H_    0.625781 0.607399 0.729474 0.115907
C9    C     C_3   0.786172 0.703127 0.828631 -0.899562
H16   H     H_    0.892114 0.767574 0.830089 0.286368
H17   H     H_    0.820749 0.635514 0.864979 0.231859
H18   H     H_    0.682863 0.731625 0.864322 0.246855
P4    P     P_3+3 0.135310 0.572810 0.713130 0.473546
O12   O     O_2   0.302330 0.539400 0.727760 -0.385170
O13   O     O_3   0.060300 0.548700 0.611500 -0.384380
O14   O     O_3   0.519500 0.346920 0.670840 -0.384475
O15   O     O_3   0.162526 0.710393 0.732492 -0.558278
P5    P     P_3+3 0.054298 0.157284 0.628518 0.487642
O16   O     O_3   0.614310 0.373510 0.452640 -0.379728
O17   O     O_3   0.100780 0.295230 0.623970 -0.316312
O18   O     O_2   0.181161 0.110521 0.568204 -0.386992
O19   O     O_3   0.102039 0.123718 0.739751 -0.531584
Ba2   Ba    Ba6+2 0.334200 0.444810 0.545490 1.572503
P6    P     P_3+3 0.650730 0.649673 0.209555 0.415638
C10   C     C_3   0.597752 0.836752 0.160463 0.597456
H19   H     H_    0.483282 0.790880 0.130357 -0.072001
H20   H     H_    0.547102 0.976379 0.092940 0.193903
O20   O     O_3   0.575400 0.626570 0.547370 -0.403347
C11   C     C_3   0.532023 0.316264 0.265586 0.391738
H21   H     H_    0.462754 0.375775 0.299514 0.032967
H22   H     H_    0.663511 0.342811 0.274851 0.150230
C12   C     C_3   0.490174 0.313780 0.162213 -0.450664
H23   H     H_    0.359188 0.322791 0.152935 0.123191
H24   H     H_    0.561662 0.383719 0.131965 0.168575
P7    P     P_3+3 0.526120 0.240218 0.424683 0.425902
O21   O     O_2   0.344320 0.238700 0.455090 -0.383116
O22   O     O_3   0.499660 0.216884 0.305044 -0.566510
H25   H     H_    0.202145 0.876714 0.088213 0.244420
C13   C     C_3   0.039064 0.191921 0.804464 0.407051
H26   H     H_    0.141951 0.247536 0.837242 0.141770
H27   H     H_    0.953427 0.241532 0.774436 -0.012101
C14   C     C_3   0.946627 0.126227 0.877332 -0.468402
H28   H     H_    0.850043 0.170553 0.904746 0.130782
H29   H     H_    0.884829 0.049676 0.845777 0.241828
P8    P     P_3+3 0.538489 0.340594 0.789810 0.471242
C15   C     C_3   0.554168 0.143150 0.756214 0.473917
H30   H     H_    0.684649 0.175132 0.746410 0.008275
O23   O     O_2   0.403293 0.399439 0.830889 -0.345061
O24   O     O_3   0.479225 0.208837 0.817038 -0.536787
H31   H     H_    0.487167 0.134456 0.688814 0.137240
H32   H     H_    0.628263 0.986682 0.754394 0.256940
C16   C     C_3   0.549862 0.034133 0.795004 -1.086968
H33   H     H_    0.423838 0.991016 0.791973 0.267698
H34   H     H_    0.593835 0.041822 0.867694 0.269234
C17   C     C_R   0.984245 0.444703 0.057622 -0.151158
C18   C     C_R   0.176961 0.497724 0.193953 0.214917
C19   C     C_R   0.328228 0.552307 0.224834 -0.478059
C20   C     C_R   0.445958 0.591890 0.163914 0.130148
C21   C     C_R   0.411563 0.584458 0.069456 -0.172423
C22   C     C_R   0.250776 0.545657 0.034962 0.014320
C23   C     C_R   0.135392 0.494600 0.096351 -0.043024
H35   H     H_    0.359827 0.557827 0.297416 0.173459
C24   C     C_R   0.056298 0.501193 0.901469 -0.085338
C25   C     C_R   0.946435 0.443775 0.961945 0.034182
C26   C     C_R   0.011015 0.499929 0.804345 0.269213
C27   C     C_R   0.858905 0.444917 0.773979 -0.544805
C28   C     C_R   0.747263 0.395836 0.834641 0.293349
C29   C     C_R   0.793592 0.391231 0.927270 -0.213410
C30   C     C_R   0.202695 0.559430 0.941386 0.222709
H36   H     H_    0.706902 0.350407 0.973052 0.151935
H37   H     H_    0.823021 0.444865 0.702240 0.168997
H38   H     H_    0.893080 0.408433 0.102152 0.165033
C31   C     C_R   0.745314 0.176495 0.551492 -0.430580
C32   C     C_R   0.425620 0.814788 0.470904 -0.517509
C33   C     C_R   0.395665 0.995128 0.442167 -0.143760
C34   C     C_R   0.334034 0.888023 0.436798 0.248401
C35   C     C_R   0.571931 0.847693 0.520169 0.264561
C36   C     C_R   0.633206 0.958057 0.531801 -0.056656
C37   C     C_R   0.545144 0.032033 0.489038 -0.082197
C38   C     C_R   0.608960 0.140914 0.494335 0.232688
C39   C     C_R   0.841538 0.105520 0.586772 0.181793
C40   C     C_R   0.783167 0.996710 0.579427 -0.212971
H39   H     H_    0.324216 0.048326 0.410069 0.176932
H40   H     H_    0.856768 0.943866 0.610095 0.183901
H41   H     H_    0.785251 0.260647 0.561732 0.197817
H42   H     H_    0.379365 0.731252 0.461586 0.173847
N1    N     N_2   0.563959 0.881790 0.249563 -0.103588
H43   H     H_    0.481044 0.832612 0.285498 0.136266
C41   C     C_3   0.704293 0.932586 0.304382 -0.741883
H44   H     H_    0.718534 0.886831 0.365383 0.269627
H45   H     H_    0.686939 0.014767 0.324418 0.213229
H46   H     H_    0.820605 0.935060 0.267541 0.263944
C42   C     C_2   0.000548 0.208221 0.397365 0.658847
H47   H     H_    0.939789 0.129853 0.412816 -0.068940
O25   O     O_2   0.000750 0.281612 0.453174 -0.525564
C43   C     C_2   0.179270 0.123801 0.175790 0.731188
H48   H     H_    0.167872 0.177616 0.121633 -0.014684
O26   O     O_2   0.283124 0.064680 0.172054 -0.566406
N2    N     N_2   0.520875 0.218382 0.111857 -0.042712
H49   H     H_    0.477385 0.213617 0.044655 0.208023
C44   C     C_3   0.681661 0.187511 0.122351 -0.785798
H50   H     H_    0.680725 0.134020 0.180110 0.274996
H51   H     H_    0.775373 0.257055 0.137641 0.247575
H52   H     H_    0.715627 0.146705 0.057868 0.199864
C45   C     C_2   0.674533 0.887809 0.000506 0.554066
H53   H     H_    0.571724 0.853719 0.956973 0.014283
O27   O     O_2   0.812203 0.896793 0.970127 -0.612540
N3    N     N_2   0.053227 0.107339 0.953190 -0.090367
H54   H     H_    0.987983 0.085121 0.010327 0.207072
C46   C     C_3   0.173874 0.038677 0.932418 -0.741957
H55   H     H_    0.113317 0.958447 0.908559 0.267834
H56   H     H_    0.251124 0.032106 0.994378 0.229794
H57   H     H_    0.255783 0.072984 0.879457 0.292265
C47   C     C_2   0.551632 0.604238 0.008583 0.486050
H58   H     H_    0.640700 0.675193 0.017618 0.064978
O28   O     O_2   0.573849 0.537284 0.950295 -0.602046
N4    N     N_2   0.285270 0.644577 0.892788 -0.078330
H59   H     H_    0.399605 0.638351 0.868499 0.218990
C48   C     C_3   0.261596 0.749578 0.924421 -0.962012
H60   H     H_    0.321792 0.808401 0.877566 0.268099
H61   H     H_    0.316491 0.767201 0.994003 0.222512
H62   H     H_    0.129100 0.756011 0.923682 0.283614

loop_
_geom_bond_atom_site_label_1
_geom_bond_atom_site_label_2
_geom_bond_distance
_ccdc_geom_bond_type
C19   C20   1.386159 A    
C24   C25   1.427054 A    
Ba2   O20   2.830307 S    
O2    Ba1   2.934459 S    
P3    O8    1.732122 S    
O10   C8    1.394019 S    
Ba1   O13   2.829221 S    
C26   C27   1.399291 A    
C15   O24   1.405868 S    
O6    C10   1.412709 S    
C10   H19   1.107962 S    
C44   H52   1.115029 S    
C40   H40   1.076388 S    
H32   C16   1.109606 S    
C17   C23   1.410066 A    
C42   H47   1.088691 S    
C9    H17   1.102502 S    
C5    H8    1.111248 S    
C43   H48   1.082322 S    
O16   P7    1.778933 S    
C31   C38   1.395140 A    
C33   H39   1.077646 S    
C8    H14   1.104282 S    
N4    C48   1.440016 S    
C46   H56   1.108729 S    
P5    O17   1.753781 S    
C18   C23   1.455677 A    
N1    C41   1.448729 S    
P3    O9    1.544964 D    
C42   O25   1.213491 D    
C25   C29   1.412058 A    
P8    C28   1.857508 S    
C2    C3    1.510163 S    
C36   C37   1.429198 A    
C31   C39   1.396223 A    
P1    O1    1.512169 D    
C17   C25   1.423623 A    
C4    C5    1.525026 S    
C13   H27   1.110660 S    
P2    Ba1   3.451627 S    
C7    C43   1.485696 S    
C12   H24   1.111522 S    
O19   C13   1.412438 S    
N4    H59   1.025616 S    
C11   O22   1.410915 S    
C32   H42   1.082100 S    
O12   Ba2   2.903462 S    
P4    Ba2   3.451134 S    
P5    O18   1.546837 D    
C39   C40   1.402906 A    
C1    H1    1.107371 S    
P2    O20   1.595792 S    
P4    C26   1.892343 S    
C4    H6    1.104295 S    
C6    C7    1.525416 S    
C24   C30   1.422339 A    
O7    Ba1   2.903958 S    
C20   C21   1.397901 A    
C14   N3    1.449861 S    
O5    C6    1.390901 S    
O13   Ba2   2.935220 S    
C11   H21   1.118407 S    
C24   C26   1.457205 A    
C19   H35   1.082400 S    
C1    C45   1.490991 S    
C12   N2    1.450606 S    
P2    C35   1.842671 S    
C1    C10   1.535099 S    
C32   C34   1.386950 A    
O14   P8    1.746608 S    
C28   C29   1.403414 A    
C9    H18   1.103635 S    
C41   H45   1.107016 S    
Ba1   Ba2   4.568527 S    
C11   H22   1.091685 S    
O17   Ba2   2.809751 S    
C4    O15   1.395697 S    
P1    O5    1.753631 S    
O4    P6    1.541548 D    
C45   H53   1.076308 S    
C27   H37   1.082106 S    
C46   H55   1.111192 S    
C47   O28   1.213992 D    
C48   H62   1.106541 S    
C15   C16   1.523373 S    
C9    H16   1.109861 S    
C18   C19   1.393758 A    
O11   C2    1.400258 S    
P7    O22   1.761573 S    
C36   C40   1.418909 A    
P1    O2    1.595017 S    
C13   C14   1.531421 S    
C31   H41   1.081004 S    
P4    O12   1.512530 D    
C12   H23   1.108184 S    
C1    H20   1.110160 S    
P3    O11   1.742718 S    
O8    Ba1   2.809162 S    
C6    H11   1.103935 S    
C35   C36   1.429201 A    
C27   C28   1.392968 A    
P3    C34   1.822509 S    
C2    H2    1.107480 S    
C47   H58   1.082643 S    
C15   H30   1.108486 S    
C46   H57   1.100700 S    
Ba2   O21   2.904157 S    
P4    O13   1.594896 S    
P2    O7    1.512156 D    
C14   H29   1.111144 S    
Ba1   O16   2.830976 S    
C3    H5    1.105178 S    
P7    O21   1.568587 D    
C16   H34   1.109575 S    
C2    H3    1.110709 S    
C44   H50   1.108568 S    
C22   C30   1.439832 A    
N2    H49   1.033522 S    
C10   N1    1.446176 S    
C41   H46   1.105427 S    
P1    C18   1.890224 S    
C45   O27   1.218153 D    
C33   C37   1.406329 A    
C11   C12   1.538603 S    
C43   O26   1.220684 D    
O3    P6    1.747633 S    
C5    H9    1.108102 S    
C3    H25   1.107106 S    
C8    C9    1.512627 S    
C15   H31   1.111509 S    
C14   H28   1.111689 S    
C44   H51   1.101658 S    
C41   H44   1.100467 S    
N3    C46   1.445179 S    
C21   C47   1.470537 S    
C33   C34   1.387787 A    
C29   H36   1.082741 S    
O1    Ba1   2.902926 S    
P2    O10   1.742424 S    
C48   H61   1.103627 S    
C30   N4    1.423503 S    
C48   H60   1.109793 S    
P6    C20   1.840848 S    
O2    Ba2   2.829780 S    
C22   C23   1.428620 A    
P4    O15   1.749200 S    
O16   Ba2   2.934260 S    
Ba1   O20   2.935039 S    
O14   Ba2   2.808775 S    
C8    H15   1.110781 S    
P1    Ba1   3.450685 S    
C7    H13   1.104609 S    
C7    H12   1.105711 S    
C4    H7    1.110044 S    
C13   H26   1.110134 S    
P8    O23   1.546648 D    
P7    C38   1.856964 S    
N3    H54   1.029707 S    
C6    C42   1.486973 S    
P5    O19   1.749315 S    
P5    C39   1.862839 S    
C3    H4    1.107933 S    
C5    H10   1.106321 S    
C16   H33   1.102501 S    
C37   C38   1.412957 A    
O6    P6    1.757598 S    
C21   C22   1.420126 A    
N1    H43   1.028366 S    
P8    O24   1.750207 S    
C32   C35   1.392726 A    
O3    Ba1   2.809364 S    
C17   H38   1.071516 S    
N2    C44   1.443033 S    
