data_mof_unit_42357.cif
_audit_creation_date              2012-12-10T17:03:27-0500
_audit_creation_method            fapswitch 2.2
_symmetry_space_group_name_H-M    P1
_symmetry_Int_Tables_number       1
_space_group_crystal_system       triclinic
_cell_length_a                    15.148847
_cell_length_b                    10.894619
_cell_length_c                    9.852623
_cell_angle_alpha                 110.755598
_cell_angle_beta                  99.177138
_cell_angle_gamma                 89.864063
_cell_volume                      1498.50632026

loop_
_atom_site_label
_atom_site_type_symbol
_atom_type_description
_atom_site_fract_x
_atom_site_fract_y
_atom_site_fract_z
_atom_type_partial_charge
C1    C     C_R   0.488782 0.253267 0.441764 0.892934
C2    C     C_R   0.502065 0.747010 0.558321 0.892613
C3    C     C_R   0.029931 0.277687 0.329622 -0.170387
C4    C     C_R   0.970760 0.725483 0.678694 -0.179346
C5    C     C_2   0.476934 0.111706 0.413935 -0.189042
C6    C     C_2   0.495854 0.889001 0.585789 -0.183660
C7    C     C_2   0.436188 0.068430 0.504358 -0.087694
C8    C     C_2   0.437493 0.929161 0.490423 -0.111232
C9    C     C_2   0.506373 0.510530 0.081504 -0.041047
C10   C     C_2   0.493816 0.489889 0.919253 -0.031491
C11   C     C_R   0.329018 0.500740 0.500721 0.932326
C12   C     C_R   0.670874 0.499213 0.499164 0.873713
C13   C     C_R   0.822904 0.609100 0.598801 -0.070805
C14   C     C_R   0.174997 0.398833 0.396412 -0.079727
C15   C     C_R   0.767530 0.500424 0.498729 -0.197894
C16   C     C_R   0.232354 0.502385 0.501797 -0.185688
C17   C     C_R   0.804412 0.393305 0.399579 -0.062397
C18   C     C_R   0.197082 0.607011 0.607759 -0.063306
C19   C     C_R   0.898511 0.386303 0.414447 -0.011348
C20   C     C_R   0.102857 0.615143 0.596520 -0.012527
C21   C     C_R   0.953692 0.499955 0.505658 0.064020
C22   C     C_R   0.046931 0.502877 0.503754 0.064923
C23   C     C_R   0.915812 0.611231 0.597175 0.033999
C24   C     C_R   0.083763 0.393634 0.407326 0.024179
C25   C     C_R   0.939728 0.270143 0.339330 -0.029185
C26   C     C_R   0.062251 0.730600 0.675470 -0.035031
Cu1   Cu    Cu3+1 0.515770 0.521810 0.644910 1.082889
Cu2   Cu    Cu3+1 0.484230 0.478190 0.355090 1.060176
H1    H     H_    0.059532 0.188503 0.269120 0.203306
H2    H     H_    0.941963 0.815482 0.738803 0.198344
H3    H     H_    0.442070 0.419186 0.844340 0.196649
H4    H     H_    0.558749 0.580043 0.156901 0.183123
N1    N     N_2   0.460520 0.445420 0.137370 -0.253680
N2    N     N_2   0.539480 0.554580 0.862630 -0.253175
O1    O     O_R   0.508410 0.332340 0.577400 -0.568484
O2    O     O_R   0.491590 0.667660 0.422600 -0.592363
O3    O     O_R   0.481780 0.295500 0.332650 -0.527524
O4    O     O_R   0.518220 0.704500 0.667350 -0.515859
O5    O     O_R   0.383570 0.518390 0.622380 -0.562220
O6    O     O_R   0.616430 0.481610 0.377620 -0.577354
O7    O     O_R   0.356940 0.481550 0.377630 -0.581691
O8    O     O_R   0.643060 0.518450 0.622370 -0.571093
C27   C     C_2   0.782429 0.724573 0.696893 0.882557
O9    O     O_2   0.723676 0.779795 0.644212 -0.580299
O10   O     O_R   0.812285 0.770257 0.848922 -0.731504
H5    H     H_    0.780779 0.850623 0.903106 0.374791
C28   C     C_2   0.210010 0.293310 0.277379 0.892972
O11   O     O_2   0.177332 0.271259 0.148645 -0.536548
O12   O     O_R   0.277891 0.217298 0.312413 -0.732227
H6    H     H_    0.293396 0.145669 0.222269 0.379463
C29   C     C_2   0.745150 0.298218 0.270073 0.895791
O13   O     O_2   0.758581 0.282063 0.145865 -0.554747
O14   O     O_R   0.675377 0.226215 0.289801 -0.731582
H7    H     H_    0.641243 0.164561 0.192442 0.370871
C30   C     C_2   0.258280 0.699967 0.736799 0.911091
O15   O     O_2   0.247785 0.712346 0.861422 -0.524491
O16   O     O_R   0.326763 0.773844 0.716117 -0.707442
H8    H     H_    0.363205 0.833789 0.812498 0.368418
C31   C     C_2   0.895468 0.136074 0.286692 0.876455
O17   O     O_2   0.845311 0.108257 0.358612 -0.550135
O18   O     O_R   0.915306 0.039424 0.159382 -0.709837
H9    H     H_    0.884137 0.950905 0.138784 0.356809
C32   C     C_2   0.109027 0.863114 0.737538 0.879910
O19   O     O_2   0.098182 0.939854 0.858210 -0.514094
O20   O     O_R   0.162175 0.902146 0.654617 -0.719562
H10   H     H_    0.188641 0.995539 0.706976 0.360010
C33   C     C_2   0.364271 0.841434 0.378599 0.926442
O21   O     O_2   0.342032 0.855664 0.260412 -0.545198
O22   O     O_R   0.317212 0.748511 0.411570 -0.719196
H11   H     H_    0.267690 0.697719 0.328084 0.351361
C34   C     C_2   0.380170 0.149638 0.611119 0.884857
O23   O     O_2   0.347479 0.248586 0.599076 -0.584623
O24   O     O_R   0.359405 0.105831 0.720176 -0.737440
H12   H     H_    0.314614 0.161540 0.777328 0.341405
C35   C     C_2   0.558451 0.983303 0.713503 0.953443
O25   O     O_2   0.585563 0.954106 0.821162 -0.505968
O26   O     O_R   0.587889 0.103864 0.710751 -0.738775
H13   H     H_    0.629725 0.157960 0.804234 0.362657
C36   C     C_2   0.515968 0.018786 0.290349 0.916089
O27   O     O_2   0.499475 0.026536 0.168165 -0.530305
O28   O     O_R   0.571250 0.922627 0.313511 -0.731466
H14   H     H_    0.593325 0.865378 0.220938 0.347512
C37   C     C_2   0.617421 0.634567 0.947570 1.002417
O29   O     O_2   0.629116 0.743442 0.942212 -0.542565
O30   O     O_R   0.683159 0.585809 0.028794 -0.765868
H15   H     H_    0.735845 0.651590 0.081860 0.344937
C38   C     C_2   0.379364 0.373041 0.055463 1.018896
O31   O     O_2   0.362797 0.265622 0.061346 -0.550199
O32   O     O_R   0.315911 0.428519 0.978108 -0.757856
H16   H     H_    0.259435 0.369504 0.929928 0.344830

loop_
_geom_bond_atom_site_label_1
_geom_bond_atom_site_label_2
_ccdc_geom_bond_type
C30   O15   D    
C32   O20   S    
O24   H12   S    
C26   C32   S    
C27   O9    D    
C17   C29   S    
O28   H14   S    
C7    C8    S    
C28   O12   S    
O10   H5    S    
C1    C5    S    
C19   C21   A    
O22   H11   S    
C7    C34   S    
Cu2   O6    S    
Cu1   O4    S    
Cu2   O7    S    
C13   C23   A    
C14   C24   A    
C3    H1    S    
C12   O8    A    
C9    H4    S    
C10   H3    S    
C37   O29   D    
Cu1   O5    S    
C5    C36   S    
C9    C10   S    
C18   C20   A    
C1    O3    A    
C31   O17   D    
Cu1   N2    S    
C21   C22   A    
C9    N1    D    
C3    C24   A    
C2    C6    S    
C5    C7    D    
C21   C23   A    
C31   O18   S    
C33   O21   D    
C3    C25   A    
C36   O28   S    
C4    C23   A    
C6    C8    D    
Cu1   O1    S    
O26   H13   S    
C29   O13   D    
C29   O14   S    
C12   O6    A    
C35   O25   D    
C35   O26   S    
C11   C16   S    
C2    O4    A    
C28   O11   D    
C12   C15   S    
C10   N2    D    
C11   O5    A    
C27   O10   S    
O30   H15   S    
C18   C30   S    
C8    C33   S    
C37   O30   S    
C20   C22   A    
Cu2   N1    S    
O12   H6    S    
C13   C15   A    
C22   C24   A    
N2    C37   S    
C13   C27   S    
C1    O1    A    
C34   O24   S    
C2    O2    A    
C15   C17   A    
C32   O19   D    
C4    C26   A    
O14   H7    S    
C14   C28   S    
C30   O16   S    
N1    C38   S    
C34   O23   D    
Cu1   O8    S    
O16   H8    S    
C20   C26   A    
Cu2   O3    S    
C17   C19   A    
C11   O7    A    
C14   C16   A    
O18   H9    S    
C19   C25   A    
C36   O27   D    
Cu2   O2    S    
C38   O31   D    
C16   C18   A    
O20   H10   S    
Cu1   Cu2   S    
C38   O32   S    
C25   C31   S    
C33   O22   S    
O32   H16   S    
C4    H2    S    
C6    C35   S    
