data_mof_unit_48778.cif
_audit_creation_date              2013-03-05T16:11:15-0500
_audit_creation_method            fapswitch 2.2
_symmetry_space_group_name_H-M    P1
_symmetry_Int_Tables_number       1
_space_group_crystal_system       triclinic
_cell_length_a                    6.954886
_cell_length_b                    20.540403
_cell_length_c                    24.445541
_cell_angle_alpha                 90.226609
_cell_angle_beta                  90.470243
_cell_angle_gamma                 89.470093
_cell_volume                      3491.9029043

loop_
_atom_site_label
_atom_site_type_symbol
_atom_site_description
_atom_site_fract_x
_atom_site_fract_y
_atom_site_fract_z
_atom_type_partial_charge
O1    O     O_R   0.507280 0.423750 0.460310 -0.593011
O2    O     O_R   0.171030 0.555650 0.437630 -0.584831
O3    O     O_R   0.004080 0.576250 0.539690 -0.591317
C1    C     C_R   0.339048 0.575615 0.421767 0.991199
O4    O     O_R   0.177330 0.422980 0.453960 -0.579778
O5    O     O_R   0.010420 0.442640 0.556140 -0.592314
C2    C     C_R   0.346091 0.399102 0.443079 0.960271
O6    O     O_R   0.500930 0.557360 0.443860 -0.589065
O7    O     O_3   0.340310 0.506600 0.533500 -0.278285
V1    V     V_3+5 0.064140 0.498780 0.493780 1.189272
O8    O     O_R   0.680890 0.444350 0.562370 -0.592406
C3    C     C_R   0.850590 0.424381 0.578137 0.975532
O9    O     O_R   0.674590 0.577020 0.546040 -0.592406
C4    C     C_R   0.842882 0.600923 0.556776 0.917978
V2    V     V_3+5 0.564550 0.501220 0.506220 1.175650
O10   O     O_3   0.838250 0.493400 0.466500 -0.260960
C5    C     C_R   0.978134 0.838409 0.910675 -0.134034
C6    C     C_R   0.850374 0.662203 0.588285 -0.105637
C7    C     C_R   0.055538 0.723881 0.903685 -0.171201
C8    C     C_R   0.041402 0.780541 0.934776 -0.158831
C9    C     C_R   0.934091 0.839498 0.854436 -0.160499
C10   C     C_R   0.968511 0.784131 0.820443 0.139426
C11   C     C_R   0.018317 0.725059 0.847164 0.181551
C12   C     C_R   0.950449 0.784465 0.761481 -0.120773
C13   C     C_R   0.945843 0.723479 0.732597 0.042981
C14   C     C_R   0.988801 0.665967 0.762045 -0.157358
C15   C     C_R   0.029852 0.667249 0.817583 -0.223211
C16   C     C_R   0.946554 0.842954 0.730221 0.318354
C17   C     C_R   0.900786 0.841374 0.673783 -0.270921
C18   C     C_R   0.874087 0.781215 0.646501 0.038184
C19   C     C_R   0.903923 0.721702 0.675063 0.132138
C20   C     C_R   0.829586 0.779390 0.589872 -0.121925
C21   C     C_R   0.817371 0.720812 0.561482 -0.149459
C22   C     C_R   0.890993 0.662376 0.644577 -0.216485
H1    H     H_    0.066721 0.621929 0.837900 0.137074
H2    H     H_    0.909887 0.615233 0.662997 0.092852
H3    H     H_    0.784996 0.721313 0.518040 0.106997
H4    H     H_    0.098473 0.679045 0.923793 0.128425
H5    H     H_    0.077982 0.779133 0.977931 0.116674
H6    H     H_    0.871522 0.883783 0.838687 0.160326
H7    H     H_    0.998068 0.618667 0.743206 0.125708
H8    H     H_    0.806814 0.823206 0.566294 0.104263
H9    H     H_    0.619291 0.210076 0.796102 0.136116
C23   C     C_R   0.730088 0.271803 0.732910 -0.171563
H10   H     H_    0.588311 0.288269 0.720162 0.120580
C24   C     C_R   0.894237 0.294878 0.706391 0.177518
C25   C     C_R   0.076261 0.272638 0.723770 -0.168912
H11   H     H_    0.204738 0.289766 0.703855 0.120980
C26   C     C_R   0.093926 0.228028 0.767029 -0.136502
H12   H     H_    0.235702 0.211564 0.779782 0.129399
C27   C     C_R   0.929783 0.204963 0.793548 0.164108
C28   C     C_R   0.747756 0.227198 0.776175 -0.124220
C29   C     C_1   0.876332 0.340949 0.661396 -0.017897
C30   C     C_1   0.947730 0.158920 0.838549 0.047016
C31   C     C_1   0.960990 0.120712 0.876316 -0.183932
C32   C     C_1   0.863161 0.379180 0.623633 -0.289854
H13   H     H_    0.678455 0.730633 0.319170 0.122840
C33   C     C_R   0.594577 0.784338 0.246519 -0.032524
C34   C     C_R   0.445345 0.795443 0.207373 0.129316
C35   C     C_R   0.272384 0.761085 0.212498 -0.189422
H14   H     H_    0.156809 0.768694 0.183159 0.152832
C36   C     C_R   0.245695 0.716705 0.255287 -0.162128
H15   H     H_    0.110598 0.691144 0.258123 0.130075
C37   C     C_R   0.391755 0.705473 0.294003 0.206435
C38   C     C_R   0.565180 0.739365 0.289264 -0.287738
C39   C     C_1   0.463618 0.841315 0.161972 0.091478
C40   C     C_1   0.365454 0.659220 0.338566 0.010195
C41   C     C_1   0.349098 0.620917 0.376175 -0.258514
C42   C     C_1   0.476068 0.879338 0.124015 -0.236641
C43   C     C_R   0.470407 0.163070 0.087797 -0.285738
C44   C     C_R   0.349817 0.337950 0.411100 -0.115201
C45   C     C_R   0.510255 0.279950 0.093683 -0.219309
C46   C     C_R   0.514556 0.222655 0.062409 0.347992
C47   C     C_R   0.426439 0.162123 0.143954 -0.262888
C48   C     C_R   0.421328 0.220225 0.176017 0.136895
C49   C     C_R   0.462321 0.279327 0.149337 0.054731
C50   C     C_R   0.378061 0.221834 0.233427 0.054182
C51   C     C_R   0.379083 0.282409 0.263080 -0.104062
C52   C     C_R   0.392314 0.340983 0.232243 0.329429
C53   C     C_R   0.445356 0.338351 0.177308 -0.266128
C54   C     C_R   0.326723 0.165136 0.261720 -0.181053
C55   C     C_R   0.286369 0.166283 0.317145 -0.167679
C56   C     C_R   0.308892 0.222947 0.348621 0.135097
C57   C     C_R   0.360538 0.281819 0.321913 0.122098
C58   C     C_R   0.275997 0.222768 0.406133 -0.041772
C59   C     C_R   0.286612 0.281085 0.435621 -0.265199
C60   C     C_R   0.396411 0.337347 0.355410 -0.150844
H16   H     H_    0.460652 0.383537 0.155023 0.184758
H17   H     H_    0.459016 0.380971 0.339234 0.150244
H18   H     H_    0.251886 0.281828 0.478819 0.112818
H19   H     H_    0.237039 0.121382 0.334707 0.184802
H20   H     H_    0.540257 0.325919 0.074000 0.172491
H21   H     H_    0.399933 0.114975 0.161333 0.118383
H22   H     H_    0.309725 0.118730 0.241747 0.134829
O11   O     O_R   0.323320 0.942780 0.056240 -0.599475
O12   O     O_R   0.647300 0.077050 0.046060 -0.590638
O13   O     O_R   0.813840 0.057330 0.943840 -0.570476
C61   C     C_R   0.478397 0.101072 0.056852 1.040645
O14   O     O_R   0.653250 0.944380 0.062400 -0.581770
O15   O     O_R   0.819830 0.923720 0.960300 -0.598143
C62   C     C_R   0.485269 0.924453 0.078283 0.945407
O16   O     O_R   0.317330 0.076390 0.039790 -0.581867
O17   O     O_3   0.483830 0.993470 0.966560 -0.259052
V3    V     V_3+5 0.760140 0.001210 0.006210 1.221389
O18   O     O_R   0.149290 0.922840 0.953850 -0.585339
C63   C     C_R   0.981204 0.898913 0.943266 0.942266
O19   O     O_R   0.143340 0.055500 0.937510 -0.572946
C64   C     C_R   0.973640 0.075535 0.921807 1.007824
V4    V     V_3+5 0.259690 0.998600 0.993650 1.229705
O20   O     O_3   0.986130 0.006520 0.033440 -0.279939
C65   C     C_2   0.782882 0.817949 0.245112 0.485063
H23   H     H_    0.889787 0.807864 0.276642 0.018861
O21   O     O_2   0.822307 0.856835 0.209388 -0.585380
N1    N     N_R   0.561988 0.226301 0.005156 0.226888
O22   O     O_R   0.487224 0.186206 0.969736 -0.413188
O23   O     O_R   0.666434 0.273854 0.987308 -0.391922
N2    N     N_R   0.323448 0.402505 0.252672 0.225338
O24   O     O_R   0.411665 0.455989 0.240225 -0.391132
O25   O     O_R   0.155713 0.406279 0.275770 -0.393616
C66   C     C_2   0.230153 0.163678 0.438100 0.504667
H24   H     H_    0.134835 0.167703 0.472927 0.030640
O26   O     O_2   0.307766 0.111333 0.428696 -0.571246
C67   C     C_2   0.890642 0.903339 0.642522 0.688620
H25   H     H_    0.766069 0.914283 0.617069 -0.013652
O27   O     O_2   0.023410 0.941810 0.643988 -0.517692
N3    N     N_R   0.012061 0.903211 0.753546 0.241445
O28   O     O_R   0.901044 0.954604 0.753498 -0.384270
O29   O     O_R   0.185501 0.907172 0.773597 -0.375082

loop_
_geom_bond_atom_site_label_1
_geom_bond_atom_site_label_2
_geom_bond_distance
_ccdc_geom_bond_type
C13   C19   1.434397 A    
C50   C51   1.437548 A    
N3    O28   1.302092 A    
N2    O24   1.301575 A    
C4    C6    1.474203 S    
O2    C1    1.304457 A    
C7    C8    1.390657 A    
C57   C60   1.424154 A    
C45   C49   1.403526 A    
C54   C55   1.385961 A    
C67   H25   1.084876 S    
C25   C26   1.405863 A    
C58   C59   1.397806 A    
C66   H24   1.085737 S    
C14   C15   1.385249 A    
C36   H15   1.083410 S    
C16   C17   1.413687 A    
N2    O25   1.301742 A    
C34   C39   1.465795 S    
O5    C3    1.297910 A    
C18   C19   1.422870 A    
C45   H20   1.084202 S    
H9    C28   1.083310 S    
C67   O27   1.221102 D    
C39   C42   1.219319 T    
V2    O10   2.148383 S    
C17   C67   1.487970 S    
O15   V3    1.986610 S    
C5    C8    1.394714 A    
C35   C36   1.404774 A    
C36   C37   1.400898 A    
C30   C31   1.216458 T    
O13   C64   1.297770 A    
O8    V2    1.969841 S    
C25   H11   1.083281 S    
C16   N3    1.437083 S    
C26   C27   1.404473 A    
O12   C61   1.298582 A    
C43   C47   1.409108 A    
O19   C64   1.301734 A    
O1    V2    1.985087 S    
C2    C44   1.476984 S    
C11   C15   1.389881 A    
O7    V1    2.152130 S    
C1    O6    1.297563 A    
C23   C28   1.405908 A    
O14   V3    1.961511 S    
C34   C35   1.406998 A    
C9    C10   1.425453 A    
O19   V4    1.970063 S    
C47   H21   1.077116 S    
C43   C61   1.479469 S    
C23   C24   1.404567 A    
N1    O22   1.301249 A    
C47   C48   1.425552 A    
C33   C65   1.486825 S    
C37   C40   1.462006 S    
C49   C53   1.394061 A    
C12   C13   1.436009 A    
C59   H18   1.085216 S    
C1    C41   1.457264 S    
C8    H5    1.083604 S    
C51   C52   1.426404 A    
C15   H1    1.084497 S    
C13   C14   1.414093 A    
C61   O16   1.298847 A    
C21   H3    1.083838 S    
C55   H19   1.078907 S    
C40   C41   1.219118 T    
C35   H14   1.083522 S    
C58   C66   1.484657 S    
C7    C11   1.403878 A    
C48   C49   1.412843 A    
C17   C18   1.414878 A    
C7    H4    1.083976 S    
C44   C59   1.391483 A    
C48   C50   1.437918 A    
C33   C38   1.414791 A    
C56   C57   1.426772 A    
C50   C54   1.407230 A    
C43   C46   1.411920 A    
C19   C22   1.429046 A    
C65   O21   1.220356 D    
C6    C22   1.402519 A    
C3    C32   1.453161 S    
O3    C4    1.297568 A    
C44   C60   1.401982 A    
O14   C62   1.304122 A    
C55   C56   1.402002 A    
O6    V2    1.960299 S    
O12   V3    1.992359 S    
O11   V4    1.960835 S    
C10   C12   1.445842 A    
V3    O20   1.706096 S    
O2    V1    1.961318 S    
C23   H10   1.083242 S    
C66   O26   1.220485 D    
O4    C2    1.297055 A    
C29   C32   1.216659 T    
O18   V4    1.988862 S    
C24   C25   1.404927 A    
N3    O29   1.301420 A    
C65   H23   1.085737 S    
C56   C58   1.426272 A    
O1    C2    1.300603 A    
C12   C16   1.426295 A    
H13   C38   1.084557 S    
C45   C46   1.401062 A    
O5    V1    1.955608 S    
N1    O23   1.301452 A    
O8    C3    1.301767 A    
C42   C62   1.457084 S    
O18   C63   1.296048 A    
O15   C63   1.299264 A    
C31   C64   1.452781 S    
O17   V4    1.700903 S    
C27   C30   1.457378 S    
C20   C21   1.389579 A    
O9    V2    1.988773 S    
C33   C34   1.423374 A    
C27   C28   1.404879 A    
C53   H16   1.084594 S    
O3    V1    1.986813 S    
V1    O10   1.706028 S    
C5    C63   1.473793 S    
C37   C38   1.404034 A    
C18   C20   1.416454 A    
C54   H22   1.076296 S    
C9    H6    1.075985 S    
C52   N2    1.436474 S    
C24   C29   1.457632 S    
C22   H2    1.076011 S    
O7    V2    1.703665 S    
C6    C21   1.389203 A    
C5    C9    1.406257 A    
O13   V3    1.955529 S    
C46   N1    1.442953 S    
C52   C53   1.396282 A    
C51   C57   1.445132 A    
O4    V1    1.992314 S    
C26   H12   1.083260 S    
V4    O20   2.148441 S    
O17   V3    2.152105 S    
C60   H17   1.077825 S    
C20   H8    1.080400 S    
C10   C11   1.419044 A    
O16   V4    1.994032 S    
O9    C4    1.297865 A    
O11   C62   1.297886 A    
C14   H7    1.075157 S    
