data_mof_unit_12935.cif
_audit_creation_date              2012-12-10T18:06:39-0500
_audit_creation_method            fapswitch 2.2
_symmetry_space_group_name_H-M    P1
_symmetry_Int_Tables_number       1
_space_group_crystal_system       triclinic
_cell_length_a                    12.603291
_cell_length_b                    13.143202
_cell_length_c                    15.413119
_cell_angle_alpha                 83.399757
_cell_angle_beta                  98.943255
_cell_angle_gamma                 96.616723
_cell_volume                      2493.02977642

loop_
_atom_site_label
_atom_site_type_symbol
_atom_type_description
_atom_site_fract_x
_atom_site_fract_y
_atom_site_fract_z
_atom_type_partial_charge
C1    C     C_R   0.442666 0.308624 0.508130 0.851251
C2    C     C_R   0.438897 0.454559 0.106510 0.100470
C3    C     C_R   0.327961 0.429356 0.077102 0.114739
C4    C     C_R   0.517401 0.439147 0.054257 0.001220
C5    C     C_R   0.483073 0.416881 0.966424 0.048946
C6    C     C_R   0.372479 0.380153 0.941139 0.181878
C7    C     C_R   0.296296 0.389738 0.995995 -0.235505
C8    C     C_R   0.628993 0.445163 0.087200 -0.243488
C9    C     C_R   0.706923 0.446316 0.031745 -0.036322
C10   C     C_R   0.672994 0.443034 0.940392 0.074212
C11   C     C_R   0.560662 0.434733 0.907726 0.088468
C12   C     C_R   0.434841 0.511143 0.335943 0.857095
C13   C     C_R   0.747451 0.449597 0.880048 -0.154183
C14   C     C_R   0.712500 0.462084 0.789756 -0.197207
C15   C     C_R   0.528657 0.457423 0.817359 -0.255418
C16   C     C_R   0.628242 0.940194 0.360041 -0.181344
C17   C     C_R   0.580888 0.800751 0.467582 -0.049409
C18   C     C_R   0.341494 0.160206 0.580470 -0.179983
C19   C     C_R   0.324595 0.054895 0.602560 -0.139793
C20   C     C_R   0.378946 0.988433 0.565461 -0.183074
C21   C     C_R   0.447639 0.026792 0.501882 0.089655
C22   C     C_R   0.451316 0.131828 0.470362 0.088583
C23   C     C_R   0.555709 0.691526 0.488771 0.858321
C24   C     C_R   0.512975 0.964656 0.468525 0.084759
C25   C     C_R   0.565940 0.003071 0.394797 0.160078
C26   C     C_R   0.554191 0.102861 0.355956 -0.225610
C27   C     C_R   0.498977 0.167278 0.394011 -0.208802
C28   C     C_R   0.527896 0.865431 0.507155 -0.247505
C29   C     C_R   0.634367 0.838349 0.395617 -0.193849
C30   C     C_R   0.407588 0.199117 0.516526 -0.105822
C31   C     C_R   0.138672 0.642034 0.622486 -0.302221
C32   C     C_R   0.757270 0.377450 0.397950 -0.046206
C33   C     C_R   0.852851 0.346604 0.379194 -0.060797
C34   C     C_R   0.564703 0.486305 0.664070 0.858600
C35   C     C_R   0.950644 0.392822 0.419537 -0.264288
C36   C     C_R   0.952712 0.468480 0.478271 -0.004597
C37   C     C_R   0.853418 0.494047 0.496540 0.235437
C38   C     C_R   0.049024 0.519034 0.519928 0.002711
C39   C     C_R   0.044211 0.591611 0.580693 0.192294
C40   C     C_R   0.945249 0.613446 0.598816 -0.285173
C41   C     C_R   0.851109 0.565518 0.556840 -0.208227
C42   C     C_R   0.150803 0.501439 0.503217 -0.049457
C43   C     C_R   0.236797 0.620607 0.603282 0.012292
C44   C     C_R   0.392895 0.499798 0.243374 -0.068903
C45   C     C_R   0.603164 0.470070 0.758379 -0.059689
C46   C     C_R   0.250545 0.440291 0.131081 -0.167076
C47   C     C_R   0.283146 0.473308 0.214930 -0.179221
C48   C     C_R   0.468095 0.497305 0.186612 -0.238576
H1    H     H_    0.212041 0.363855 0.976012 0.160559
H2    H     H_    0.832835 0.446006 0.901378 0.175193
H3    H     H_    0.674914 0.787751 0.363881 0.161559
H4    H     H_    0.588808 0.131512 0.296832 0.204535
H5    H     H_    0.668289 0.968487 0.303387 0.158092
H6    H     H_    0.494621 0.834272 0.566189 0.137097
H7    H     H_    0.305869 0.211372 0.615519 0.159471
H8    H     H_    0.363538 0.907525 0.586053 0.130069
H9    H     H_    0.272790 0.024911 0.651345 0.144759
H10   H     H_    0.492268 0.244612 0.362313 0.161819
H11   H     H_    0.311291 0.658548 0.634667 0.130127
H12   H     H_    0.445433 0.468636 0.792561 0.181375
H13   H     H_    0.940484 0.668355 0.645136 0.160608
H14   H     H_    0.136540 0.697341 0.669059 0.146854
H15   H     H_    0.163468 0.449410 0.457663 0.129297
H16   H     H_    0.679909 0.343610 0.367953 0.166308
H17   H     H_    0.023380 0.367874 0.404267 0.181275
H18   H     H_    0.777578 0.585780 0.573055 0.213503
H19   H     H_    0.771551 0.468600 0.744792 0.163830
H20   H     H_    0.165497 0.419478 0.109873 0.153426
H21   H     H_    0.223540 0.474193 0.258380 0.159769
H22   H     H_    0.550330 0.527262 0.207460 0.155825
H23   H     H_    0.657613 0.448847 0.156658 0.180245
N1    N     N_R   0.239390 0.551900 0.544730 -0.103745
N2    N     N_R   0.759950 0.448600 0.455730 -0.137888
O1    O     O_R   0.374950 0.371210 0.521360 -0.613700
O2    O     O_R   0.542050 0.338030 0.492790 -0.607019
O3    O     O_R   0.368720 0.526070 0.390200 -0.608303
O4    O     O_R   0.535820 0.492890 0.361630 -0.622166
O5    O     O_R   0.457950 0.661970 0.507210 -0.606099
O6    O     O_R   0.625050 0.628790 0.478640 -0.634298
O7    O     O_R   0.464180 0.507110 0.638370 -0.618542
O8    O     O_R   0.631280 0.473930 0.609800 -0.629606
Zn1   Zn    Zn3+2 0.388420 0.522150 0.519080 0.941880
Zn2   Zn    Zn3+2 0.611580 0.477850 0.480920 0.931409
C49   C     C_2   0.851239 0.266402 0.318558 0.972648
O9    O     O_2   0.766394 0.234908 0.275631 -0.653219
O10   O     O_R   0.947140 0.227388 0.309350 -0.814040
H24   H     H_    0.935539 0.173704 0.265637 0.349394
C50   C     C_2   0.822108 0.463363 0.071246 0.889688
O11   O     O_2   0.884392 0.526686 0.035250 -0.645207
O12   O     O_R   0.857880 0.410962 0.152650 -0.790971
H25   H     H_    0.937164 0.430223 0.173835 0.340774
C51   C     C_3   0.334046 0.316993 0.864182 -0.926264
H26   H     H_    0.285076 0.362523 0.810652 0.241916
H27   H     H_    0.401737 0.288958 0.838578 0.250753
H28   H     H_    0.282669 0.247017 0.885715 0.247743

loop_
_geom_bond_atom_site_label_1
_geom_bond_atom_site_label_2
_ccdc_geom_bond_type
C43   N1    A    
C17   C29   A    
C15   H12   S    
C35   C36   A    
C4    C8    A    
C19   H9    S    
C26   C27   A    
C17   C23   S    
C31   C43   A    
C1    O1    A    
C51   H26   S    
C36   C37   A    
C49   O10   S    
C5    C11   A    
C3    C7    A    
C9    C50   S    
C5    C6    A    
C35   H17   S    
C18   C19   A    
C16   H5    S    
C47   H21   S    
C34   O7    A    
C11   C15   A    
C19   C20   A    
C8    C9    A    
C14   H19   S    
C18   C30   A    
C34   O8    A    
C9    C10   A    
C44   C47   A    
C43   H11   S    
C21   C22   A    
C31   H14   S    
O1    Zn1   S    
C51   H27   S    
O8    Zn2   S    
C14   C45   A    
C1    O2    A    
C24   C25   A    
C7    H1    S    
O7    Zn1   S    
O3    Zn1   S    
C32   N2    A    
C28   H6    S    
O10   H24   S    
C2    C48   A    
C16   C29   A    
C10   C13   A    
C51   H28   S    
C40   H13   S    
C2    C4    A    
C46   H20   S    
C26   H4    S    
O5    Zn1   S    
C12   O4    A    
C20   C21   A    
C42   N1    A    
C34   C45   S    
C49   O9    D    
C32   H16   S    
C41   H18   S    
C18   H7    S    
C40   C41   A    
C50   O12   S    
C22   C27   A    
C12   O3    A    
C15   C45   A    
C39   C40   A    
C29   H3    S    
C16   C25   A    
C37   N2    A    
C46   C47   A    
C8    H23   S    
C22   C30   A    
C17   C28   A    
C24   C28   A    
C48   H22   S    
C4    C5    A    
C27   H10   S    
C38   C42   A    
C6    C7    A    
C3    C46   A    
C32   C33   A    
C36   C38   A    
C2    C3    A    
C25   C26   A    
C12   C44   S    
O6    Zn2   S    
O2    Zn2   S    
O12   H25   S    
C38   C39   A    
C6    C51   S    
C1    C30   S    
C33   C35   A    
C31   C39   A    
C20   H8    S    
C23   O5    A    
C37   C41   A    
C33   C49   S    
C10   C11   A    
C13   H2    S    
C50   O11   D    
C21   C24   A    
O4    Zn2   S    
C23   O6    A    
C13   C14   A    
C42   H15   S    
N2    Zn2   S    
N1    Zn1   S    
C44   C48   A    
