data_mof_unit_41672.cif
_audit_creation_date              2012-12-10T16:48:48-0500
_audit_creation_method            fapswitch 2.2
_symmetry_space_group_name_H-M    P1
_symmetry_Int_Tables_number       1
_space_group_crystal_system       triclinic
_cell_length_a                    17.078358
_cell_length_b                    8.673484
_cell_length_c                    7.44341
_cell_angle_alpha                 103.103264
_cell_angle_beta                  89.152509
_cell_angle_gamma                 92.717212
_cell_volume                      1072.65931025

loop_
_atom_site_label
_atom_site_type_symbol
_atom_type_description
_atom_site_fract_x
_atom_site_fract_y
_atom_site_fract_z
_atom_type_partial_charge
C1    C     C_R   0.497589 0.199757 0.453589 0.877901
C2    C     C_R   0.502410 0.800243 0.546411 0.877942
C3    C     C_2   0.496452 0.031738 0.427540 -0.372510
C4    C     C_2   0.503547 0.968262 0.572460 -0.372517
C5    C     C_R   0.351197 0.502336 0.528090 0.829990
C6    C     C_R   0.648802 0.497653 0.471909 0.830004
C7    C     C_R   0.266526 0.505135 0.553269 -0.072420
C8    C     C_R   0.733469 0.494718 0.446717 -0.072464
C9    C     C_R   0.221134 0.360990 0.526058 0.108141
C10   C     C_R   0.778904 0.638799 0.473626 0.108181
C11   C     C_R   0.138694 0.365812 0.548696 0.226671
C12   C     C_R   0.861342 0.633827 0.451022 0.226643
C13   C     C_R   0.103958 0.515045 0.588269 0.073582
C14   C     C_R   0.896029 0.484535 0.411759 0.073551
C15   C     C_R   0.150205 0.655398 0.623113 -0.202465
C16   C     C_R   0.849742 0.344226 0.377230 -0.202381
C17   C     C_R   0.231384 0.652302 0.606519 0.124684
C18   C     C_R   0.768565 0.347457 0.393797 0.124683
C19   C     C_2   0.019247 0.530780 0.578442 -0.207303
C20   C     C_2   0.980732 0.468732 0.421590 -0.207411
Cu1   Cu    Cu3+1 0.508700 0.517250 0.683000 0.946554
Cu2   Cu    Cu3+1 0.491300 0.482750 0.317000 0.946551
H1    H     H_    0.010262 0.393897 0.305895 0.169356
H2    H     H_    0.989711 0.605644 0.694114 0.169308
H3    H     H_    0.122298 0.768242 0.655787 0.148505
H4    H     H_    0.877615 0.231325 0.344820 0.148507
H5    H     H_    0.489806 0.959976 0.287979 0.180554
H6    H     H_    0.510194 0.040024 0.712021 0.180547
H7    H     H_    0.439044 0.379456 0.959066 0.227058
H8    H     H_    0.560956 0.620544 0.040934 0.227055
N1    N     N_2   0.478180 0.456750 0.041980 -0.215635
N2    N     N_2   0.521820 0.543250 0.958020 -0.215634
O1    O     O_R   0.505650 0.286040 0.618880 -0.583983
O2    O     O_R   0.494350 0.713960 0.381120 -0.583978
O3    O     O_R   0.490960 0.256910 0.309800 -0.587807
O4    O     O_R   0.509040 0.743090 0.690200 -0.587805
O5    O     O_R   0.394600 0.516230 0.672450 -0.585951
O6    O     O_R   0.605400 0.483770 0.327550 -0.585952
O7    O     O_R   0.379910 0.487100 0.363380 -0.577058
O8    O     O_R   0.620090 0.512900 0.636620 -0.577048
C21   C     C_3   0.262301 0.205488 0.473531 -0.874721
H9    H     H_    0.222312 0.098820 0.448261 0.244927
H10   H     H_    0.296390 0.200803 0.344390 0.235496
H11   H     H_    0.303126 0.196814 0.585225 0.225570
C22   C     C_3   0.737784 0.794381 0.525829 -0.874784
H12   H     H_    0.777804 0.901012 0.550878 0.244873
H13   H     H_    0.696969 0.802917 0.414052 0.225609
H14   H     H_    0.703690 0.799307 0.655018 0.235442
C23   C     C_3   0.720341 0.193265 0.360962 -0.861129
H15   H     H_    0.687902 0.183790 0.488718 0.233679
H16   H     H_    0.677794 0.188349 0.248238 0.240180
H17   H     H_    0.757470 0.089111 0.320616 0.227707
C24   C     C_3   0.279560 0.806547 0.639645 -0.861202
H18   H     H_    0.312007 0.816236 0.511983 0.233581
H19   H     H_    0.242395 0.910620 0.680124 0.227748
H20   H     H_    0.322100 0.811380 0.752354 0.240249
C25   C     C_3   0.911119 0.785322 0.463394 -0.884497
H21   H     H_    0.888146 0.853628 0.367741 0.231879
H22   H     H_    0.910321 0.858012 0.606828 0.230567
H23   H     H_    0.972993 0.764085 0.422225 0.242665
C26   C     C_3   0.088969 0.214206 0.536031 -0.884608
H24   H     H_    0.111997 0.145735 0.631428 0.231907
H25   H     H_    0.027102 0.235286 0.577346 0.242639
H26   H     H_    0.089746 0.141752 0.392492 0.230581

loop_
_geom_bond_atom_site_label_1
_geom_bond_atom_site_label_2
_ccdc_geom_bond_type
C26   H26   S    
C2    C4    S    
C6    O6    A    
C23   H16   S    
C24   H18   S    
C5    O5    A    
C9    C11   A    
C21   H9    S    
C9    C21   S    
C19   C20   D    
C20   H1    S    
C23   H17   S    
C21   H11   S    
C2    O2    A    
C10   C22   S    
C3    H5    S    
C19   H2    S    
C1    O1    A    
H7    N1    S    
Cu1   O4    S    
C26   H25   S    
Cu1   Cu2   S    
C24   H20   S    
H8    N2    S    
Cu2   O3    S    
C21   H10   S    
C25   H21   S    
Cu1   O8    S    
C10   C12   A    
C12   C25   S    
C16   C18   A    
Cu1   O5    S    
C4    H6    S    
C12   C14   A    
C7    C9    A    
C24   H19   S    
C13   C15   A    
C16   H4    S    
C26   H24   S    
Cu2   O2    S    
Cu1   N2    S    
C14   C16   A    
C15   H3    S    
C25   H22   S    
Cu2   N1    S    
Cu2   O7    S    
C3    C4    D    
Cu2   O6    S    
C17   C24   S    
C11   C13   A    
C6    O8    A    
Cu1   O1    S    
C1    O3    A    
C14   C20   S    
C15   C17   A    
C23   H15   S    
C22   H13   S    
C2    O4    A    
C5    C7    S    
C5    O7    A    
C13   C19   S    
C25   H23   S    
C6    C8    S    
C22   H14   S    
C1    C3    S    
C22   H12   S    
C8    C10   A    
C8    C18   A    
N1    N2    D    
C18   C23   S    
C11   C26   S    
C7    C17   A    
