data_mof_unit_19229.cif
_audit_creation_date              2012-12-11T16:29:26-0500
_audit_creation_method            fapswitch 2.2
_symmetry_space_group_name_H-M    P1
_symmetry_Int_Tables_number       1
_space_group_crystal_system       triclinic
_cell_length_a                    6.955522
_cell_length_b                    17.383563
_cell_length_c                    18.722852
_cell_angle_alpha                 106.190832
_cell_angle_beta                  89.662857
_cell_angle_gamma                 90.597394
_cell_volume                      2173.89764221

loop_
_atom_site_label
_atom_site_type_symbol
_atom_type_description
_atom_site_fract_x
_atom_site_fract_y
_atom_site_fract_z
_atom_type_partial_charge
O1    O     O_R   0.494360 0.415680 0.413760 -0.506497
O2    O     O_R   0.818810 0.432910 0.557230 -0.534226
O3    O     O_R   0.994290 0.584320 0.586240 -0.539247
C1    C     C_R   0.649799 0.416320 0.580927 0.801052
O4    O     O_R   0.823740 0.406440 0.412520 -0.543542
O5    O     O_R   0.999250 0.557660 0.440500 -0.531385
C2    C     C_R   0.654467 0.382961 0.385473 0.809022
O6    O     O_R   0.489400 0.442340 0.559500 -0.501319
O7    O     O_3   0.662500 0.549650 0.509350 -0.376127
V1    V     V_3+5 0.935340 0.490790 0.498270 1.463742
O8    O     O_R   0.329270 0.567090 0.442770 -0.529174
C3    C     C_R   0.161272 0.583856 0.419218 0.703268
O9    O     O_R   0.324340 0.593560 0.587480 -0.541343
C4    C     C_R   0.155381 0.616334 0.615154 0.677131
V2    V     V_3+5 0.435970 0.509210 0.501730 1.492401
O10   O     O_3   0.158940 0.450350 0.490650 -0.341764
H1    H     H_    0.886301 0.851885 0.557482 0.146732
C5    C     C_R   0.275050 0.600681 0.758432 -0.209394
C6    C     C_R   0.328187 0.589639 0.826670 0.460595
C7    C     C_R   0.323125 0.654739 0.890619 -0.209290
C8    C     C_R   0.255633 0.728689 0.887058 -0.202289
C9    C     C_R   0.194805 0.740419 0.818962 0.074218
C10   C     C_R   0.206419 0.675249 0.753110 -0.001324
C11   C     C_R   0.119820 0.815106 0.816087 -0.126862
C12   C     C_R   0.055669 0.824294 0.747144 -0.016420
C13   C     C_R   0.068896 0.759328 0.681122 0.077580
C14   C     C_R   0.145083 0.684807 0.683925 -0.130169
C15   C     C_R   0.980856 0.898067 0.742229 -0.243598
C16   C     C_R   0.919466 0.907463 0.674469 0.678556
C17   C     C_R   0.932934 0.844209 0.610115 -0.193330
C18   C     C_R   0.007441 0.771064 0.613023 -0.245109
H2    H     H_    0.284142 0.549322 0.710065 0.121454
H3    H     H_    0.370993 0.648239 0.943507 0.132346
H4    H     H_    0.250231 0.776205 0.938566 0.121561
H5    H     H_    0.969725 0.949415 0.790486 0.130103
H6    H     H_    0.017150 0.724177 0.561197 0.129611
C19   C     C_1   0.112124 0.861828 0.130742 -0.222231
C20   C     C_1   0.119134 0.818776 0.173907 -0.011639
C21   C     C_1   0.128458 0.768793 0.225989 0.006078
C22   C     C_1   0.136556 0.726940 0.270181 0.030958
C23   C     C_1   0.146061 0.677357 0.322637 0.051369
C24   C     C_1   0.153604 0.635320 0.366687 -0.177567
C25   C     C_1   0.641178 0.364250 0.632843 -0.149617
C26   C     C_1   0.637529 0.321434 0.676229 0.035727
C27   C     C_1   0.634950 0.270877 0.727839 0.015368
C28   C     C_1   0.632605 0.228424 0.771555 0.034343
C29   C     C_1   0.628945 0.178183 0.823438 0.070255
C30   C     C_1   0.624379 0.135595 0.867023 -0.115391
H7    H     H_    0.263005 0.164817 0.433693 0.173544
C31   C     C_R   0.818546 0.393111 0.247580 -0.372357
C32   C     C_R   0.894285 0.402537 0.181739 0.523966
C33   C     C_R   0.874661 0.341615 0.116300 0.556805
C34   C     C_R   0.781599 0.270192 0.116241 0.414363
C35   C     C_R   0.710180 0.256869 0.183557 -0.134008
C36   C     C_R   0.725946 0.320827 0.250261 -0.076193
C37   C     C_R   0.620005 0.183197 0.185330 -0.109081
C38   C     C_R   0.535928 0.175413 0.253202 -0.081802
C39   C     C_R   0.543455 0.241967 0.318839 -0.095822
C40   C     C_R   0.643201 0.313594 0.317567 -0.066399
C41   C     C_R   0.446976 0.102362 0.258810 0.402797
C42   C     C_R   0.332553 0.103500 0.321400 -0.316863
C43   C     C_R   0.339409 0.167843 0.383962 -0.208604
C44   C     C_R   0.452990 0.233905 0.384936 0.588425
H8    H     H_    0.831589 0.444152 0.295936 0.175084
H9    H     H_    0.247043 0.051946 0.323795 0.145301
O11   O     O_R   0.775690 0.057750 0.940570 -0.506235
O12   O     O_R   0.441200 0.093570 0.087490 -0.522793
O13   O     O_R   0.265840 0.942320 0.059480 -0.513222
C45   C     C_R   0.609867 0.115550 0.115931 0.923651
O14   O     O_R   0.446270 0.067110 0.942790 -0.534173
O15   O     O_R   0.270950 0.915660 0.913750 -0.542328
C46   C     C_R   0.615336 0.083667 0.919063 0.800487
O16   O     O_R   0.770580 0.084400 0.086300 -0.517016
O17   O     O_3   0.602640 0.950400 0.990690 -0.378642
V3    V     V_3+5 0.329740 0.009200 0.001730 1.514130
O18   O     O_R   0.940900 0.906360 0.912450 -0.543474
C47   C     C_R   0.109841 0.883642 0.884796 0.671713
O19   O     O_R   0.935830 0.932820 0.057160 -0.537435
C48   C     C_R   0.104066 0.915109 0.079849 0.716196
V4    V     V_3+5 0.829130 0.990680 0.998180 1.494437
O20   O     O_3   0.106100 0.049590 0.009310 -0.345510
F1    F     F_    0.982559 0.472342 0.181219 -0.634294
F2    F     F_    0.942787 0.352342 0.051652 -0.612905
F3    F     F_    0.756012 0.216768 0.048830 -0.673959
O21   O     O_3   0.473178 0.030727 0.203542 -0.564048
C49   C     C_3   0.510723 0.966575 0.234433 0.048331
H10   H     H_    0.373490 0.939842 0.246858 0.138476
H11   H     H_    0.598583 0.985809 0.286210 0.125590
C50   C     C_3   0.622433 0.902161 0.179134 -0.662073
H12   H     H_    0.766236 0.926579 0.172331 0.212531
H13   H     H_    0.638941 0.849143 0.200597 0.178166
H14   H     H_    0.548179 0.883609 0.124657 0.230747
F4    F     F_    0.474181 0.288098 0.452131 -0.708933
O22   O     O_3   0.394894 0.515417 0.828452 -0.560444
C51   C     C_3   0.274149 0.483664 0.874460 0.088230
H15   H     H_    0.119037 0.489225 0.861966 0.129015
H16   H     H_    0.301784 0.514302 0.934109 0.150045
C52   C     C_3   0.316807 0.395165 0.861110 -0.624581
H17   H     H_    0.469873 0.387238 0.873831 0.231426
H18   H     H_    0.224199 0.369763 0.897587 0.221021
H19   H     H_    0.287327 0.362401 0.802184 0.209638
F5    F     F_    0.847697 0.978639 0.671203 -0.685536

loop_
_geom_bond_atom_site_label_1
_geom_bond_atom_site_label_2
_ccdc_geom_bond_type
C36   C40   A    
C31   H8    S    
C23   C24   T    
C51   H15   S    
C1    O6    A    
C51   C52   S    
O21   C49   S    
C26   C27   S    
O13   V3    S    
C19   C48   S    
C13   C14   A    
C16   C17   A    
C34   F3    S    
C15   C16   A    
O5    C3    A    
C17   C18   A    
O19   V4    S    
V2    O10   S    
C37   C38   A    
C5    C6    A    
C3    C24   S    
O1    C2    A    
C35   C36   A    
O8    V2    S    
O11   C46   A    
C6    C7    A    
C15   H5    S    
C45   O16   A    
O1    V2    S    
C10   C14   A    
C4    C14   S    
C50   H13   S    
O7    V1    S    
O13   C48   A    
C13   C18   A    
O17   V4    S    
O9    C4    A    
H1    C17   S    
C42   C43   A    
C30   C46   S    
C2    C40   S    
C9    C10   A    
C35   C37   A    
O17   V3    S    
C5    C10   A    
C11   C12   A    
C21   C22   T    
O4    C2    A    
O19   C48   A    
V3    O20   S    
C38   C41   A    
C8    H4    S    
C39   C40   A    
C34   C35   A    
C32   C33   A    
C41   C42   A    
O12   C45   A    
C33   F2    S    
O2    C1    A    
C25   C26   T    
C19   C20   T    
C42   H9    S    
C29   C30   T    
O8    C3    A    
C43   C44   A    
C31   C32   A    
O18   C47   A    
C50   H14   S    
O3    C4    A    
C32   F1    S    
C6    O22   S    
C7    H3    S    
C22   C23   S    
C52   H17   S    
O6    V2    S    
C52   H18   S    
O9    V2    S    
C9    C11   A    
O12   V3    S    
O2    V1    S    
O15   C47   A    
C33   C34   A    
C39   C44   A    
C28   C29   S    
H7    C43   S    
C49   H10   S    
O18   V4    S    
V4    O20   S    
C49   C50   S    
O5    V1    S    
C41   O21   S    
C51   H16   S    
C1    C25   S    
C52   H19   S    
O11   V4    S    
C44   F4    S    
C31   C36   A    
C12   C13   A    
O4    V1    S    
O3    V1    S    
V1    O10   S    
O15   V3    S    
C38   C39   A    
C20   C21   S    
O16   V4    S    
C16   F5    S    
C49   H11   S    
O7    V2    S    
O22   C51   S    
C12   C15   A    
C27   C28   T    
C11   C47   S    
C5    H2    S    
C7    C8    A    
C37   C45   S    
O14   V3    S    
C18   H6    S    
O14   C46   A    
C50   H12   S    
C8    C9    A    
