data_mof_unit_67282.cif
_audit_creation_date              2013-03-05T16:01:59-0500
_audit_creation_method            fapswitch 2.2
_symmetry_space_group_name_H-M    P1
_symmetry_Int_Tables_number       1
_space_group_crystal_system       triclinic
_cell_length_a                    8.543609
_cell_length_b                    14.439411
_cell_length_c                    15.069753
_cell_angle_alpha                 95.328616
_cell_angle_beta                  97.558479
_cell_angle_gamma                 92.440562
_cell_volume                      1832.12754143

loop_
_atom_site_label
_atom_site_type_symbol
_atom_site_description
_atom_site_fract_x
_atom_site_fract_y
_atom_site_fract_z
_atom_type_partial_charge
P1    P     P_3+3 0.018620 0.416870 0.295980 0.562941
O1    O     O_2   0.841250 0.444240 0.280450 -0.368631
O2    O     O_3   0.112870 0.447390 0.393710 -0.305252
O3    O     O_3   0.597960 0.615760 0.327700 -0.400904
O4    O     O_2   0.635862 0.546794 0.164957 -0.345441
O5    O     O_3   0.041780 0.298459 0.255663 -0.609493
O6    O     O_3   0.590486 0.726923 0.183952 -0.512278
H1    H     H_    0.673779 0.783680 0.314601 0.154532
C1    C     C_3   0.593181 0.891764 0.233605 -0.764418
H2    H     H_    0.718197 0.916281 0.237259 0.276102
P2    P     P_3+3 0.635650 0.716500 0.560900 0.461909
P3    P     P_3+3 0.054676 0.785219 0.365012 0.437833
O7    O     O_2   0.802240 0.729720 0.532850 -0.394236
O8    O     O_3   0.017190 0.664840 0.371090 -0.344405
O9    O     O_2   0.959732 0.829134 0.437269 -0.377355
O10   O     O_3   0.663844 0.751014 0.676724 -0.555565
O11   O     O_3   0.957392 0.830628 0.266492 -0.558494
C2    C     C_3   0.007943 0.801948 0.181427 0.081993
C3    C     C_3   0.904010 0.845880 0.104135 -0.661789
C4    C     C_3   0.213078 0.738722 0.633223 0.421980
H3    H     H_    0.319170 0.709280 0.609269 0.097967
C5    C     C_3   0.237365 0.844349 0.650014 -0.955249
H4    H     H_    0.137374 0.873625 0.681554 0.258634
Ba1   Ba    Ba6+2 0.833410 0.543320 0.453520 1.643443
C6    C     C_3   0.976270 0.217953 0.287987 0.317451
C7    C     C_3   0.048027 0.133443 0.242946 -1.016322
H5    H     H_    0.045850 0.139763 0.170567 0.263867
H6    H     H_    0.167200 0.123786 0.277917 0.223107
C8    C     C_3   0.761984 0.691245 0.722759 0.392877
H7    H     H_    0.859623 0.669322 0.685131 0.087004
H8    H     H_    0.688664 0.629823 0.735554 0.121492
C9    C     C_3   0.835993 0.742596 0.812380 -0.810719
H9    H     H_    0.917748 0.800658 0.800457 0.258264
P4    P     P_3+3 0.171070 0.583210 0.704020 0.487441
O12   O     O_2   0.348460 0.555790 0.719610 -0.339204
O13   O     O_3   0.076820 0.552690 0.606290 -0.379389
O14   O     O_3   0.591740 0.384320 0.672310 -0.321605
O15   O     O_3   0.189504 0.705048 0.714594 -0.566848
P5    P     P_3+3 0.142376 0.214945 0.638628 0.511178
O16   O     O_3   0.629090 0.386360 0.459240 -0.341810
O17   O     O_3   0.172500 0.335240 0.628910 -0.328296
O18   O     O_2   0.263807 0.166299 0.585385 -0.367741
O19   O     O_3   0.203241 0.196173 0.750978 -0.492108
Ba2   Ba    Ba6+2 0.356410 0.456750 0.546480 1.637647
P6    P     P_3+3 0.535014 0.616417 0.213159 0.488471
C10   C     C_3   0.578735 0.792021 0.258524 0.479442
H10   H     H_    0.462554 0.782523 0.282699 0.042005
O20   O     O_3   0.560600 0.613720 0.540760 -0.379509
C11   C     C_3   0.403586 0.264899 0.265059 0.271713
C12   C     C_3   0.356350 0.199675 0.175224 -0.772587
H11   H     H_    0.332720 0.128373 0.192522 0.221986
H12   H     H_    0.247517 0.225193 0.139730 0.201412
P7    P     P_3+3 0.556249 0.268281 0.435417 0.490589
O21   O     O_2   0.387470 0.270310 0.467210 -0.302290
O22   O     O_3   0.531063 0.230913 0.318920 -0.618013
H13   H     H_    0.920127 0.811099 0.037126 0.205417
C13   C     C_3   0.194622 0.280495 0.804959 0.336845
H14   H     H_    0.273931 0.335911 0.785585 0.159378
H15   H     H_    0.071793 0.303503 0.799239 0.000317
C14   C     C_3   0.250866 0.269385 0.903313 -0.595091
H16   H     H_    0.261935 0.338928 0.942510 0.175249
H17   H     H_    0.368383 0.240033 0.909925 0.239078
P8    P     P_3+3 0.639671 0.402613 0.791159 0.483533
C15   C     C_3   0.666863 0.223730 0.810727 0.281232
H18   H     H_    0.787444 0.244083 0.797064 0.000704
O23   O     O_2   0.521239 0.471298 0.824073 -0.357665
O24   O     O_3   0.585327 0.301760 0.839428 -0.544357
C16   C     C_3   0.686048 0.160402 0.887332 -0.729055
C17   C     C_R   0.329096 0.572218 0.173354 0.237371
H19   H     H_    0.456682 0.640973 0.040260 0.181771
C18   C     C_R   0.110189 0.478965 0.210490 0.254111
C19   C     C_R   0.920045 0.504885 0.777633 -0.385972
C20   C     C_R   0.841020 0.455942 0.834901 0.231004
C21   C     C_R   0.913804 0.448651 0.922825 -0.255326
C22   C     C_R   0.064232 0.494234 0.955693 0.101625
C23   C     C_R   0.144167 0.543966 0.893680 -0.093051
C24   C     C_R   0.131072 0.498648 0.049874 0.120833
C25   C     C_R   0.273336 0.553609 0.079980 0.092422
C26   C     C_R   0.351126 0.596766 0.017745 -0.124952
C27   C     C_R   0.284048 0.598955 0.928989 -0.098362
C28   C     C_R   0.057372 0.456388 0.117152 -0.270818
C29   C     C_R   0.239465 0.541686 0.237048 -0.432607
C30   C     C_R   0.075371 0.539916 0.800427 0.163607
H20   H     H_    0.955927 0.408089 0.099495 0.196204
H21   H     H_    0.859589 0.514021 0.711873 0.177056
H22   H     H_    0.847468 0.410569 0.965022 0.181115
C31   C     C_R   0.705617 0.937090 0.546228 -0.135061
C32   C     C_R   0.515831 0.799511 0.495601 0.252308
C33   C     C_R   0.368795 0.765764 0.446908 -0.529388
C34   C     C_R   0.260872 0.826743 0.409201 0.217206
C35   C     C_R   0.302931 0.921654 0.416275 -0.246979
C36   C     C_R   0.453364 0.956530 0.456888 0.034913
C37   C     C_R   0.560238 0.896782 0.499861 -0.026714
H23   H     H_    0.333333 0.692565 0.443749 0.164639
C38   C     C_R   0.641811 0.090887 0.499117 0.105389
C39   C     C_R   0.747334 0.032804 0.546053 0.089950
C40   C     C_R   0.684134 0.187312 0.499368 0.221173
C41   C     C_R   0.829444 0.223087 0.548587 -0.539510
C42   C     C_R   0.936847 0.165780 0.592668 0.176048
C43   C     C_R   0.894750 0.070682 0.591323 -0.165546
C44   C     C_R   0.495101 0.051455 0.455919 -0.164522
H24   H     H_    0.787962 0.895193 0.583105 0.169857
H25   H     H_    0.349492 0.863634 0.695478 0.279815
H26   H     H_    0.242401 0.875668 0.586247 0.225368
C45   C     C_2   0.806084 0.202541 0.257422 1.030963
O25   O     O_2   0.738429 0.257488 0.211345 -0.592963
O26   O     O_R   0.731086 0.118438 0.273843 -0.777546
H27   H     H_    0.624391 0.102389 0.237567 0.368483
C46   C     C_2   0.018490 0.207975 0.385052 0.846905
O27   O     O_2   0.100836 0.267439 0.433585 -0.523463
O28   O     O_R   0.988452 0.120511 0.414077 -0.805523
H28   H     H_    0.078222 0.101837 0.458040 0.329171
H29   H     H_    0.984009 0.066852 0.250543 0.290409
H30   H     H_    0.541247 0.939288 0.282437 0.237138
H31   H     H_    0.903409 0.694537 0.854147 0.229320
H32   H     H_    0.743035 0.771738 0.849985 0.286682
H33   H     H_    0.531243 0.897429 0.164961 0.312571
H34   H     H_    0.301856 0.265489 0.302459 0.124743
C47   C     C_2   0.440659 0.362710 0.248284 0.996451
O29   O     O_2   0.449842 0.385188 0.173070 -0.585823
O30   O     O_R   0.466224 0.429061 0.321043 -0.770660
H35   H     H_    0.572838 0.460883 0.321504 0.383978
C48   C     C_2   0.468969 0.185213 0.106669 1.203234
O31   O     O_2   0.515229 0.249476 0.067822 -0.581623
O32   O     O_R   0.510536 0.094578 0.082591 -0.769770
H36   H     H_    0.593004 0.092287 0.040351 0.353924
C49   C     C_2   0.140183 0.206746 0.941849 1.064034
O33   O     O_2   0.135911 0.122835 0.920882 -0.585042
O34   O     O_R   0.046246 0.244415 0.003666 -0.841476
H37   H     H_    0.983488 0.194888 0.029417 0.307224
C50   C     C_2   0.572513 0.171184 0.728133 1.057135
O35   O     O_2   0.554448 0.207944 0.658608 -0.615938
O36   O     O_R   0.506614 0.080943 0.730078 -0.786932
H38   H     H_    0.451981 0.052763 0.669187 0.340565
C51   C     C_2   0.781405 0.077012 0.868061 1.164322
O37   O     O_2   0.785957 0.015207 0.918203 -0.608080
O38   O     O_R   0.861404 0.068881 0.792748 -0.809681
H39   H     H_    0.918365 0.008850 0.787265 0.338194
H40   H     H_    0.566775 0.134947 0.899042 0.216111
C52   C     C_2   0.973433 0.699615 0.156720 0.988553
O39   O     O_2   0.996820 0.664138 0.083213 -0.669973
O40   O     O_R   0.899093 0.647700 0.212556 -0.672071
H41   H     H_    0.893228 0.580221 0.190413 0.344185
H42   H     H_    0.741613 0.201664 0.949997 0.221156
H43   H     H_    0.280544 0.558818 0.307925 0.180662
C53   C     C_2   0.341802 0.680115 0.888001 1.126176
O41   O     O_2   0.472326 0.681282 0.863188 -0.631899
O42   O     O_R   0.255049 0.760068 0.888978 -0.749102
H44   H     H_    0.310963 0.814058 0.865297 0.351867
H45   H     H_    0.216401 0.969016 0.391706 0.155213
H46   H     H_    0.978611 0.026015 0.623739 0.142263
C54   C     C_2   0.181212 0.829178 0.179461 0.962600
O43   O     O_2   0.262910 0.777593 0.138778 -0.620667
O44   O     O_R   0.246421 0.916508 0.216701 -0.772315
H47   H     H_    0.166286 0.956666 0.242236 0.294176
C55   C     C_2   0.869837 0.322792 0.561245 1.209222
O45   O     O_2   0.908610 0.364485 0.500595 -0.529587
O46   O     O_R   0.885574 0.367744 0.646362 -0.796143
H48   H     H_    0.868999 0.323695 0.692771 0.232263
H49   H     H_    0.410928 0.093987 0.421014 0.154728
H50   H     H_    0.777083 0.832520 0.109161 0.229131
C56   C     C_2   0.936769 0.946631 0.095240 1.141493
O47   O     O_2   0.835306 0.001943 0.106583 -0.629675
O48   O     O_R   0.076248 0.974531 0.063647 -0.721396
H51   H     H_    0.081755 0.042635 0.053706 0.337070
H52   H     H_    0.107897 0.721454 0.581808 0.131148

loop_
_geom_bond_atom_site_label_1
_geom_bond_atom_site_label_2
_geom_bond_distance
_ccdc_geom_bond_type
C3    H13   1.113184 S    
O36   H38   1.013533 S    
C1    H33   1.110049 S    
C20   C21   1.402904 A    
O28   H28   1.008453 S    
C9    H32   1.109742 S    
C49   O34   1.395535 S    
C40   C41   1.410745 A    
P2    O20   1.577927 S    
C6    C45   1.467314 S    
C51   O37   1.220415 D    
P5    O17   1.767463 S    
P7    O21   1.578751 D    
C45   O26   1.406351 S    
C7    H5    1.100747 S    
Ba1   O13   2.881295 S    
C1    H30   1.107848 S    
O6    P6    1.756511 S    
P3    C34   1.853011 S    
C55   O45   1.213425 D    
C52   O40   1.374966 S    
P1    O1    1.575506 D    
C8    C9    1.524166 S    
C46   O28   1.398827 S    
O3    Ba1   2.877474 S    
C48   O32   1.398497 S    
O5    C6    1.422427 S    
C41   C42   1.405129 A    
C39   C43   1.413080 A    
P2    Ba1   3.471865 S    
C5    H26   1.104418 S    
C14   H17   1.102444 S    
P4    O12   1.575932 D    
C3    H50   1.106988 S    
O8    Ba1   2.787582 S    
C33   H23   1.082024 S    
C17   C29   1.394735 A    
C32   C37   1.432565 A    
C38   C39   1.422419 A    
C44   H49   1.081253 S    
P3    O11   1.796545 S    
C38   C44   1.405268 A    
C12   H12   1.105176 S    
O26   H27   1.005423 S    
C15   C50   1.511037 S    
C1    H2    1.103568 S    
C56   O48   1.397498 S    
C6    C46   1.481649 S    
C18   C29   1.389776 A    
P7    O22   1.770388 S    
P8    O23   1.542587 D    
C1    C10   1.525789 S    
C17   C25   1.421860 A    
C2    C54   1.520204 S    
C23   C30   1.445091 A    
O14   P8    1.776289 S    
C19   H21   1.077803 S    
P5    O18   1.545909 D    
C53   O42   1.398202 S    
O3    P6    1.740114 S    
C47   O30   1.375459 S    
C43   H46   1.083397 S    
C41   C55   1.455177 S    
O2    Ba2   2.881986 S    
C21   C22   1.424860 A    
P6    C17   1.848742 S    
P1    O5    1.788621 S    
Ba1   O20   2.992319 S    
C15   O24   1.413291 S    
C48   O31   1.220855 D    
P4    Ba2   3.450803 S    
O42   H44   1.013955 S    
C35   C36   1.400257 A    
C25   C26   1.395301 A    
C2    C3    1.568660 S    
C13   C14   1.522116 S    
P5    O19   1.753872 S    
P8    C20   1.865823 S    
P7    C40   1.878960 S    
C6    C7    1.531327 S    
C24   C25   1.420860 A    
O4    P6    1.543852 D    
C21   H22   1.077569 S    
C5    H25   1.110777 S    
O7    Ba1   2.879492 S    
C14   H16   1.110511 S    
P1    O2    1.596526 S    
C3    C56   1.491341 S    
O46   H48   1.007321 S    
C22   C23   1.451268 A    
O6    C10   1.413525 S    
P8    O24   1.758806 S    
C8    H7    1.109588 S    
Ba2   O21   2.879526 S    
C31   H24   1.079627 S    
C4    O15   1.395725 S    
P2    O10   1.752306 S    
P5    C42   1.884046 S    
C42   C43   1.402221 A    
P3    O9    1.547166 D    
C24   C28   1.430702 A    
P2    C32   1.873908 S    
C31   C39   1.412824 A    
C4    H3    1.105898 S    
O11   C2    1.436516 S    
O44   H47   1.007335 S    
C12   H11   1.102124 S    
P1    C18   1.869666 S    
C52   O39   1.221042 D    
C2    C52   1.496929 S    
O12   Ba2   2.866819 S    
C22   C24   1.453064 A    
O30   H35   1.001469 S    
C36   C44   1.403401 A    
O2    Ba1   3.007926 S    
C54   O44   1.393523 S    
O16   P7    1.777735 S    
O1    Ba1   2.866119 S    
O32   H36   1.009347 S    
Ba1   Ba2   4.639656 S    
O17   Ba2   2.788151 S    
O13   Ba2   3.008940 S    
P4    C30   1.899378 S    
C4    C5    1.523437 S    
C50   O35   1.212863 D    
C33   C34   1.404493 A    
C15   C16   1.534524 S    
C28   H20   1.077843 S    
C53   O41   1.221857 D    
O38   H39   1.014015 S    
C51   O38   1.398273 S    
C10   H10   1.108882 S    
O48   H51   1.008443 S    
H19   C26   1.079879 S    
P4    O15   1.750123 S    
C14   C49   1.489526 S    
C12   C48   1.508397 S    
C23   C27   1.419585 A    
P3    O8    1.766971 S    
C19   C20   1.387805 A    
C50   O36   1.401665 S    
C35   H45   1.081383 S    
C47   O29   1.218940 D    
C38   C40   1.423072 A    
C49   O33   1.221188 D    
C56   O47   1.221127 D    
C4    H52   1.109908 S    
C45   O25   1.217189 D    
C7    H6    1.103829 S    
C15   H18   1.109649 S    
O14   Ba2   2.876856 S    
C55   O46   1.370126 S    
O34   H37   1.011497 S    
C7    H29   1.108571 S    
C8    H8    1.110126 S    
C11   O22   1.404556 S    
C46   O27   1.209825 D    
C9    H9    1.110924 S    
P2    O7    1.546276 D    
C34   C35   1.392655 A    
C11   C47   1.485988 S    
C16   C51   1.509558 S    
C31   C37   1.415728 A    
C27   C53   1.470971 S    
C36   C37   1.418703 A    
Ba1   O16   2.816059 S    
C16   H42   1.107060 S    
P4    O13   1.596526 S    
C9    H31   1.108714 S    
H1    C10   1.111183 S    
C19   C30   1.387644 A    
C13   H15   1.109169 S    
O19   C13   1.410342 S    
C26   C27   1.387862 A    
C11   H34   1.096233 S    
C29   H43   1.081727 S    
O16   Ba2   2.991325 S    
C32   C33   1.411711 A    
O10   C8    1.396044 S    
P1    Ba1   3.450098 S    
C11   C12   1.571516 S    
O40   H41   0.997137 S    
C5    H4    1.111157 S    
C16   H40   1.109997 S    
C54   O43   1.220616 D    
C13   H14   1.110813 S    
Ba2   O20   2.815519 S    
C18   C28   1.422565 A    
