data_mof_unit_44371.cif
_audit_creation_date              2013-03-05T16:03:42-0500
_audit_creation_method            fapswitch 2.2
_symmetry_space_group_name_H-M    P1
_symmetry_Int_Tables_number       1
_space_group_crystal_system       triclinic
_cell_length_a                    14.921229
_cell_length_b                    13.999455
_cell_length_c                    19.223114
_cell_angle_alpha                 89.939751
_cell_angle_beta                  89.828685
_cell_angle_gamma                 90.168828
_cell_volume                      4015.46084234

loop_
_atom_site_label
_atom_site_type_symbol
_atom_site_description
_atom_site_fract_x
_atom_site_fract_y
_atom_site_fract_z
_atom_type_partial_charge
O1    O     O_R   0.367850 0.580280 0.500020 -0.588098
O2    O     O_R   0.632150 0.419720 0.499980 -0.579206
O3    O     O_R   0.632150 0.580280 0.499980 -0.622281
O4    O     O_R   0.367850 0.419720 0.500020 -0.625156
C1    C     C_R   0.326736 0.499766 0.501926 0.944195
C2    C     C_R   0.673052 0.500045 0.497418 0.939340
O5    O     O_R   0.499990 0.580300 0.398140 -0.636282
O6    O     O_R   0.500010 0.419700 0.601860 -0.634189
O7    O     O_R   0.500010 0.580300 0.601860 -0.607937
O8    O     O_R   0.499990 0.419700 0.398140 -0.607721
C3    C     C_R   0.500113 0.500034 0.365406 0.953964
C4    C     C_R   0.499837 0.499956 0.634594 0.958138
Zn1   Zn    Zn3+2 0.500000 0.607200 0.500000 1.013203
Zn2   Zn    Zn3+2 0.500000 0.392800 0.500000 1.015522
C5    C     C_R   0.500061 0.586615 0.253448 -0.218680
C6    C     C_R   0.498073 0.413237 0.746477 -0.213119
C7    C     C_R   0.497286 0.586484 0.746406 -0.151042
C8    C     C_R   0.501085 0.413370 0.253656 -0.149663
H1    H     H_    0.501005 0.653780 0.281388 0.201743
H2    H     H_    0.497484 0.346119 0.718473 0.202098
H3    H     H_    0.498420 0.653664 0.718377 0.206074
H4    H     H_    0.500488 0.346234 0.281748 0.205704
C9    C     C_R   0.501118 0.587742 0.181083 0.296524
C10   C     C_R   0.495683 0.411985 0.818820 0.297662
C11   C     C_R   0.497597 0.587636 0.818758 0.291035
C12   C     C_R   0.499424 0.412089 0.181323 0.291653
C13   C     C_R   0.499900 0.499876 0.144938 -0.175715
C14   C     C_R   0.496427 0.499781 0.855055 -0.175579
C15   C     C_R   0.500460 0.500027 0.289739 -0.138030
C16   C     C_R   0.498530 0.499887 0.710259 -0.138377
N1    N     N_R   0.564332 0.454404 0.033886 -0.075687
N2    N     N_R   0.431638 0.545025 0.966101 -0.077490
N3    N     N_R   0.563425 0.454337 0.964906 -0.079314
N4    N     N_R   0.432544 0.545089 0.035092 -0.081593
C17   C     C_R   0.497081 0.499644 0.930238 0.412530
C18   C     C_R   0.498915 0.499800 0.069755 0.412468
C19   C     C_R   0.815454 0.451707 0.444701 0.325502
C20   C     C_R   0.184611 0.548796 0.556938 0.325052
C21   C     C_R   0.768481 0.499077 0.497236 -0.208294
C22   C     C_R   0.231006 0.497501 0.505909 -0.209634
C23   C     C_R   0.811644 0.541934 0.552725 -0.172845
C24   C     C_R   0.187014 0.439239 0.458806 -0.180126
C25   C     C_R   0.904588 0.541210 0.556820 -0.028533
C26   C     C_R   0.094152 0.436876 0.456425 -0.032328
C27   C     C_R   0.952768 0.487492 0.506703 -0.035894
C28   C     C_R   0.046032 0.486411 0.508828 -0.029807
C29   C     C_R   0.907543 0.436813 0.453323 -0.131331
C30   C     C_R   0.091378 0.536474 0.562566 -0.135738
C31   C     C_R   0.949591 0.587829 0.611942 0.246941
C32   C     C_R   0.048900 0.383163 0.404817 0.242339
C33   C     C_R   0.042164 0.573210 0.619654 0.334259
C34   C     C_R   0.955372 0.373388 0.409763 0.350756
H5    H     H_    0.770912 0.574066 0.592937 0.224919
H6    H     H_    0.227120 0.397353 0.423341 0.232210
C35   C     C_R   0.555392 0.798325 0.455442 -0.016397
C36   C     C_R   0.444659 0.201678 0.544607 -0.017694
C37   C     C_R   0.444740 0.797845 0.544656 0.004074
C38   C     C_R   0.555365 0.202089 0.455458 0.007134
N5    N     N_R   0.500000 0.750030 0.500000 -0.118676
N6    N     N_R   0.500000 0.249970 0.500000 -0.119949
C39   C     C_R   0.443381 0.898514 0.545737 -0.004238
C40   C     C_R   0.556807 0.101441 0.454448 -0.002131
C41   C     C_R   0.556812 0.899018 0.454422 0.011986
C42   C     C_R   0.443342 0.100969 0.545720 0.009895
C43   C     C_R   0.500089 0.949363 0.500081 0.092629
C44   C     C_R   0.500080 0.050605 0.500085 0.091391
C45   C     C_R   0.386980 0.949296 0.591139 -0.118048
C46   C     C_R   0.613321 0.050680 0.409117 -0.115855
C47   C     C_R   0.613297 0.950314 0.409089 -0.155499
C48   C     C_R   0.386960 0.049671 0.591129 -0.145520
H7    H     H_    0.598409 0.758180 0.420771 0.144732
H8    H     H_    0.401617 0.241829 0.579255 0.147834
H9    H     H_    0.401841 0.757355 0.579395 0.190532
H10   H     H_    0.598301 0.242451 0.420736 0.193878
H11   H     H_    0.342889 0.911407 0.626619 0.196558
H12   H     H_    0.657505 0.088575 0.373705 0.194367
H13   H     H_    0.657431 0.912843 0.373630 0.171242
H14   H     H_    0.342864 0.087149 0.626614 0.176022
N7    N     N_R   0.505903 0.678190 0.145432 0.229414
O9    O     O_R   0.557477 0.688902 0.091247 -0.288664
O10   O     O_R   0.468380 0.753352 0.172481 -0.314043
N8    N     N_R   0.490159 0.321484 0.854349 0.230341
O11   O     O_R   0.437998 0.310905 0.908209 -0.288414
O12   O     O_R   0.527746 0.246215 0.827512 -0.310150
N9    N     N_R   0.501939 0.678117 0.854208 0.233271
O13   O     O_R   0.554054 0.689381 0.907763 -0.283381
O14   O     O_R   0.463595 0.752897 0.827356 -0.298665
N10   N     N_R   0.494533 0.321540 0.145997 0.233656
O15   O     O_R   0.441810 0.310269 0.092803 -0.283702
O16   O     O_R   0.533134 0.246752 0.172615 -0.299914
N11   N     N_R   0.774098 0.435995 0.378082 0.219922
O17   O     O_R   0.809032 0.474713 0.322684 -0.328361
O18   O     O_R   0.700516 0.386688 0.372374 -0.366665
N12   N     N_R   0.230538 0.619660 0.597563 0.230692
O19   O     O_R   0.207561 0.708965 0.592395 -0.360574
O20   O     O_R   0.298929 0.596508 0.635827 -0.364913
S1    S     S_3+6 0.891945 0.670303 0.667061 0.113251
O21   O     O_2   0.835907 0.615662 0.718676 -0.194953
O22   O     O_2   0.955664 0.734268 0.705642 -0.166933
O23   O     O_3   0.823981 0.739614 0.619055 -0.531236
H15   H     H_    0.864042 0.771044 0.584708 0.360349
S2    S     S_3+6 0.107917 0.336356 0.331197 0.116034
O24   O     O_2   0.158788 0.248924 0.353119 -0.200348
O25   O     O_2   0.045911 0.310464 0.272730 -0.155128
O26   O     O_3   0.181337 0.418050 0.301032 -0.536757
H16   H     H_    0.144942 0.475786 0.292002 0.364330
S3    S     S_3+6 0.088945 0.570608 0.705094 0.143195
O27   O     O_2   0.160655 0.495587 0.709026 -0.260670
O28   O     O_2   0.128687 0.666223 0.722974 -0.165348
O29   O     O_3   0.009125 0.543202 0.763816 -0.461630
H17   H     H_    0.039349 0.547300 0.809525 0.405679
S4    S     S_3+6 0.902396 0.266860 0.378964 0.123174
O30   O     O_2   0.825122 0.240671 0.425696 -0.300799
O31   O     O_2   0.868380 0.281402 0.306212 -0.165105
O32   O     O_3   0.975717 0.175848 0.379264 -0.472892
H18   H     H_    0.942395 0.121046 0.359402 0.393526

loop_
_geom_bond_atom_site_label_1
_geom_bond_atom_site_label_2
_geom_bond_distance
_ccdc_geom_bond_type
C38   C40   1.409405 A    
C41   C43   1.408489 A    
C35   N5    1.365714 A    
C48   H14   1.083330 S    
S3    O28   1.503009 D    
C47   H13   1.083330 S    
C8    C12   1.390890 A    
O3    C2    1.280847 A    
S4    O31   1.503052 D    
S1    O21   1.502799 D    
C21   C23   1.384109 A    
N9    O13   1.301451 A    
C11   C14   1.413435 A    
C5    H1    1.083426 S    
C12   C13   1.413415 A    
O1    C1    1.282138 A    
C37   N5    1.365674 A    
C34   S4    1.788061 S    
C6    C16   1.398001 A    
O32   H18   0.990506 S    
S2    O26   1.682788 S    
C37   H9    1.082356 S    
O7    Zn1   1.993561 S    
O29   H17   0.990494 S    
C10   N8    1.440719 S    
C30   C33   1.416576 A    
C41   C47   1.405765 A    
C14   C17   1.445319 S    
C46   C47   1.405059 A    
C31   C33   1.405236 A    
C35   C41   1.409867 A    
C32   C34   1.404784 A    
S3    O27   1.503528 D    
N1    N3    1.326125 A    
C42   C48   1.405763 A    
C19   C29   1.400718 A    
C20   C30   1.405138 A    
O3    Zn1   2.008619 S    
O6    C4    1.288327 A    
N12   O20   1.301314 A    
C22   C24   1.384901 A    
C6    C10   1.391105 A    
C7    C16   1.398105 A    
C23   C25   1.389361 A    
O2    C2    1.278705 A    
C24   C26   1.386807 A    
S4    O30   1.503823 D    
S1    O22   1.502164 D    
C26   C28   1.418192 A    
C5    C15   1.397988 A    
C27   C29   1.419342 A    
C28   C30   1.420915 A    
C40   C44   1.408281 A    
N9    O14   1.301505 A    
S2    O24   1.502739 D    
N2    C17   1.353880 A    
O8    Zn2   1.993564 S    
N11   O17   1.301282 A    
N7    O10   1.301501 A    
C19   N11   1.440043 S    
C25   C31   1.415182 A    
C36   H8    1.082770 S    
C27   C28   1.392457 A    
C7    H3    1.083466 S    
C36   N6    1.365823 A    
N2    N4    1.326332 A    
O5    C3    1.288459 A    
N11   O18   1.300158 A    
C39   C45   1.405641 A    
C6    H2    1.083418 S    
C20   N12   1.436827 S    
C11   N9    1.440374 S    
C8    C15   1.398111 A    
S2    O25   1.501885 D    
C25   C27   1.418130 A    
C23   H5    1.081113 S    
C12   N10   1.440468 S    
N10   O16   1.301512 A    
C32   S2    1.790410 S    
C9    C13   1.413484 A    
S3    O29   1.681764 S    
C45   H11   1.083431 S    
S1    O23   1.682579 S    
C38   H10   1.081546 S    
C26   C32   1.417082 A    
C2    C21   1.424006 S    
O6    Zn2   1.994338 S    
C4    C16   1.454590 S    
C8    H4    1.083462 S    
C10   C14   1.413420 A    
O4    C1    1.279626 A    
C37   C39   1.409695 A    
C29   C34   1.414426 A    
Zn1   N5    1.999542 S    
C13   C18   1.445370 S    
C46   H12   1.083506 S    
Zn2   N6    1.999544 S    
O26   H16   0.990553 S    
N8    O12   1.301507 A    
C40   C46   1.405648 A    
C45   C48   1.405196 A    
C7    C11   1.390966 A    
C19   C21   1.396710 A    
C24   H6    1.080376 S    
C20   C22   1.399107 A    
C36   C42   1.410091 A    
C5    C9    1.391207 A    
O23   H15   0.991134 S    
N3    C17   1.353936 A    
N4    C18   1.354074 A    
C43   C44   1.417335 A    
O4    Zn2   2.008620 S    
N12   O19   1.301127 A    
O2    Zn2   2.006437 S    
O7    C4    1.288243 A    
O8    C3    1.288116 A    
C31   S1    1.788456 S    
N7    O9    1.301469 A    
C39   C43   1.408431 A    
O5    Zn1   1.994342 S    
O1    Zn1   2.006439 S    
N10   O15   1.301462 A    
C3    C15   1.454551 S    
C33   S3    1.786891 S    
N8    O11   1.301479 A    
C1    C22   1.430480 S    
N1    C18   1.353761 A    
C9    N7    1.440633 S    
C38   N6    1.365700 A    
S4    O32   1.681833 S    
C35   H7    1.082765 S    
C42   C44   1.408473 A    
