data_mof_unit_23733.cif
_audit_creation_date              2012-12-10T18:58:43-0500
_audit_creation_method            fapswitch 2.2
_symmetry_space_group_name_H-M    P1
_symmetry_Int_Tables_number       1
_space_group_crystal_system       triclinic
_cell_length_a                    12.940404
_cell_length_b                    10.764608
_cell_length_c                    9.602049
_cell_angle_alpha                 89.719263
_cell_angle_beta                  95.289644
_cell_angle_gamma                 90.905952
_cell_volume                      1331.67926972

loop_
_atom_site_label
_atom_site_type_symbol
_atom_type_description
_atom_site_fract_x
_atom_site_fract_y
_atom_site_fract_z
_atom_type_partial_charge
C1    C     C_R   0.501234 0.262807 0.500058 0.798712
C2    C     C_R   0.026500 0.536891 0.553659 0.171427
C3    C     C_R   0.973803 0.463119 0.447217 0.159780
C4    C     C_R   0.866683 0.447925 0.442496 -0.265948
C5    C     C_R   0.863866 0.580180 0.646234 -0.215387
C6    C     C_R   0.971205 0.594107 0.653523 -0.221278
C7    C     C_R   0.586553 0.064839 0.561675 0.028959
C8    C     C_R   0.502980 0.129692 0.496685 -0.039794
C9    C     C_R   0.426951 0.064408 0.410856 -0.205030
C10   C     C_R   0.426623 0.934511 0.410174 -0.226517
C11   C     C_R   0.501341 0.870543 0.496986 -0.039060
C12   C     C_R   0.300934 0.498954 0.474495 0.795710
C13   C     C_R   0.583902 0.937387 0.565150 0.085956
C14   C     C_3   0.638147 0.932244 0.709157 0.202526
C15   C     C_3   0.645126 0.073969 0.702666 -0.509300
C16   C     C_R   0.559677 0.583799 0.079689 0.228680
C17   C     C_R   0.434296 0.425533 0.068424 -0.093515
C18   C     C_R   0.433625 0.424563 0.920373 0.048796
C19   C     C_R   0.558392 0.585132 0.932642 0.236983
C20   C     C_3   0.672860 0.603238 0.937435 -0.542446
C21   C     C_3   0.675417 0.598739 0.095621 0.164562
C22   C     C_R   0.500049 0.737269 0.499652 0.782429
C23   C     C_R   0.699116 0.501256 0.525545 0.791379
C24   C     C_R   0.811570 0.508353 0.539766 -0.036549
C25   C     C_R   0.188568 0.492225 0.460428 -0.026703
C26   C     C_R   0.028983 0.406514 0.346776 -0.226238
C27   C     C_R   0.136199 0.421534 0.353040 -0.196067
C28   C     C_R   0.133704 0.551389 0.558997 -0.284614
Cu1   Cu    Cu3+1 0.499990 0.499980 0.640670 0.965370
Cu2   Cu    Cu3+1 0.500010 0.500020 0.359330 0.968642
H1    H     H_    0.826090 0.389081 0.363474 0.178577
H2    H     H_    0.713888 0.884034 0.714820 0.080415
H3    H     H_    0.602546 0.122065 0.780566 0.215645
H4    H     H_    0.725721 0.109251 0.696031 0.159718
H5    H     H_    0.382929 0.363597 0.119853 0.135991
H6    H     H_    0.712261 0.523570 0.893012 0.234164
H7    H     H_    0.695073 0.695698 0.897107 0.161709
H8    H     H_    0.702924 0.685948 0.149869 0.095570
H9    H     H_    0.821520 0.628293 0.721109 0.141151
H10   H     H_    0.989424 0.350315 0.264350 0.139553
H11   H     H_    0.010678 0.650665 0.735687 0.133922
H12   H     H_    0.178533 0.375203 0.276585 0.142981
H13   H     H_    0.174694 0.607630 0.640380 0.138775
H14   H     H_    0.365832 0.113435 0.349601 0.141052
H15   H     H_    0.365631 0.884436 0.347879 0.148186
N1    N     N_R   0.500660 0.500930 0.148010 -0.169108
N2    N     N_R   0.500660 0.500890 0.852110 -0.196231
O1    O     O_R   0.500000 0.319640 0.618810 -0.575478
O2    O     O_R   0.500010 0.319680 0.381230 -0.578562
O3    O     O_R   0.348990 0.499960 0.599490 -0.578904
O4    O     O_R   0.349000 0.500000 0.361910 -0.596859
O5    O     O_R   0.499990 0.680320 0.618770 -0.536428
O6    O     O_R   0.500000 0.680360 0.381190 -0.599866
O7    O     O_R   0.651000 0.500000 0.638090 -0.596067
O8    O     O_R   0.651010 0.500040 0.400510 -0.524352
C29   C     C_R   0.360342 0.335885 0.846240 0.154571
C30   C     C_R   0.256754 0.369130 0.810974 -0.132728
C31   C     C_R   0.185234 0.282158 0.749543 -0.138565
C32   C     C_R   0.215860 0.160414 0.727631 -0.144425
C33   C     C_R   0.317029 0.124549 0.771360 -0.136377
C34   C     C_R   0.388076 0.211302 0.833870 -0.118691
H16   H     H_    0.231769 0.462414 0.830617 0.120411
H17   H     H_    0.105958 0.308870 0.719800 0.145375
H18   H     H_    0.160592 0.093239 0.679849 0.130110
H19   H     H_    0.339984 0.029282 0.758773 0.167292
H20   H     H_    0.464165 0.181584 0.874521 0.127904
O9    O     O_3   0.724482 0.491526 0.149324 -0.690439
H21   H     H_    0.799917 0.507771 0.145972 0.316393
O10   O     O_3   0.571382 0.890448 0.806990 -0.709810
H22   H     H_    0.610625 0.901205 0.899975 0.311954

loop_
_geom_bond_atom_site_label_1
_geom_bond_atom_site_label_2
_ccdc_geom_bond_type
C7    C13   A    
C12   O3    A    
Cu2   O4    S    
C1    O1    A    
C23   O8    A    
Cu1   Cu2   S    
C25   C27   A    
C1    C8    S    
Cu2   O8    S    
C15   H4    S    
C19   C20   S    
C18   C29   S    
C12   C25   S    
C23   C24   S    
C18   N2    A    
C10   H15   S    
C7    C15   S    
C17   C18   A    
C26   C27   A    
C32   C33   A    
Cu1   O5    S    
C13   C14   S    
C17   N1    A    
C25   C28   A    
C20   H7    S    
C11   C13   A    
C27   H12   S    
C26   H10   S    
C30   C31   A    
C2    C6    A    
C5    C24   A    
Cu1   N2    S    
C16   C19   A    
C5    C6    A    
C9    C10   A    
C14   O10   S    
Cu2   O2    S    
Cu2   N1    S    
C33   H19   S    
C2    C3    A    
C22   O6    A    
Cu1   O3    S    
C5    H9    S    
O10   H22   S    
C4    C24   A    
Cu2   O6    S    
C19   N2    A    
C4    H1    S    
C10   C11   A    
Cu1   O1    S    
C3    C4    A    
C20   H6    S    
C32   H18   S    
C7    C8    A    
C12   O4    A    
C14   H2    S    
C20   C21   S    
C11   C22   S    
C22   O5    A    
C23   O7    A    
Cu1   O7    S    
C16   N1    A    
C31   H17   S    
C29   C30   A    
C16   C21   S    
C14   C15   S    
C8    C9    A    
C9    H14   S    
C2    C28   A    
C17   H5    S    
C30   H16   S    
C31   C32   A    
C29   C34   A    
C1    O2    A    
C34   H20   S    
C15   H3    S    
C3    C26   A    
C21   O9    S    
C21   H8    S    
O9    H21   S    
C28   H13   S    
C33   C34   A    
C6    H11   S    
