data_mof_unit_45845.cif
_audit_creation_date              2012-12-10T17:09:51-0500
_audit_creation_method            fapswitch 2.2
_symmetry_space_group_name_H-M    P1
_symmetry_Int_Tables_number       1
_space_group_crystal_system       triclinic
_cell_length_a                    10.865289
_cell_length_b                    13.05907
_cell_length_c                    11.642828
_cell_angle_alpha                 99.857555
_cell_angle_beta                  93.624492
_cell_angle_gamma                 90.092686
_cell_volume                      1624.23237158

loop_
_atom_site_label
_atom_site_type_symbol
_atom_type_description
_atom_site_fract_x
_atom_site_fract_y
_atom_site_fract_z
_atom_type_partial_charge
C1    C     C_R   0.500664 0.298762 0.478551 0.856501
C2    C     C_R   0.069810 0.513583 0.613689 0.105016
C3    C     C_R   0.128172 0.513901 0.507610 -0.121882
C4    C     C_R   0.056617 0.506891 0.402113 -0.216085
C5    C     C_R   0.929795 0.497486 0.399924 -0.208522
C6    C     C_R   0.872377 0.486095 0.501265 -0.122645
C7    C     C_R   0.489276 0.813416 0.533155 -0.146544
C8    C     C_R   0.499481 0.184693 0.466011 -0.261657
C9    C     C_R   0.462425 0.015241 0.345615 -0.315043
C10   C     C_R   0.480445 0.121975 0.354623 0.379278
C11   C     C_R   0.517384 0.137169 0.565962 0.325557
C12   C     C_R   0.262269 0.507323 0.502242 0.791645
C13   C     C_R   0.501877 0.029578 0.555878 0.012939
C14   C     C_R   0.472831 0.968467 0.445105 -0.053170
C15   C     C_R   0.459434 0.860683 0.434880 0.409818
C16   C     C_R   0.513812 0.874766 0.643252 -0.290842
C17   C     C_R   0.517411 0.981977 0.654958 -0.192829
C18   C     C_R   0.383233 0.400939 0.022680 -0.120618
C19   C     C_R   0.394518 0.412315 0.145363 0.040623
C20   C     C_R   0.549386 0.541809 0.157340 0.021159
C21   C     C_R   0.540279 0.537083 0.034405 -0.005628
C22   C     C_R   0.457170 0.464258 0.965680 -0.014800
C23   C     C_R   0.496812 0.700622 0.521195 0.825601
C24   C     C_R   0.449439 0.458833 0.842579 0.021187
C25   C     C_R   0.603262 0.589533 0.855222 0.022719
C26   C     C_R   0.612338 0.602097 0.978038 -0.109652
C27   C     C_R   0.737761 0.492369 0.499348 0.784885
C28   C     C_R   0.130363 0.541692 0.726554 -0.161195
C29   C     C_R   0.078266 0.517711 0.825049 -0.148686
C30   C     C_R   0.964847 0.466949 0.813413 -0.158211
C31   C     C_R   0.897951 0.450464 0.705762 -0.170926
C32   C     C_R   0.944976 0.482739 0.606677 0.100330
Cu1   Cu    Cu3+1 0.509250 0.507730 0.615930 0.934581
Cu2   Cu    Cu3+1 0.490750 0.492270 0.384070 0.952725
H1    H     H_    0.098600 0.509657 0.320689 0.160943
H2    H     H_    0.536932 0.026989 0.741400 0.181917
H3    H     H_    0.384327 0.406787 0.787455 0.163899
H4    H     H_    0.658218 0.638275 0.811290 0.142329
H5    H     H_    0.339006 0.364349 0.189743 0.165512
H6    H     H_    0.614656 0.593935 0.212239 0.156546
H7    H     H_    0.215670 0.585654 0.741865 0.160707
H8    H     H_    0.126989 0.537088 0.910111 0.133187
H9    H     H_    0.926574 0.443610 0.888729 0.128968
H10   H     H_    0.810911 0.410256 0.701284 0.164614
H11   H     H_    0.876694 0.498711 0.318209 0.163598
H12   H     H_    0.532719 0.839938 0.720445 0.180179
H13   H     H_    0.444063 0.969079 0.259581 0.193794
N1    N     N_R   0.523180 0.519350 0.790130 -0.197908
N2    N     N_R   0.476820 0.480650 0.209890 -0.205652
O1    O     O_R   0.506570 0.354460 0.582000 -0.545826
O2    O     O_R   0.490940 0.341410 0.386200 -0.542259
O3    O     O_R   0.327470 0.506530 0.597920 -0.600840
O4    O     O_R   0.311840 0.493480 0.402120 -0.593977
O5    O     O_R   0.509060 0.658590 0.613800 -0.602119
O6    O     O_R   0.493430 0.645540 0.418000 -0.536669
O7    O     O_R   0.688160 0.506520 0.597880 -0.597321
O8    O     O_R   0.672530 0.493470 0.402080 -0.593795
O9    O     O_3   0.480459 0.164770 0.253830 -0.552877
C33   C     C_3   0.593181 0.140463 0.201341 0.083342
H14   H     H_    0.587164 0.061121 0.148061 0.141427
H15   H     H_    0.673565 0.144578 0.266879 0.116448
C34   C     C_3   0.618366 0.217755 0.121653 -0.779721
H16   H     H_    0.625859 0.297644 0.172951 0.263976
H17   H     H_    0.706795 0.198697 0.080587 0.184486
H18   H     H_    0.542824 0.214238 0.052367 0.244403
O10   O     O_3   0.549555 0.195620 0.674363 -0.581266
C35   C     C_3   0.679475 0.201479 0.689800 0.083705
H19   H     H_    0.717719 0.247276 0.627733 0.131556
H20   H     H_    0.721575 0.122872 0.676588 0.133659
C36   C     C_3   0.715600 0.254366 0.813882 -0.840467
H21   H     H_    0.681905 0.207092 0.876212 0.238812
H22   H     H_    0.817351 0.261692 0.826294 0.197036
H23   H     H_    0.674886 0.332962 0.831365 0.261787
C37   C     C_R   0.295235 0.321139 0.958714 0.084614
C38   C     C_R   0.336510 0.238571 0.877050 -0.141023
C39   C     C_R   0.253817 0.161625 0.819709 -0.112198
C40   C     C_R   0.129860 0.165240 0.845571 -0.114731
C41   C     C_R   0.088735 0.245589 0.929075 -0.120591
C42   C     C_R   0.170840 0.323394 0.985321 -0.139046
H24   H     H_    0.432829 0.233527 0.858955 0.178407
H25   H     H_    0.286085 0.098671 0.756170 0.141224
H26   H     H_    0.065979 0.105263 0.801844 0.118556
H27   H     H_    0.993464 0.247365 0.950983 0.115930
H28   H     H_    0.137564 0.385281 0.049720 0.106248
C43   C     C_R   0.693461 0.686385 0.043874 0.069235
C44   C     C_R   0.819800 0.688355 0.025223 -0.158851
C45   C     C_R   0.895810 0.768828 0.085908 -0.133647
C46   C     C_R   0.846243 0.847996 0.165436 -0.121069
C47   C     C_R   0.720325 0.847369 0.183466 -0.135509
C48   C     C_R   0.643869 0.767495 0.122123 -0.136193
H29   H     H_    0.859293 0.627636 0.963997 0.132236
H30   H     H_    0.993060 0.769933 0.071002 0.126288
H31   H     H_    0.905254 0.910099 0.212578 0.118979
H32   H     H_    0.681990 0.908986 0.244608 0.127652
H33   H     H_    0.546112 0.768763 0.135161 0.175365
O11   O     O_3   0.424528 0.801384 0.327342 -0.593877
C49   C     C_3   0.295220 0.786757 0.320003 0.084771
H34   H     H_    0.247582 0.862183 0.319703 0.137414
H35   H     H_    0.264750 0.750977 0.394010 0.130827
C50   C     C_3   0.256465 0.713958 0.206961 -0.802763
H36   H     H_    0.301480 0.637622 0.205490 0.265550
H37   H     H_    0.154985 0.701690 0.200621 0.190227
H38   H     H_    0.283264 0.747780 0.130756 0.234216

loop_
_geom_bond_atom_site_label_1
_geom_bond_atom_site_label_2
_ccdc_geom_bond_type
C6    C32   A    
C45   C46   A    
C29   H8    S    
C1    C8    S    
C11   C13   A    
C21   C26   A    
C49   H34   S    
C48   H33   S    
C40   C41   A    
Cu1   O3    S    
Cu2   O2    S    
C20   N2    A    
C28   C29   A    
C10   O9    S    
C44   H29   S    
C26   C43   S    
C30   C31   A    
C20   H6    S    
C28   H7    S    
C2    C32   A    
C18   C19   A    
C47   H32   S    
C34   H17   S    
C3    C12   S    
C12   O3    A    
C41   H27   S    
C31   C32   A    
C16   C17   A    
Cu2   N2    S    
Cu2   O8    S    
C36   H21   S    
C17   H2    S    
C29   C30   A    
C1    O1    A    
C12   O4    A    
C11   O10   S    
Cu1   O7    S    
C7    C15   A    
O10   C35   S    
C4    H1    S    
C33   H14   S    
C18   C37   S    
C18   C22   A    
C21   C22   A    
C42   H28   S    
C49   H35   S    
Cu1   Cu2   S    
C33   H15   S    
C31   H10   S    
C35   H19   S    
C24   N1    A    
C39   C40   A    
C27   O8    A    
C16   H12   S    
C15   O11   S    
C9    C14   A    
C27   O7    A    
C25   C26   A    
C43   C44   A    
C5    H11   S    
C50   H38   S    
C35   H20   S    
C38   C39   A    
C34   H16   S    
C25   H4    S    
C19   N2    A    
C6    C27   S    
O11   C49   S    
C36   H23   S    
C50   H37   S    
C24   H3    S    
C20   C21   A    
C1    O2    A    
C25   N1    A    
C19   H5    S    
C7    C16   A    
C9    H13   S    
C37   C42   A    
C22   C24   A    
C30   H9    S    
O9    C33   S    
C3    C4    A    
C37   C38   A    
C49   C50   S    
C45   H30   S    
C23   O5    A    
C9    C10   A    
Cu1   O5    S    
C46   H31   S    
C33   C34   S    
C34   H18   S    
C44   C45   A    
C4    C5    A    
C39   H25   S    
C36   H22   S    
C43   C48   A    
C23   O6    A    
C13   C17   A    
C35   C36   S    
C2    C3    A    
Cu1   O1    S    
C41   C42   A    
C5    C6    A    
C40   H26   S    
C8    C11   A    
C7    C23   S    
C50   H36   S    
Cu2   O6    S    
C38   H24   S    
C46   C47   A    
Cu2   O4    S    
C8    C10   A    
Cu1   N1    S    
C14   C15   A    
C2    C28   A    
C47   C48   A    
C13   C14   A    
