data_mof_unit_57336.cif
_audit_creation_date              2012-12-11T15:55:50-0500
_audit_creation_method            fapswitch 2.2
_symmetry_space_group_name_H-M    P1
_symmetry_Int_Tables_number       1
_space_group_crystal_system       triclinic
_cell_length_a                    11.069497
_cell_length_b                    11.154691
_cell_length_c                    18.753053
_cell_angle_alpha                 90.381422
_cell_angle_beta                  90.106901
_cell_angle_gamma                 59.578618
_cell_volume                      1996.72375954

loop_
_atom_site_label
_atom_site_type_symbol
_atom_type_description
_atom_site_fract_x
_atom_site_fract_y
_atom_site_fract_z
_atom_type_partial_charge
C1    C     C_R   0.356213 0.776337 0.398958 0.519132
C2    C     C_R   0.591800 0.062908 0.182947 0.005701
C3    C     C_R   0.333096 0.287421 0.175246 -0.000572
C4    C     C_R   0.450419 0.201936 0.286473 -0.137700
C5    C     C_R   0.455790 0.186775 0.213010 -0.020221
C6    C     C_R   0.052560 0.670636 0.311316 -0.092065
C7    C     C_R   0.956689 0.774919 0.357866 -0.105149
C8    C     C_R   0.663981 0.068235 0.121475 -0.033293
C9    C     C_R   0.786834 0.951008 0.095630 0.285309
C10   C     C_R   0.219709 0.400109 0.212257 -0.167135
C11   C     C_R   0.223338 0.415955 0.286027 -0.012600
C12   C     C_R   0.381692 0.349755 0.391302 0.530354
C13   C     C_R   0.906402 0.741304 0.417862 -0.109251
C14   C     C_R   0.955942 0.602900 0.433902 -0.093165
C15   C     C_R   0.053879 0.498723 0.389244 -0.044771
C16   C     C_R   0.101797 0.530088 0.326242 0.044953
C17   C     C_R   0.344416 0.318784 0.321939 0.026829
C18   C     C_R   0.887161 0.332337 0.187503 -0.011766
C19   C     C_R   0.750948 0.402524 0.211664 -0.021313
C20   C     C_R   0.727641 0.397605 0.282830 -0.030674
C21   C     C_R   0.974963 0.282562 0.310594 0.231644
C22   C     C_R   0.998613 0.282072 0.236765 -0.085703
C23   C     C_R   0.781508 0.376027 0.405169 0.526800
C24   C     C_3   0.630460 0.384554 0.191704 -0.281090
C25   C     C_3   0.611804 0.369384 0.270405 -0.254247
C26   C     C_R   0.833297 0.343255 0.333376 0.013265
C27   C     C_R   0.284742 0.940990 0.189585 0.011682
C28   C     C_R   0.415728 0.885168 0.220058 -0.002819
C29   C     C_R   0.437065 0.850157 0.292607 -0.002983
C30   C     C_R   0.195259 0.918518 0.304641 -0.085367
C31   C     C_R   0.172996 0.951948 0.232414 0.119246
C32   C     C_3   0.533295 0.746689 0.198047 -0.260923
C33   C     C_3   0.562495 0.714122 0.275997 -0.254616
C34   C     C_R   0.345716 0.765133 0.605741 0.540359
C35   C     C_R   0.327563 0.862589 0.335159 -0.000491
C36   C     C_R   0.316781 0.331363 0.817048 -0.012204
C37   C     C_R   0.447996 0.257781 0.784322 0.069348
C38   C     C_R   0.458186 0.259565 0.711826 0.040949
C39   C     C_R   0.210987 0.419605 0.701175 -0.154906
C40   C     C_R   0.199824 0.420990 0.775492 -0.150601
C41   C     C_3   0.558406 0.105707 0.786560 0.004210
C42   C     C_3   0.566345 0.109477 0.706294 -0.238936
C43   C     C_R   0.341110 0.334731 0.668852 0.001234
C44   C     C_R   0.913166 0.292485 0.821215 0.014853
C45   C     C_R   0.370316 0.350557 0.595776 0.539383
C46   C     C_R   0.903866 0.404685 0.784154 0.021218
C47   C     C_R   0.871111 0.422328 0.712863 0.016248
C48   C     C_R   0.864022 0.210332 0.710593 -0.153570
C49   C     C_R   0.899871 0.191630 0.783078 -0.151633
C50   C     C_3   0.810610 0.556361 0.800499 -0.261297
C51   C     C_3   0.776382 0.575418 0.722553 -0.270405
C52   C     C_R   0.842449 0.330262 0.675883 0.015758
C53   C     C_R   0.323515 0.814444 0.831202 0.009599
C54   C     C_R   0.247323 0.763022 0.795450 -0.006244
C55   C     C_R   0.245369 0.762979 0.721518 0.055602
C56   C     C_R   0.766132 0.376081 0.609014 0.537288
C57   C     C_R   0.422976 0.825666 0.717353 -0.182232
C58   C     C_R   0.425025 0.826833 0.791704 -0.165017
C59   C     C_3   0.096845 0.801976 0.799720 -0.235441
C60   C     C_3   0.090267 0.822650 0.719668 0.010469
C61   C     C_R   0.326849 0.801142 0.681232 0.000782
C62   C     C_R   0.916962 0.314264 0.112816 0.543551
C63   C     C_R   0.307653 0.262993 0.101826 0.538361
C64   C     C_R   0.268934 0.963517 0.111928 0.552197
C65   C     C_R   0.943539 0.283097 0.897171 0.565894
C66   C     C_R   0.296810 0.289164 0.886452 0.541970
C67   C     C_R   0.845782 0.826853 0.135084 -0.110460
C68   C     C_R   0.278794 0.889612 0.899293 0.545545
C69   C     C_R   0.784340 0.822351 0.198298 -0.194755
C70   C     C_R   0.661461 0.938512 0.222417 -0.145711
Cr1   Cr    Cr6+3 0.601740 0.606840 0.505840 0.991608
Cr2   Cr    Cr6+3 0.291500 0.601560 0.495070 1.005689
Cr3   Cr    Cr6+3 0.606780 0.291630 0.499130 0.987584
Cr4   Cr    Cr6+3 0.062440 0.063060 0.008240 1.033173
Cr5   Cr    Cr6+3 0.062950 0.375000 0.998920 0.976776
Cr6   Cr    Cr6+3 0.374550 0.061770 0.992470 0.989058
H1    H     H_    0.541291 0.129214 0.316341 0.133939
H2    H     H_    0.833410 0.822468 0.453493 0.092978
H3    H     H_    0.923801 0.575972 0.482834 0.118188
H4    H     H_    0.103491 0.394213 0.408428 0.156957
H5    H     H_    0.105258 0.232077 0.217340 0.123843
H6    H     H_    0.662420 0.291965 0.159409 0.124776
H7    H     H_    0.540589 0.477200 0.168094 0.136615
H8    H     H_    0.509322 0.451038 0.292037 0.143652
H9    H     H_    0.645647 0.261396 0.285916 0.149019
H10   H     H_    0.113059 0.917543 0.334871 0.130862
H11   H     H_    0.615619 0.748946 0.166559 0.174530
H12   H     H_    0.492601 0.686488 0.170641 0.135418
H13   H     H_    0.541468 0.633412 0.293887 0.159630
H14   H     H_    0.661338 0.704750 0.295917 0.151514
H15   H     H_    0.118303 0.479235 0.669154 0.137854
H16   H     H_    0.098410 0.482185 0.799758 0.139728
H17   H     H_    0.522516 0.034972 0.805146 0.148522
H18   H     H_    0.666394 0.094181 0.685103 0.151428
H19   H     H_    0.923713 0.882431 0.350257 0.093077
H20   H     H_    0.526837 0.047649 0.678645 0.098057
H21   H     H_    0.842278 0.137931 0.683387 0.118176
H22   H     H_    0.905611 0.105793 0.810549 0.140241
H23   H     H_    0.867565 0.609027 0.818749 0.127232
H24   H     H_    0.718827 0.578189 0.834094 0.160947
H25   H     H_    0.666189 0.606760 0.711579 0.171864
H26   H     H_    0.815888 0.635779 0.694947 0.139768
H27   H     H_    0.496852 0.843381 0.688242 0.117707
H28   H     H_    0.497438 0.850730 0.817754 0.126240
H29   H     H_    0.030380 0.896430 0.830555 0.116750
H30   H     H_    0.942089 0.734543 0.119433 0.098166
H31   H     H_    0.086283 0.712362 0.816540 0.143000
H32   H     H_    0.037079 0.932389 0.702498 0.130759
H33   H     H_    0.831373 0.727273 0.228641 0.132668
H34   H     H_    0.621145 0.928226 0.272635 0.131072
H35   H     H_    0.093424 0.698829 0.266143 0.101283
H36   H     H_    0.625458 0.162972 0.091550 0.144570
H37   H     H_    0.124958 0.472720 0.184285 0.134085
O1    O     O_R   0.748670 0.497520 0.427970 -0.523275
O2    O     O_R   0.300170 0.471020 0.567120 -0.520304
O3    O     O_R   0.491630 0.259030 0.574940 -0.519906
O4    O     O_R   0.718640 0.304340 0.577850 -0.510215
O5    O     O_3   0.500010 0.500010 0.500020 -0.243437
O6    O     O_R   0.186620 0.923750 0.087000 -0.494870
O7    O     O_R   0.957350 0.194160 0.084660 -0.469484
O8    O     O_R   0.935120 0.407280 0.085350 -0.529571
O9    O     O_R   0.203800 0.365060 0.067090 -0.513079
O10   O     O_R   0.417470 0.174910 0.067830 -0.533648
O11   O     O_R   0.375160 0.946380 0.070880 -0.506100
O12   O     O_R   0.476470 0.723930 0.429450 -0.495215
O13   O     O_R   0.160500 0.919670 0.926690 -0.536368
O14   O     O_R   0.933140 0.190380 0.936050 -0.503608
O15   O     O_R   0.909010 0.403210 0.925030 -0.522339
O16   O     O_R   0.179590 0.361290 0.918480 -0.518374
O17   O     O_R   0.391360 0.170840 0.907510 -0.536664
O18   O     O_R   0.350950 0.942600 0.922260 -0.508324
O19   O     O_3   0.166650 0.166610 0.999880 -0.307217
O20   O     O_R   0.264730 0.744140 0.416740 -0.524584
O21   O     O_R   0.309440 0.472410 0.418220 -0.492920
O22   O     O_R   0.501630 0.260530 0.414310 -0.538367
O23   O     O_R   0.727920 0.305730 0.428950 -0.517706
O24   O     O_R   0.738670 0.496020 0.588600 -0.535249
O25   O     O_R   0.467190 0.722540 0.578350 -0.507236
O26   O     O_R   0.254720 0.742640 0.577370 -0.531770
O27   O     O_3   0.094051 0.213818 0.353412 -0.598699
C71   C     C_3   0.073141 0.164303 0.418659 -0.128774
H38   H     H_    0.176746 0.084000 0.439217 0.141661
H39   H     H_    0.008766 0.114202 0.412449 0.111827
H40   H     H_    0.028543 0.248286 0.459485 0.112494
O28   O     O_3   0.848896 0.967833 0.034875 -0.582026
C72   C     C_3   0.933901 0.841588 0.997849 -0.107553
H41   H     H_    0.881645 0.779099 0.991699 0.087886
H42   H     H_    0.037658 0.781007 0.024102 0.141209
H43   H     H_    0.953269 0.865477 0.943428 0.130453
N1    N     N_2   0.051272 0.963627 0.199903 -0.474532
H44   H     H_    0.068338 0.872135 0.176811 0.265441
C73   C     C_3   0.918048 0.039046 0.235551 -0.304199
H45   H     H_    0.878674 0.969655 0.247579 0.131243
H46   H     H_    0.844203 0.116635 0.198730 0.178445
H47   H     H_    0.921394 0.088459 0.285805 0.137034
N2    N     N_2   0.687112 0.080869 0.819853 -0.545610
H48   H     H_    0.771029 0.984202 0.807448 0.231758
C74   C     C_3   0.678591 0.111167 0.895257 -0.247428
H49   H     H_    0.780246 0.095191 0.913653 0.190068
H50   H     H_    0.654805 0.040185 0.925404 0.176153
H51   H     H_    0.598837 0.221419 0.906237 0.179393
N3    N     N_2   0.046983 0.737947 0.680920 -0.518032
H52   H     H_    0.116069 0.676324 0.642036 0.304905
C75   C     C_3   0.905254 0.813200 0.654141 -0.338658
H53   H     H_    0.886244 0.744696 0.618424 0.125642
H54   H     H_    0.888147 0.904103 0.622213 0.136979
H55   H     H_    0.830289 0.847803 0.699273 0.145346

loop_
_geom_bond_atom_site_label_1
_geom_bond_atom_site_label_2
_ccdc_geom_bond_type
C44   C49   A    
C7    C13   A    
C21   C26   A    
C41   C42   S    
Cr4   O19   S    
C63   O10   A    
Cr5   O9    S    
C6    H35   S    
C19   C20   A    
O28   C72   S    
C57   C58   A    
Cr1   O24   S    
C53   C54   A    
C51   H26   S    
C48   H21   S    
Cr2   O2    S    
C50   H23   S    
C59   H29   S    
C64   O6    A    
C23   O23   A    
C42   H20   S    
C65   O14   A    
C21   C22   A    
C75   H53   S    
C24   H7    S    
C1    O12   A    
C38   C42   S    
C71   H39   S    
C30   C31   A    
Cr6   O18   S    
C36   C66   S    
C20   C25   S    
C15   C16   A    
C32   H12   S    
C29   C33   S    
C34   O26   A    
Cr5   O15   S    
C56   O4    A    
C23   C26   S    
C9    O28   S    
C4    H1    S    
C53   C68   S    
C24   H6    S    
C33   H14   S    
C70   H34   S    
C74   H51   S    
C49   H22   S    
C46   C47   A    
Cr6   O17   S    
Cr2   O26   S    
C41   H17   S    
C65   O15   A    
Cr3   O22   S    
C8    C9    A    
C12   O22   A    
C12   C17   S    
C25   H8    S    
C60   N3    S    
Cr3   O23   S    
C30   H10   S    
C72   H42   S    
C60   H32   S    
C41   N2    S    
C59   C60   S    
C42   H18   S    
C55   C60   S    
C74   H50   S    
C44   C65   S    
C69   H33   S    
Cr4   O14   S    
C1    O20   A    
C39   H15   S    
C44   C46   A    
Cr1   O25   S    
N3    C75   S    
C54   C59   S    
C57   H27   S    
Cr3   O4    S    
C27   C31   A    
Cr6   O11   S    
C22   H5    S    
C28   C32   S    
C24   C25   S    
C10   C11   A    
C71   H40   S    
C39   C40   A    
C31   N1    S    
C18   C19   A    
C47   C51   S    
C64   O11   A    
C32   H11   S    
C34   O25   A    
C34   C61   S    
C59   H31   S    
Cr1   O1    S    
C67   C69   A    
N2    H48   S    
C68   O18   A    
C9    C67   A    
C37   C38   A    
Cr4   O6    S    
C33   H13   S    
C72   H43   S    
C43   C45   S    
C11   C16   S    
C45   O2    A    
Cr2   O21   S    
C15   H4    S    
C14   C15   A    
C73   H47   S    
C36   C40   A    
C25   H9    S    
C50   C51   S    
C14   H3    S    
O27   C71   S    
Cr5   O8    S    
Cr3   O3    S    
C47   C52   A    
C10   H37   S    
C4    C17   A    
C30   C35   A    
C48   C49   A    
C73   H46   S    
C74   H49   S    
N1    C73   S    
C2    C5    S    
C58   H28   S    
C68   O13   A    
C63   O9    A    
Cr4   O7    S    
Cr5   O19   S    
C1    C35   S    
C72   H41   S    
C46   C50   S    
C54   C55   A    
C28   C29   A    
Cr3   O5    S    
C12   O21   A    
Cr1   O5    S    
C18   C22   A    
Cr6   O10   S    
C62   O7    A    
C75   H55   S    
C2    C8    A    
C4    C5    A    
C3    C5    A    
C11   C17   A    
C39   C43   A    
C53   C58   A    
C67   H30   S    
C57   C61   A    
C6    C7    A    
C3    C63   S    
N3    H52   S    
C7    H19   S    
C29   C35   A    
C50   H24   S    
C32   C33   S    
C66   O16   A    
N2    C74   S    
C19   C24   S    
C38   C43   A    
C3    C10   A    
C2    C70   A    
C71   H38   S    
C23   O1    A    
C56   O24   A    
Cr6   O19   S    
C45   O3    A    
Cr2   O20   S    
Cr4   O13   S    
C20   C26   A    
C55   C61   A    
C75   H54   S    
C8    H36   S    
C37   C41   S    
C69   C70   A    
C40   H16   S    
C27   C64   S    
C13   H2    S    
C6    C16   A    
C52   C56   S    
C48   C52   A    
C73   H45   S    
C36   C37   A    
Cr2   O5    S    
C27   C28   A    
N1    H44   S    
Cr1   O12   S    
C18   C62   S    
C21   O27   S    
C13   C14   A    
C62   O8    A    
C51   H25   S    
Cr5   O16   S    
C66   O17   A    
