data_mof_unit_15654.cif
_audit_creation_date              2012-12-11T20:55:30-0500
_audit_creation_method            fapswitch 2.2
_symmetry_space_group_name_H-M    P1
_symmetry_Int_Tables_number       1
_space_group_crystal_system       triclinic
_cell_length_a                    8.295108
_cell_length_b                    19.129363
_cell_length_c                    22.833689
_cell_angle_alpha                 100.29544
_cell_angle_beta                  90.321012
_cell_angle_gamma                 91.89407
_cell_volume                      3562.7239674

loop_
_atom_site_label
_atom_site_type_symbol
_atom_type_description
_atom_site_fract_x
_atom_site_fract_y
_atom_site_fract_z
_atom_type_partial_charge
Ba1   Ba    Ba6+2 0.157290 0.533910 0.474710 1.782588
Ba2   Ba    Ba6+2 0.652900 0.466090 0.525240 1.738584
C1    C     C_3   0.339485 0.761314 0.273667 0.299656
C2    C     C_R   0.990787 0.271388 0.478682 0.040743
C3    C     C_R   0.144029 0.187371 0.548414 -0.109746
C4    C     C_3   0.895000 0.718727 0.339068 0.360567
C5    C     C_R   0.213477 0.252948 0.541450 0.143485
C6    C     C_R   0.675662 0.810435 0.448146 -0.180977
C7    C     C_R   0.607215 0.744116 0.453909 -0.017483
C8    C     C_R   0.859862 0.801521 0.528358 -0.150773
C9    C     C_R   0.822011 0.727596 0.520268 0.004594
C10   C     C_R   0.021768 0.153311 0.508786 0.019746
C11   C     C_R   0.127587 0.297198 0.511702 -0.124239
C12   C     C_3   0.404161 0.727442 0.324591 0.322824
C13   C     C_R   0.795037 0.844766 0.489035 0.016657
C14   C     C_R   0.689254 0.700921 0.485585 -0.157411
C15   C     C_R   0.231314 0.033654 0.538995 -0.070169
C16   C     C_3   0.926953 0.790591 0.320802 -0.364352
C17   C     C_R   0.324370 0.981631 0.556154 -0.089973
C18   C     C_R   0.278299 0.911235 0.538303 -0.068448
C19   C     C_R   0.133174 0.894115 0.507768 -0.077677
C20   C     C_R   0.016371 0.945575 0.506181 0.010157
C21   C     C_R   0.070405 0.019213 0.517693 0.045925
C22   C     C_R   0.852853 0.923510 0.490777 -0.016265
C23   C     C_3   0.505883 0.685291 0.628347 0.889013
C24   C     C_R   0.747638 0.978574 0.480796 0.044732
C25   C     C_R   0.801630 0.052100 0.492795 0.016420
C26   C     C_R   0.965146 0.074279 0.507452 -0.019272
C27   C     C_R   0.586191 0.964370 0.459905 -0.087651
C28   C     C_3   0.819015 0.374764 0.342535 0.293139
C29   C     C_R   0.492886 0.016942 0.443702 -0.081868
C30   C     C_R   0.538836 0.087182 0.462972 -0.065008
C31   C     C_R   0.684428 0.103509 0.493117 -0.098099
C32   C     C_R   0.641347 0.525684 0.336094 0.301844
C33   C     C_R   0.399871 0.556198 0.944242 -0.072204
C34   C     C_3   0.531378 0.763972 0.653735 -0.310125
C35   C     C_R   0.348098 0.552987 0.884852 0.599340
C36   C     C_R   0.237370 0.434603 0.881563 0.581806
C37   C     C_R   0.285132 0.436722 0.941350 -0.008115
C38   C     C_R   0.366682 0.498090 0.972832 -0.053925
C39   C     C_R   0.488152 0.615619 0.974933 -0.127228
C40   C     C_3   0.806674 0.354534 0.275096 -0.390692
C41   C     C_R   0.538252 0.619419 0.034305 0.427994
C42   C     C_R   0.498383 0.562472 0.064370 -0.075002
C43   C     C_R   0.416849 0.501011 0.032877 -0.109283
C44   C     C_R   0.255732 0.378437 0.970084 -0.078482
C45   C     C_3   0.901405 0.286670 0.654752 0.866602
C46   C     C_R   0.307099 0.380784 0.028750 -0.070094
C47   C     C_R   0.387704 0.441840 0.060823 -0.006863
C48   C     C_R   0.441695 0.444483 0.119951 0.588491
C49   C     C_R   0.536463 0.565577 0.125355 0.625596
C50   C     C_2   0.068517 0.475800 0.772829 -0.058001
C51   C     C_3   0.022362 0.482459 0.709638 -0.056240
C52   C     C_3   0.999708 0.632019 0.659516 0.290041
C53   C     C_1   0.304309 0.508561 0.692898 -0.021821
C54   C     C_2   0.348287 0.505629 0.748149 -0.087369
C55   C     C_2   0.223852 0.489572 0.791903 0.213492
C56   C     C_3   0.894585 0.215653 0.676003 -0.311321
C57   C     C_R   0.708901 0.541073 0.236095 -0.171923
C58   C     C_R   0.749342 0.549237 0.296541 -0.094102
C59   C     C_R   0.498739 0.488832 0.315156 -0.008539
C60   C     C_R   0.453983 0.483473 0.255052 -0.166270
C61   C     C_R   0.557656 0.510524 0.214731 0.209316
C62   C     C_2   0.168808 0.477023 0.670181 -0.237258
C63   C     C_3   0.039030 0.661328 0.724717 -0.366007
C64   C     C_3   0.320922 0.313776 0.387569 0.265852
C65   C     C_3   0.330738 0.233971 0.366022 0.387753
C66   C     C_3   0.549181 0.830110 0.242118 0.279562
C67   C     C_3   0.390919 0.284807 0.678020 0.278701
C68   C     C_3   0.469050 0.886221 0.212256 -0.209535
C69   C     C_3   0.569448 0.955877 0.222152 -0.484718
C70   C     C_3   0.580847 0.740761 0.066775 0.310114
C71   C     C_3   0.675184 0.787147 0.029554 -0.218071
C72   C     C_3   0.634686 0.865412 0.047117 -0.500511
C73   C     C_3   0.469109 0.283414 0.738155 -0.391276
C74   C     C_R   0.952335 0.197329 0.470751 -0.046375
F1    F     F_    0.267061 0.197062 0.407566 -0.775485
F2    F     F_    0.420145 0.678459 0.575529 -0.697597
F3    F     F_    0.058159 0.303183 0.641747 -0.829882
F4    F     F_    0.680587 0.533996 0.394645 -0.715343
H1    H     H_    0.411421 0.668866 0.309556 0.008436
H2    H     H_    0.193748 0.327149 0.396365 -0.009735
H3    H     H_    0.394881 0.329027 0.428862 0.054795
H4    H     H_    0.235852 0.727896 0.251979 0.092496
H5    H     H_    0.261794 0.218035 0.323632 0.051191
H6    H     H_    0.458683 0.219770 0.358409 0.039108
H7    H     H_    0.526561 0.750667 0.336227 -0.073250
H8    H     H_    0.625979 0.662244 0.619563 -0.053550
H9    H     H_    0.603185 0.770893 0.695692 0.061667
H10   H     H_    0.597307 0.790837 0.621318 0.049642
H11   H     H_    0.413123 0.789060 0.662980 0.111268
H12   H     H_    0.719325 0.308980 0.262481 0.138304
H13   H     H_    0.291244 0.814616 0.291687 -0.011479
H14   H     H_    0.831812 0.827843 0.338325 0.059474
H15   H     H_    0.823151 0.281861 0.614302 0.018443
H16   H     H_    0.926040 0.172169 0.639248 0.049344
H17   H     H_    0.980537 0.216956 0.713771 0.121998
H18   H     H_    0.770745 0.204173 0.690822 0.086772
H19   H     H_    0.285664 0.246774 0.673243 0.081233
H20   H     H_    0.351718 0.340033 0.678111 0.082626
H21   H     H_    0.380386 0.299249 0.774024 0.130965
H22   H     H_    0.574384 0.321412 0.745741 0.167295
H23   H     H_    0.765022 0.399864 0.255651 0.060860
H24   H     H_    0.916056 0.724792 0.387950 0.030159
H25   H     H_    0.508484 0.228900 0.740259 0.115619
H26   H     H_    0.864368 0.175671 0.436677 0.067409
H27   H     H_    0.184353 0.165333 0.585973 0.041429
H28   H     H_    0.634592 0.833751 0.411491 0.051843
H29   H     H_    0.944855 0.823637 0.563367 0.077722
H30   H     H_    0.171540 0.351137 0.512025 0.020410
H31   H     H_    0.643874 0.647363 0.486026 0.143772
H32   H     H_    0.296899 0.082297 0.539255 0.069818
H33   H     H_    0.443002 0.995400 0.575763 0.079415
H34   H     H_    0.926633 0.339463 0.256471 0.133243
H35   H     H_    0.360898 0.870655 0.544660 0.109512
H36   H     H_    0.767519 0.701697 0.327717 -0.050163
H37   H     H_    0.110830 0.840223 0.485821 0.122852
H38   H     H_    0.520574 0.915610 0.459554 0.072766
H39   H     H_    0.373904 0.003601 0.424287 0.092781
H40   H     H_    0.455986 0.128248 0.458587 0.171954
H41   H     H_    0.707384 0.156707 0.516402 0.113525
H42   H     H_    0.282781 0.334537 0.049050 0.119487
H43   H     H_    0.193833 0.330481 0.947119 0.119438
H44   H     H_    0.795317 0.558315 0.205826 0.131252
H45   H     H_    0.111725 0.613301 0.636751 0.043192
H46   H     H_    0.523205 0.658520 0.952098 0.118251
H47   H     H_    0.044718 0.813882 0.339470 0.123056
H48   H     H_    0.472662 0.517070 0.762556 0.114399
H49   H     H_    0.974684 0.467024 0.803938 0.093167
H50   H     H_    0.339353 0.457792 0.239882 0.145296
H51   H     H_    0.161577 0.450688 0.623936 0.082275
H52   H     H_    0.927644 0.784605 0.271413 0.118271
H53   H     H_    0.698347 0.388703 0.360266 0.040572
H54   H     H_    0.904542 0.421148 0.354065 0.085638
H55   H     H_    0.671396 0.820647 0.223123 0.077211
H56   H     H_    0.909800 0.587237 0.656318 0.015127
H57   H     H_    0.567543 0.850734 0.290704 0.009184
H58   H     H_    0.454945 0.865986 0.163701 0.114921
H59   H     H_    0.346803 0.897114 0.230697 0.112613
H60   H     H_    0.577894 0.978776 0.270468 0.143793
H61   H     H_    0.511153 0.994759 0.198678 0.148955
H62   H     H_    0.693093 0.946739 0.204414 0.130021
H63   H     H_    0.595249 0.765162 0.114528 0.122570
H64   H     H_    0.448989 0.740219 0.055908 0.005128
H65   H     H_    0.807285 0.781872 0.036099 0.146404
H66   H     H_    0.645712 0.769149 0.981492 0.116358
H67   H     H_    0.119955 0.709372 0.728298 0.148372
H68   H     H_    0.502192 0.872061 0.044141 0.140198
H69   H     H_    0.695965 0.896614 0.016566 0.153395
H70   H     H_    0.677898 0.886604 0.093299 0.135974
H71   H     H_    0.101040 0.621675 0.745726 0.074222
H72   H     H_    0.926247 0.675806 0.749264 0.110547
N1    N     N_R   0.269009 0.492445 0.853945 -0.428210
N2    N     N_R   0.511090 0.506628 0.152399 -0.426195
O1    O     O_2   0.108070 0.674980 0.540650 -0.383814
O2    O     O_2   0.689568 0.449919 0.697510 -0.498169
O3    O     O_3   0.848692 0.339362 0.700368 -0.603843
O4    O     O_3   0.861930 0.586170 0.535430 -0.468091
O5    O     O_3   0.451480 0.461630 0.428900 -0.415805
O6    O     O_2   0.599240 0.538720 0.642170 -0.478126
O7    O     O_3   0.419732 0.652350 0.669442 -0.671228
O8    O     O_2   0.536248 0.249077 0.516742 -0.500469
O9    O     O_3   0.500871 0.263073 0.632253 -0.616390
O10   O     O_2   0.372016 0.604495 0.860722 -0.602175
O11   O     O_2   0.169577 0.380980 0.853823 -0.598410
O12   O     O_3   0.378690 0.347705 0.342213 -0.686195
O13   O     O_2   0.428673 0.391066 0.142218 -0.599805
O14   O     O_2   0.588262 0.621546 0.154874 -0.533044
O15   O     O_3   0.366390 0.628250 0.433820 -0.410287
O16   O     O_2   0.293988 0.751183 0.489020 -0.448062
O17   O     O_3   0.934771 0.686542 0.634695 -0.648768
O18   O     O_3   0.300818 0.742332 0.373516 -0.630882
O19   O     O_2   0.211060 0.461230 0.357810 -0.471963
O20   O     O_3   0.958150 0.591500 0.402390 -0.413081
O21   O     O_2   0.082794 0.537981 0.296702 -0.489281
O22   O     O_3   0.459568 0.764422 0.230220 -0.638249
O23   O     O_3   0.000148 0.669309 0.308430 -0.590199
O24   O     O_3   0.648098 0.672697 0.059714 -0.617951
O25   O     O_2   0.702240 0.324970 0.459330 -0.464404
O26   O     O_3   0.948380 0.413820 0.464520 -0.481495
O27   O     O_3   0.443920 0.371740 0.566130 -0.466726
O28   O     O_3   0.873896 0.316414 0.365045 -0.638499
O29   O     O_3   0.358830 0.538360 0.571050 -0.420317
O30   O     O_3   0.852160 0.408490 0.597560 -0.473741
P1    P     P_3+3 0.933470 0.664380 0.557030 1.018767
P2    P     P_3+3 0.383600 0.440030 0.365120 1.036583
P3    P     P_3+3 0.947650 0.585960 0.325125 1.023622
P4    P     P_3+3 0.876840 0.335610 0.442930 1.000575
P5    P     P_3+3 0.854303 0.421004 0.675880 1.026366
P6    P     P_3+3 0.395115 0.718483 0.435395 1.002974
P7    P     P_3+3 0.417667 0.559917 0.645891 0.990319
P8    P     P_3+3 0.420557 0.281568 0.565765 0.967147

loop_
_geom_bond_atom_site_label_1
_geom_bond_atom_site_label_2
_ccdc_geom_bond_type
C34   H9    S    
C70   H63   S    
C32   C58   A    
C53   C54   D    
O4    P1    S    
C41   O24   S    
C36   N1    Am   
C36   O11   D    
C28   O28   S    
C71   C72   S    
C60   H50   S    
C16   H52   S    
C17   C18   A    
C65   F1    S    
C70   O24   S    
O7    P7    S    
C40   H23   S    
O8    P8    D    
C66   O22   S    
O19   P2    D    
C49   N2    Am   
C52   C63   S    
Ba1   P2    S    
C25   C31   A    
Ba1   O19   S    
C24   C25   A    
C11   H30   S    
C10   C26   S    
C50   H49   S    
O5    P2    S    
C72   H68   S    
Ba1   O4    S    
C33   C35   A    
C7    C14   A    
C22   C24   A    
C12   H7    S    
C8    C13   A    
C3    H27   S    
C36   C37   A    
O20   P3    S    
O27   P8    S    
C17   H33   S    
C54   C55   S    
C8    H29   S    
Ba1   Ba2   S    
C2    C11   A    
Ba1   O1    S    
C56   H16   S    
C19   H37   S    
O26   P4    S    
C32   F4    S    
C64   H3    S    
C40   H34   S    
C23   O7    S    
C6    C7    A    
C28   H54   S    
C56   H18   S    
C73   H22   S    
C72   H69   S    
C68   C69   S    
C4    H24   S    
C63   H67   S    
C69   H61   S    
O2    P5    D    
C64   C65   S    
C68   H59   S    
C9    P1    S    
C19   C20   A    
C31   H41   S    
C39   C41   A    
C66   H57   S    
C56   H17   S    
Ba2   O26   S    
O15   P6    S    
C30   H40   S    
C6    H28   S    
O3    P5    S    
Ba1   O29   S    
C38   C43   A    
C4    C16   S    
C52   H45   S    
C44   C46   A    
Ba1   O20   S    
C65   H5    S    
C64   O12   S    
C23   F2    S    
C35   N1    Am   
Ba1   O5    S    
C61   N2    S    
C3    C10   A    
C12   O18   S    
O1    P1    D    
C37   C38   A    
C3    C5    A    
O17   P1    S    
Ba2   O5    S    
O28   P4    S    
O25   P4    D    
O18   P6    S    
C55   N1    S    
C23   H8    S    
C71   H65   S    
Ba2   O27   S    
C53   P7    S    
C63   H71   S    
C41   C42   A    
C67   H20   S    
C57   C58   A    
C60   C61   A    
C16   H47   S    
C64   H2    S    
C9    C14   A    
C29   C30   A    
C15   C21   A    
C62   H51   S    
C43   C47   A    
Ba2   O4    S    
C28   H53   S    
C52   H56   S    
C53   C62   D    
C1    H13   S    
Ba2   O30   S    
C21   C26   A    
C4    H36   S    
O9    P8    S    
C1    C12   S    
C35   O10   D    
C67   H19   S    
C42   C49   A    
Ba2   O6    S    
C46   C47   A    
C48   O13   D    
C73   H25   S    
C58   P3    S    
C37   C44   A    
C4    O23   S    
C16   H14   S    
C20   C22   A    
C44   H43   S    
Ba2   O25   S    
C69   H62   S    
C7    P6    S    
C15   H32   S    
C25   C26   A    
C50   C51   S    
C34   H11   S    
C45   O3    S    
C34   H10   S    
C57   H44   S    
C70   H64   S    
C13   C22   S    
C65   H6    S    
C74   H26   S    
O12   P2    S    
C39   H46   S    
C66   H55   S    
C28   C40   S    
C42   C43   A    
C67   O9    S    
O6    P7    D    
C70   C71   S    
O29   P7    S    
C18   H35   S    
C68   H58   S    
C69   H60   S    
C50   C55   D    
Ba1   P1    S    
C6    C13   A    
C27   H38   S    
O16   P6    D    
C57   C61   A    
Ba1   O26   S    
O23   P3    S    
C71   H66   S    
C49   O14   D    
C30   C31   A    
C2    P4    S    
C63   H72   S    
C10   C74   A    
C33   C38   A    
C27   C29   A    
C45   F3    S    
C45   C56   S    
C46   H42   S    
C48   N2    Am   
C52   O17   S    
Ba1   O15   S    
C59   P2    S    
C51   C62   S    
C67   C73   S    
C40   H12   S    
Ba2   O29   S    
C54   H48   S    
C59   C60   A    
C33   C39   A    
Ba2   P4    S    
C2    C74   A    
C8    C9    A    
C23   C34   S    
O21   P3    D    
C15   C17   A    
C1    O22   S    
C5    C11   A    
C18   C19   A    
C24   C27   A    
C66   C68   S    
C47   C48   A    
C32   C59   A    
C1    H4    S    
C73   H21   S    
C45   H15   S    
C20   C21   A    
C72   H70   S    
C12   H1    S    
C29   H39   S    
C51   P5    S    
O30   P5    S    
C5    P8    S    
C14   H31   S    
