data_mof_unit_17212.cif
_audit_creation_date              2012-12-10T17:55:54-0500
_audit_creation_method            fapswitch 2.2
_symmetry_space_group_name_H-M    P1
_symmetry_Int_Tables_number       1
_space_group_crystal_system       triclinic
_cell_length_a                    11.113243
_cell_length_b                    10.824653
_cell_length_c                    9.571818
_cell_angle_alpha                 89.157352
_cell_angle_beta                  101.12163
_cell_angle_gamma                 92.16802
_cell_volume                      1128.99545966

loop_
_atom_site_label
_atom_site_type_symbol
_atom_type_description
_atom_site_fract_x
_atom_site_fract_y
_atom_site_fract_z
_atom_type_partial_charge
C1    C     C_R   0.499630 0.262225 0.500472 0.777177
C2    C     C_2   0.866052 0.530345 0.582488 -0.409309
C3    C     C_2   0.068771 0.515476 0.524102 0.348202
C4    C     C_2   0.938246 0.474928 0.507560 0.369438
C5    C     C_R   0.487375 0.065199 0.371345 -0.171595
C6    C     C_R   0.514064 0.934852 0.628792 -0.151079
C7    C     C_R   0.488238 0.937451 0.370787 -0.151962
C8    C     C_R   0.513529 0.062613 0.629357 -0.155110
C9    C     C_R   0.501203 0.871747 0.499453 -0.036107
C10   C     C_R   0.499808 0.128288 0.500654 -0.049818
C11   C     C_3   0.929419 0.266741 0.459727 0.040957
C12   C     C_R   0.500608 0.737788 0.499565 0.786884
C13   C     C_3   0.821753 0.189314 0.494783 -0.732630
C14   C     C_3   0.135627 0.532426 0.767283 0.074049
C15   C     C_3   0.206218 0.617172 0.882443 -0.718196
C16   C     C_2   0.368964 0.304248 0.833833 0.308711
C17   C     C_2   0.641566 0.688151 0.169269 0.352661
C18   C     C_R   0.263457 0.501476 0.444179 0.883309
C19   C     C_R   0.735573 0.504959 0.555976 0.894272
C20   C     C_R   0.438544 0.409393 0.063922 -0.015463
C21   C     C_R   0.562564 0.589903 0.936406 -0.020564
C22   C     C_R   0.438707 0.407517 0.915755 0.102503
C23   C     C_R   0.564642 0.590220 0.085207 0.102057
C24   C     C_2   0.129906 0.489803 0.419804 -0.403276
Cu1   Cu    Cu3+1 0.500000 0.500020 0.640660 0.943949
Cu2   Cu    Cu3+1 0.500000 0.499980 0.359340 0.950779
H1    H     H_    0.388025 0.338611 0.112060 0.167500
H2    H     H_    0.964033 0.220171 0.373468 0.173407
H3    H     H_    0.746840 0.182591 0.399639 0.260508
H4    H     H_    0.851534 0.094810 0.527969 0.208928
H5    H     H_    0.786761 0.232330 0.582973 0.225540
H6    H     H_    0.185506 0.446500 0.766364 0.126273
H7    H     H_    0.046519 0.506610 0.797134 0.127140
H8    H     H_    0.153186 0.700896 0.890150 0.245285
H9    H     H_    0.221342 0.568323 0.986857 0.196614
H10   H     H_    0.296303 0.646027 0.856510 0.259623
H11   H     H_    0.327996 0.314628 0.722913 0.120435
H12   H     H_    0.613508 0.660313 0.888273 0.171636
H13   H     H_    0.679959 0.675658 0.280325 0.135619
H14   H     H_    0.900643 0.602994 0.658082 0.139907
H15   H     H_    0.083138 0.446240 0.321705 0.147807
H16   H     H_    0.476714 0.114270 0.270501 0.176164
H17   H     H_    0.524887 0.885791 0.729658 0.171216
H18   H     H_    0.477909 0.890424 0.269843 0.181544
H19   H     H_    0.524490 0.109646 0.730320 0.187848
H20   H     H_    0.005703 0.268271 0.554840 0.110201
N1    N     N_R   0.500030 0.500030 0.852080 -0.226945
N2    N     N_R   0.499970 0.499970 0.147920 -0.224905
O1    O     O_R   0.499990 0.319660 0.618740 -0.609587
O2    O     O_3   0.122850 0.594317 0.634239 -0.559790
O3    O     O_2   0.352962 0.205182 0.891506 -0.583339
O4    O     O_2   0.665651 0.785733 0.113233 -0.585715
O5    O     O_R   0.500010 0.680340 0.381260 -0.616455
O6    O     O_R   0.499990 0.319630 0.381170 -0.584697
O7    O     O_R   0.500010 0.680370 0.618830 -0.588228
O8    O     O_R   0.320690 0.500020 0.575130 -0.567292
O9    O     O_R   0.679310 0.499980 0.424870 -0.554392
O10   O     O_R   0.320680 0.499990 0.337560 -0.589951
O11   O     O_R   0.679320 0.500010 0.662440 -0.589639
O12   O     O_3   0.888937 0.384631 0.409053 -0.572101

loop_
_geom_bond_atom_site_label_1
_geom_bond_atom_site_label_2
_ccdc_geom_bond_type
C2    C4    D    
C1    O6    A    
C16   O3    D    
C20   H1    S    
Cu2   N2    S    
C11   C13   S    
Cu1   N1    S    
C15   H8    S    
C12   O5    A    
Cu1   O8    S    
C18   O8    A    
C16   H11   S    
C5    H16   S    
C4    O12   S    
C14   H7    S    
C6    C8    A    
C22   N1    A    
C2    C19   S    
C5    C10   A    
C14   O2    S    
C7    H18   S    
C19   O9    A    
C24   H15   S    
Cu2   O10   S    
C20   N2    A    
C3    C24   D    
C17   C23   S    
C11   H2    S    
C6    C9    A    
C18   C24   S    
Cu2   O6    S    
C17   O4    D    
C15   H9    S    
C9    C12   S    
C3    O2    S    
C20   C22   A    
C6    H17   S    
C21   C23   A    
Cu2   O9    S    
Cu1   O1    S    
C12   O7    A    
C1    C10   S    
C11   O12   S    
Cu2   O5    S    
C2    H14   S    
C15   H10   S    
C13   H4    S    
C3    C4    S    
C5    C7    A    
C17   H13   S    
C13   H3    S    
C7    C9    A    
C14   C15   S    
C11   H20   S    
C16   C22   S    
C23   N2    A    
Cu1   O11   S    
C19   O11   A    
Cu1   Cu2   S    
C8    H19   S    
C1    O1    A    
C13   H5    S    
C8    C10   A    
C21   H12   S    
Cu1   O7    S    
C14   H6    S    
C18   O10   A    
C21   N1    A    
