data_mof_unit_64266.cif
_audit_creation_date              2012-12-10T19:46:49-0500
_audit_creation_method            fapswitch 2.2
_symmetry_space_group_name_H-M    P1
_symmetry_Int_Tables_number       1
_space_group_crystal_system       triclinic
_cell_length_a                    18.528622
_cell_length_b                    18.528622
_cell_length_c                    32.771669
_cell_angle_alpha                 90.005962
_cell_angle_beta                  90.005956
_cell_angle_gamma                 90.094875
_cell_volume                      11250.8206722

loop_
_atom_site_label
_atom_site_type_symbol
_atom_type_description
_atom_site_fract_x
_atom_site_fract_y
_atom_site_fract_z
_atom_type_partial_charge
C1    C     C_R   0.500001 0.999980 0.896057 0.482392
C2    C     C_1   0.500029 0.999940 0.768824 0.004098
C3    C     C_3   0.267512 0.327325 0.430205 0.245239
C4    C     C_3   0.672646 0.732459 0.430206 0.245233
C5    C     C_3   0.751935 0.307057 0.426834 0.253846
C6    C     C_3   0.327325 0.267512 0.430205 0.245239
C7    C     C_3   0.248035 0.692919 0.426834 0.253857
C8    C     C_1   0.500008 0.000002 0.149159 0.000429
C9    C     C_1   0.000002 0.500008 0.149159 0.000429
C10   C     C_1   0.999981 0.500013 0.649158 0.000385
C11   C     C_1   0.500013 0.999982 0.649158 0.000385
C12   C     C_1   0.500010 0.999998 0.186779 -0.030859
C13   C     C_1   0.500009 0.999990 0.268827 0.006377
C14   C     C_1   0.999998 0.500010 0.186779 -0.030859
C15   C     C_1   0.999966 0.500021 0.686777 -0.031829
C16   C     C_1   0.500021 0.999966 0.686777 -0.031829
C17   C     C_1   0.999990 0.500009 0.268827 0.006377
C18   C     C_1   0.999940 0.500022 0.813252 -0.031675
C19   C     C_1   0.500022 0.999940 0.813252 -0.031675
C20   C     C_1   0.500006 0.999989 0.313254 -0.028921
C21   C     C_1   0.999989 0.500006 0.313254 -0.028920
C22   C     C_1   0.999953 0.500010 0.850870 -0.005325
C23   C     C_1   0.500010 0.999953 0.850870 -0.005325
C24   C     C_1   0.500004 0.999990 0.350872 -0.003951
C25   C     C_R   0.999980 0.500001 0.896057 0.482391
C26   C     C_1   0.999990 0.500004 0.350872 -0.003951
C27   C     C_R   0.500003 0.000002 0.103966 0.491828
C28   C     C_R   0.000002 0.500003 0.103966 0.491828
C29   C     C_R   0.999997 0.500004 0.603966 0.492389
C30   C     C_R   0.500004 0.999997 0.603966 0.492389
C31   C     C_R   0.640718 0.859943 0.000445 0.539439
C32   C     C_R   0.140211 0.640821 0.000313 0.533805
C33   C     C_R   0.359843 0.140918 0.999732 0.561543
C34   C     C_R   0.859799 0.359171 0.000316 0.535382
C35   C     C_R   0.640821 0.140211 0.000313 0.533805
C36   C     C_R   0.999997 0.500001 0.396057 0.479039
C37   C     C_R   0.140918 0.359843 0.999732 0.561544
C38   C     C_R   0.359171 0.859799 0.000316 0.535382
C39   C     C_R   0.859943 0.640718 0.000445 0.539439
C40   C     C_R   0.140717 0.359941 0.500443 0.539694
C41   C     C_R   0.640213 0.140819 0.500310 0.531775
C42   C     C_R   0.859281 0.640061 0.500442 0.539788
C43   C     C_R   0.359791 0.859177 0.500310 0.531844
C44   C     C_R   0.140819 0.640213 0.500310 0.531775
C45   C     C_R   0.640061 0.859281 0.500442 0.539788
C46   C     C_R   0.859177 0.359792 0.500310 0.531843
C47   C     C_R   0.500001 0.999997 0.396057 0.479039
C48   C     C_R   0.359941 0.140717 0.500443 0.539694
C49   C     C_R   0.247778 0.804893 0.972692 0.000782
C50   C     C_R   0.186716 0.239384 0.980427 -0.043257
C51   C     C_R   0.752227 0.195075 0.972702 -0.000279
C52   C     C_R   0.800835 0.749115 0.972293 -0.043616
C53   C     C_R   0.239384 0.186716 0.980427 -0.043259
C54   C     C_R   0.195075 0.752226 0.972701 -0.000279
C55   C     C_R   0.749115 0.800835 0.972293 -0.043616
C56   C     C_R   0.804893 0.247778 0.972692 0.000782
C57   C     C_R   0.747691 0.304977 0.472737 -0.001931
C58   C     C_1   0.500011 0.999993 0.231208 0.004729
C59   C     C_R   0.699225 0.750945 0.472254 -0.043667
C60   C     C_R   0.252294 0.695015 0.472737 -0.001915
C61   C     C_R   0.300764 0.249043 0.472253 -0.043756
C62   C     C_R   0.750945 0.699225 0.472254 -0.043667
C63   C     C_R   0.695015 0.252295 0.472737 -0.001915
C64   C     C_R   0.249043 0.300764 0.472253 -0.043756
C65   C     C_R   0.304977 0.747691 0.472737 -0.001930
C66   C     C_R   0.300237 0.807706 0.003231 0.013527
C67   C     C_R   0.199814 0.307719 0.996731 0.033321
C68   C     C_R   0.699759 0.192302 0.003233 0.012032
C69   C     C_1   0.999993 0.500011 0.231208 0.004729
C70   C     C_R   0.806467 0.697871 0.002939 0.029915
C71   C     C_R   0.307719 0.199814 0.996731 0.033320
C72   C     C_R   0.192302 0.699759 0.003233 0.012032
C73   C     C_R   0.697871 0.806467 0.002939 0.029915
C74   C     C_R   0.807706 0.300237 0.003231 0.013527
C75   C     C_R   0.800238 0.307706 0.503233 0.012228
C76   C     C_R   0.693517 0.802111 0.502941 0.029736
C77   C     C_R   0.199756 0.692303 0.503232 0.012207
C78   C     C_R   0.306484 0.197889 0.502942 0.029694
C79   C     C_R   0.802111 0.693517 0.502941 0.029736
C80   C     C_1   0.999949 0.500028 0.731206 0.003035
C81   C     C_R   0.692303 0.199756 0.503232 0.012206
C82   C     C_R   0.197889 0.306484 0.502942 0.029694
C83   C     C_R   0.307706 0.800238 0.503233 0.012229
C84   C     C_R   0.292143 0.762085 0.037635 0.069792
C85   C     C_R   0.271503 0.325688 0.007954 0.068452
C86   C     C_R   0.707854 0.237954 0.037630 0.069729
C87   C     C_R   0.758228 0.703859 0.036515 0.070796
C88   C     C_R   0.325688 0.271503 0.007954 0.068452
C89   C     C_R   0.237953 0.707854 0.037630 0.069729
C90   C     C_R   0.703859 0.758228 0.036515 0.070796
C91   C     C_1   0.500028 0.999949 0.731206 0.003035
C92   C     C_R   0.762084 0.292143 0.037635 0.069791
C93   C     C_R   0.792205 0.262020 0.537615 0.069508
C94   C     C_R   0.741649 0.796021 0.536564 0.070784
C95   C     C_R   0.207806 0.737999 0.537615 0.069436
C96   C     C_R   0.258366 0.203994 0.536565 0.070934
C97   C     C_R   0.796021 0.741649 0.536564 0.070784
C98   C     C_R   0.737999 0.207805 0.537615 0.069436
C99   C     C_R   0.203994 0.258366 0.536565 0.070934
C100  C     C_R   0.262020 0.792204 0.537616 0.069508
C101  C     C_3   0.193155 0.747762 0.926803 0.252536
C102  C     C_1   0.999940 0.500029 0.768824 0.004098
C103  C     C_3   0.185768 0.126488 0.986987 0.243650
C104  C     C_3   0.806705 0.252239 0.926792 0.255050
C105  C     C_3   0.767833 0.827645 0.930330 0.244380
C106  C     C_3   0.126488 0.185768 0.986986 0.243650
C107  C     C_3   0.252241 0.806703 0.926792 0.255049
C108  C     C_3   0.827645 0.767833 0.930330 0.244380
C109  C     C_3   0.747764 0.193153 0.926803 0.252537
C110  C     C_3   0.692920 0.248035 0.426834 0.253857
C111  C     C_3   0.732459 0.672646 0.430206 0.245233
C112  C     C_3   0.307057 0.751935 0.426834 0.253846
H1    H     H_    0.367290 0.721972 0.076602 0.229934
H2    H     H_    0.418223 0.328731 0.000271 0.222309
H3    H     H_    0.278164 0.632667 0.076534 0.231232
H4    H     H_    0.218917 0.691597 0.097952 0.227172
H5    H     H_    0.685639 0.774641 0.096918 0.227046
H6    H     H_    0.627234 0.716391 0.074020 0.230177
H7    H     H_    0.721970 0.367292 0.076601 0.229934
H8    H     H_    0.781238 0.308313 0.097955 0.227991
H9    H     H_    0.867425 0.221817 0.576508 0.230226
H10   H     H_    0.808499 0.281052 0.597939 0.227178
H11   H     H_    0.725054 0.814067 0.596967 0.226902
H12   H     H_    0.308311 0.781240 0.097955 0.227991
H13   H     H_    0.783372 0.872537 0.574193 0.230452
H14   H     H_    0.132603 0.778227 0.576506 0.230342
H15   H     H_    0.191525 0.718989 0.597937 0.227195
H16   H     H_    0.274988 0.185975 0.596968 0.225883
H17   H     H_    0.216660 0.127495 0.574196 0.230202
H18   H     H_    0.814067 0.725054 0.596967 0.226902
H19   H     H_    0.872537 0.783372 0.574193 0.230451
H20   H     H_    0.778228 0.132602 0.576505 0.230341
H21   H     H_    0.718991 0.191523 0.597937 0.227194
H22   H     H_    0.185975 0.274988 0.596968 0.225883
H23   H     H_    0.308721 0.397877 0.049600 0.232983
H24   H     H_    0.127495 0.216660 0.574196 0.230202
H25   H     H_    0.221818 0.867424 0.576509 0.230227
H26   H     H_    0.281053 0.808497 0.597939 0.227179
H27   H     H_    0.172322 0.641949 0.911142 0.232593
H28   H     H_    0.256303 0.655064 0.928243 0.213160
H29   H     H_    0.222727 0.037936 0.955521 0.270852
H30   H     H_    0.192353 0.103397 0.924991 0.216328
H31   H     H_    0.827195 0.358148 0.911209 0.230868
H32   H     H_    0.743245 0.344718 0.928258 0.211890
H33   H     H_    0.673162 0.858841 0.902884 0.261582
H34   H     H_    0.328731 0.418222 0.000271 0.222309
H35   H     H_    0.680897 0.769395 0.907333 0.207617
H36   H     H_    0.037938 0.222729 0.955519 0.270852
H37   H     H_    0.103399 0.192351 0.924990 0.216329
H38   H     H_    0.358150 0.827193 0.911210 0.230867
H39   H     H_    0.344720 0.743243 0.928259 0.211890
H40   H     H_    0.858841 0.673162 0.902884 0.261581
H41   H     H_    0.769395 0.680897 0.907333 0.207617
H42   H     H_    0.641952 0.172319 0.911142 0.232594
H43   H     H_    0.655065 0.256300 0.928242 0.213160
H44   H     H_    0.672177 0.142253 0.411075 0.231724
H45   H     H_    0.632665 0.278166 0.076533 0.231232
H46   H     H_    0.756220 0.155438 0.428061 0.212245
H47   H     H_    0.827288 0.641606 0.402889 0.261571
H48   H     H_    0.819514 0.731027 0.407479 0.207737
H49   H     H_    0.327804 0.857709 0.411075 0.231731
H50   H     H_    0.243767 0.844539 0.428062 0.212248
H51   H     H_    0.172671 0.358353 0.402889 0.261599
H52   H     H_    0.180448 0.268934 0.407480 0.207765
H53   H     H_    0.641606 0.827288 0.402889 0.261572
H54   H     H_    0.731027 0.819514 0.407479 0.207737
H55   H     H_    0.857709 0.327804 0.411075 0.231731
H56   H     H_    0.691595 0.218918 0.097952 0.227171
H57   H     H_    0.844540 0.243767 0.428063 0.212247
H58   H     H_    0.358353 0.172671 0.402889 0.261599
H59   H     H_    0.268934 0.180448 0.407480 0.207765
H60   H     H_    0.142253 0.672177 0.411075 0.231724
H61   H     H_    0.155438 0.756220 0.428061 0.212246
H62   H     H_    0.083981 0.734848 0.917458 0.258210
H63   H     H_    0.128305 0.772256 0.878135 0.245757
H64   H     H_    0.208223 0.123517 0.049469 0.208935
H65   H     H_    0.149378 0.059684 0.032859 0.246213
H66   H     H_    0.915722 0.265639 0.917226 0.242995
H67   H     H_    0.774641 0.685639 0.096918 0.227046
H68   H     H_    0.871394 0.227651 0.878088 0.246040
H69   H     H_    0.827207 0.912718 0.955214 0.223124
H70   H     H_    0.822136 0.912218 0.903536 0.243382
H71   H     H_    0.123515 0.208220 0.049469 0.208936
H72   H     H_    0.059680 0.149380 0.032857 0.246214
H73   H     H_    0.265641 0.915720 0.917225 0.242995
H74   H     H_    0.227655 0.871390 0.878086 0.246040
H75   H     H_    0.912718 0.827207 0.955214 0.223124
H76   H     H_    0.912218 0.822136 0.903536 0.243382
H77   H     H_    0.734850 0.083978 0.917460 0.258210
H78   H     H_    0.716390 0.627234 0.074020 0.230177
H79   H     H_    0.772260 0.128301 0.878136 0.245757
H80   H     H_    0.583737 0.234998 0.417570 0.258470
H81   H     H_    0.627883 0.272713 0.378277 0.245841
H82   H     H_    0.672949 0.587437 0.454819 0.220638
H83   H     H_    0.678305 0.588221 0.403153 0.241404
H84   H     H_    0.416238 0.764958 0.417574 0.258443
H85   H     H_    0.372076 0.727238 0.378278 0.245813
H86   H     H_    0.327032 0.412544 0.454816 0.220584
H87   H     H_    0.321655 0.411738 0.403150 0.241500
H88   H     H_    0.587437 0.672949 0.454820 0.220638
H89   H     H_    0.397878 0.308721 0.049600 0.232983
H90   H     H_    0.588221 0.678305 0.403153 0.241405
H91   H     H_    0.764958 0.416238 0.417573 0.258443
H92   H     H_    0.727238 0.372076 0.378277 0.245813
H93   H     H_    0.412544 0.327032 0.454816 0.220584
H94   H     H_    0.411738 0.321655 0.403150 0.241500
H95   H     H_    0.234998 0.583736 0.417570 0.258469
H96   H     H_    0.272714 0.627883 0.378277 0.245842
N1    N     N_3   0.339338 0.770248 0.072073 -0.587227
N2    N     N_3   0.734935 0.844268 0.570624 -0.588694
N3    N     N_3   0.160548 0.729932 0.572027 -0.587760
N4    N     N_3   0.265095 0.155762 0.570626 -0.589201
N5    N     N_3   0.844268 0.734935 0.570624 -0.588694
N6    N     N_3   0.729933 0.160547 0.572027 -0.587759
N7    N     N_3   0.155762 0.265095 0.570626 -0.589201
N8    N     N_3   0.270107 0.839469 0.572030 -0.587851
N9    N     N_3   0.215952 0.677724 0.909992 -0.600437
N10   N     N_3   0.181756 0.076262 0.952345 -0.547033
N11   N     N_3   0.783691 0.322224 0.910010 -0.601015
N12   N     N_3   0.288789 0.398283 0.019772 -0.596034
N13   N     N_3   0.709904 0.816299 0.900378 -0.564712
N14   N     N_3   0.076263 0.181756 0.952344 -0.547033
N15   N     N_3   0.322226 0.783689 0.910011 -0.601014
N16   N     N_3   0.816299 0.709904 0.900378 -0.564712
N17   N     N_3   0.677727 0.215949 0.909991 -0.600437
N18   N     N_3   0.715745 0.178102 0.409899 -0.599883
N19   N     N_3   0.790554 0.684155 0.400385 -0.564803
N20   N     N_3   0.284233 0.821865 0.409900 -0.599872
N21   N     N_3   0.209405 0.315803 0.400385 -0.564493
N22   N     N_3   0.684155 0.790553 0.400385 -0.564803
N23   N     N_3   0.660611 0.229872 0.072047 -0.587276
N24   N     N_3   0.821865 0.284232 0.409900 -0.599871
N25   N     N_3   0.315803 0.209405 0.400385 -0.564492
N26   N     N_3   0.178102 0.715744 0.409899 -0.599884
N27   N     N_3   0.124090 0.772261 0.909956 -0.561259
N28   N     N_3   0.196625 0.087805 0.025657 -0.606570
N29   N     N_3   0.875790 0.227929 0.909901 -0.563879
N30   N     N_3   0.793196 0.902767 0.930383 -0.579374
N31   N     N_3   0.087804 0.196625 0.025656 -0.606570
N32   N     N_3   0.227931 0.875788 0.909900 -0.563879
N33   N     N_3   0.902767 0.793196 0.930383 -0.579373
N34   N     N_3   0.764837 0.655515 0.070533 -0.588675
N35   N     N_3   0.772264 0.124087 0.909958 -0.561259
N36   N     N_3   0.623762 0.272521 0.410102 -0.566217
N37   N     N_3   0.707097 0.597524 0.430071 -0.580859
N38   N     N_3   0.376206 0.727437 0.410103 -0.566244
N39   N     N_3   0.292874 0.402447 0.430068 -0.580830
N40   N     N_3   0.597524 0.707097 0.430071 -0.580859
N41   N     N_3   0.727437 0.376206 0.410103 -0.566243
N42   N     N_3   0.402447 0.292874 0.430068 -0.580830
N43   N     N_3   0.272521 0.623762 0.410102 -0.566218
N44   N     N_3   0.398283 0.288789 0.019772 -0.596034
N45   N     N_3   0.229870 0.660612 0.072047 -0.587276
N46   N     N_3   0.655515 0.764837 0.070533 -0.588675
N47   N     N_3   0.770246 0.339339 0.072073 -0.587227
N48   N     N_3   0.839470 0.270106 0.572029 -0.587850
O1    O     O_3   0.500000 0.000000 0.000010 -0.433764
O2    O     O_R   0.500000 0.939250 0.416010 -0.541955
O3    O     O_R   0.060750 0.500000 0.416010 -0.541884
O4    O     O_R   0.500000 0.060750 0.416010 -0.541884
O5    O     O_R   0.500000 0.939250 0.084010 -0.518802
O6    O     O_R   0.060750 0.500000 0.084010 -0.525676
O7    O     O_R   0.500000 0.060750 0.084010 -0.525676
O8    O     O_R   0.939250 0.500000 0.084010 -0.518802
O9    O     O_R   0.000000 0.439250 0.584010 -0.520019
O10   O     O_R   0.560750 1.000000 0.584010 -0.519635
O11   O     O_R   1.000000 0.560750 0.584010 -0.519635
O12   O     O_3   1.000000 0.500000 0.000010 -0.433764
O13   O     O_R   0.439250 1.000000 0.584010 -0.520019
O14   O     O_R   0.646150 0.914530 0.977990 -0.533589
O15   O     O_R   0.085470 0.646150 0.977990 -0.558171
O16   O     O_R   0.353850 0.085470 0.977990 -0.545764
O17   O     O_R   0.914530 0.353850 0.977990 -0.563631
O18   O     O_R   0.646150 0.085470 0.977990 -0.558172
O19   O     O_R   0.085470 0.353850 0.977990 -0.545764
O20   O     O_R   0.353850 0.914530 0.977990 -0.563631
O21   O     O_R   0.914530 0.646150 0.977990 -0.533589
O22   O     O_R   0.146150 0.414530 0.477990 -0.533270
O23   O     O_3   1.000000 0.500000 0.500010 -0.435011
O24   O     O_R   0.585470 0.146150 0.477990 -0.557923
O25   O     O_R   0.853850 0.585470 0.477990 -0.533262
O26   O     O_R   0.414530 0.853850 0.477990 -0.557906
O27   O     O_R   0.146150 0.585470 0.477990 -0.557923
O28   O     O_R   0.585470 0.853850 0.477990 -0.533262
O29   O     O_R   0.853850 0.414530 0.477990 -0.557906
O30   O     O_R   0.414530 0.146150 0.477990 -0.533270
O31   O     O_R   0.414550 0.146120 0.022030 -0.502543
O32   O     O_R   0.853880 0.414550 0.022030 -0.499542
O33   O     O_R   0.585450 0.853880 0.022030 -0.505205
O34   O     O_3   0.500000 1.000000 0.500010 -0.435011
O35   O     O_R   0.146120 0.585450 0.022030 -0.494648
O36   O     O_R   0.414550 0.853880 0.022030 -0.499542
O37   O     O_R   0.853880 0.585450 0.022030 -0.505205
O38   O     O_R   0.585450 0.146120 0.022030 -0.494648
O39   O     O_R   0.146120 0.414550 0.022030 -0.502543
O40   O     O_R   0.914550 0.646120 0.522030 -0.504801
O41   O     O_R   0.353880 0.914550 0.522030 -0.500148
O42   O     O_R   0.085450 0.353880 0.522030 -0.504884
O43   O     O_R   0.646120 0.085450 0.522030 -0.500172
O44   O     O_R   0.914550 0.353880 0.522030 -0.500147
O45   O     O_R   0.439250 1.000000 0.916010 -0.543360
O46   O     O_R   0.353880 0.085450 0.522030 -0.504884
O47   O     O_R   0.085450 0.646120 0.522030 -0.500172
O48   O     O_R   0.646120 0.914550 0.522030 -0.504801
O49   O     O_R   1.000000 0.439250 0.916010 -0.543360
O50   O     O_R   0.560750 1.000000 0.916010 -0.541444
O51   O     O_R   1.000000 0.560750 0.916010 -0.541444
O52   O     O_R   0.939250 0.500000 0.416010 -0.541955
Zn1   Zn    Zn3+2 0.500000 0.913220 0.031480 0.972651
Zn2   Zn    Zn3+2 1.000000 0.586740 0.968550 0.932638
Zn3   Zn    Zn3+2 0.413260 0.000000 0.968550 0.922361
Zn4   Zn    Zn3+2 1.000000 0.413260 0.968550 0.922361
Zn5   Zn    Zn3+2 0.086740 0.500000 0.468550 0.929850
Zn6   Zn    Zn3+2 0.500000 0.086740 0.468550 0.929850
Zn7   Zn    Zn3+2 0.913260 0.500000 0.468550 0.929921
Zn8   Zn    Zn3+2 0.500000 0.913260 0.468550 0.929922
Zn9   Zn    Zn3+2 0.086780 0.500000 0.031480 0.977149
Zn10  Zn    Zn3+2 0.500000 0.086780 0.031480 0.977149
Zn11  Zn    Zn3+2 0.913220 0.500000 0.031480 0.972652
Zn12  Zn    Zn3+2 1.000000 0.413220 0.531480 0.971272
Zn13  Zn    Zn3+2 0.586780 1.000000 0.531480 0.971622
Zn14  Zn    Zn3+2 1.000000 0.586780 0.531480 0.971622
Zn15  Zn    Zn3+2 0.413220 1.000000 0.531480 0.971272
Zn16  Zn    Zn3+2 0.586740 0.000000 0.968550 0.932637

loop_
_geom_bond_atom_site_label_1
_geom_bond_atom_site_label_2
_ccdc_geom_bond_type
H69   N30   S    
C101  C107  S    
C21   C26   T    
C103  N28   S    
C112  N20   S    
H38   N15   S    
C7    C60   S    
H88   N40   S    
O22   Zn5   S    
C55   C105  S    
C86   N23   S    
O5    Zn1   S    
C44   C77   S    
C46   O44   A    
C108  N16   S    
O2    Zn8   S    
H73   N32   S    
H33   N13   S    
H12   N1    S    
C96   C99   A    
C36   O3    A    
C74   C92   A    
C76   C94   A    
O29   Zn7   S    
C78   C96   A    
H46   N18   S    
O11   Zn14  S    
C88   N44   S    
H34   N12   S    
C43   O41   A    
C51   C109  S    
H76   N33   S    
C30   O13   A    
O20   Zn3   S    
C34   O17   A    
C25   O49   A    
C67   C85   A    
C50   C53   A    
C6    N42   S    
H42   N17   S    
O12   Zn11  S    
C84   N1    S    
C94   C97   A    
C44   O27   A    
C17   C21   S    
H22   N7    S    
C19   C23   T    
H29   N10   S    
H3    N45   S    
H86   N39   S    
O43   Zn13  S    
H89   N44   S    
O12   Zn4   S    
C42   O40   A    
C60   C65   A    
H63   N27   S    
C106  N31   S    
C14   C69   S    
C53   C71   A    
H61   N26   S    
C75   C93   A    
O13   Zn15  S    
C100  N8    S    
C13   C20   S    
C2    C19   S    
C79   C97   A    
O32   Zn11  S    
O34   Zn15  S    
H50   N20   S    
C44   O47   A    
O49   Zn4   S    
C107  N32   S    
H48   N19   S    
O46   Zn15  S    
C41   O24   A    
O30   Zn6   S    
C77   C95   A    
H94   N42   S    
C33   C71   S    
C71   C88   A    
C92   N47   S    
C16   C91   S    
O24   Zn6   S    
C7    N43   S    
C32   O15   A    
O50   Zn16  S    
H66   N29   S    
C9    C28   S    
C25   O51   A    
C17   C69   T    
H19   N5    S    
C43   C83   S    
C54   C101  S    
C3    C6    S    
C93   N48   S    
O41   Zn15  S    
C3    C64   S    
H83   N37   S    
C6    C61   S    
C73   C90   A    
H14   N3    S    
C45   O48   A    
C5    C110  S    
C47   O2    A    
C7    C112  S    
C18   C102  S    
H30   N10   S    
H93   N42   S    
C62   C111  S    
C33   O31   A    
C22   C25   S    
C34   O32   A    
C108  N33   S    
H77   N35   S    
O48   Zn13  S    
C50   C67   A    
C90   N46   S    
C7    N26   S    
C42   C79   S    
C37   O39   A    
O31   Zn10  S    
C70   C87   A    
O34   Zn13  S    
C46   C75   S    
O37   Zn11  S    
C57   C63   A    
O33   Zn1   S    
O39   Zn9   S    
H58   N25   S    
C49   C66   A    
O15   Zn2   S    
C40   C82   S    
H41   N16   S    
C110  N18   S    
C80   C102  T    
C104  N11   S    
O52   Zn7   S    
C8    C12   T    
C31   O14   A    
H92   N41   S    
O23   Zn12  S    
C4    C111  S    
C94   N2    S    
H37   N14   S    
C42   O25   A    
H45   N23   S    
C50   C106  S    
H59   N25   S    
O10   Zn13  S    
H43   N17   S    
C18   C22   T    
C31   O33   A    
H90   N40   S    
O51   Zn2   S    
C95   N3    S    
H24   N7    S    
H8    N47   S    
H1    N1    S    
C105  N13   S    
H23   N12   S    
C37   C67   S    
H39   N15   S    
C98   N6    S    
C2    C91   T    
C103  N10   S    
H31   N11   S    
C55   C73   A    
C32   O35   A    
H28   N9    S    
O4    Zn6   S    
H95   N43   S    
C59   C76   A    
O38   Zn10  S    
C96   N4    S    
O9    Zn12  S    
C29   O9    A    
C82   C99   A    
H62   N27   S    
C3    N21   S    
H55   N24   S    
C32   C72   S    
O44   Zn12  S    
O23   Zn7   S    
H26   N8    S    
C45   C76   S    
H21   N6    S    
O6    Zn9   S    
C85   N12   S    
H10   N48   S    
C85   C88   A    
C81   C98   A    
H11   N2    S    
O1    Zn16  S    
O36   Zn1   S    
H91   N41   S    
C48   O30   A    
C11   C30   S    
C39   O37   A    
C52   C55   A    
H49   N20   S    
C40   O22   A    
H54   N22   S    
C45   O28   A    
C97   N5    S    
O34   Zn8   S    
C3    N39   S    
H65   N28   S    
H4    N45   S    
C104  N29   S    
C56   C74   A    
C5    N41   S    
C56   C104  S    
O27   Zn5   S    
C95   C100  A    
C87   N34   S    
H52   N21   S    
C61   C64   A    
C9    C14   T    
C11   C16   T    
H27   N9    S    
C111  N37   S    
H2    N44   S    
C38   O36   A    
C5    N24   S    
C34   C74   S    
H74   N32   S    
O3    Zn5   S    
C26   C36   S    
H78   N34   S    
H40   N16   S    
C33   O16   A    
H53   N22   S    
C29   O11   A    
O42   Zn12  S    
C27   O7    A    
O23   Zn14  S    
O23   Zn5   S    
C46   O29   A    
H7    N47   S    
C36   O52   A    
H57   N24   S    
C5    C57   S    
H79   N35   S    
H16   N4    S    
H56   N23   S    
C41   O43   A    
C10   C29   S    
C57   C75   A    
C104  C109  S    
C53   C103  S    
C28   O6    A    
O16   Zn3   S    
C31   C73   S    
C35   O38   A    
C87   C90   A    
O34   Zn6   S    
C8    C27   S    
C52   C108  S    
O19   Zn4   S    
H80   N36   S    
C68   C86   A    
H75   N33   S    
O1    Zn10  S    
C49   C107  S    
C106  N14   S    
C112  N38   S    
C63   C81   A    
H68   N29   S    
C48   O46   A    
C10   C15   T    
O21   Zn2   S    
C65   C83   A    
C109  N35   S    
O7    Zn10  S    
O18   Zn16  S    
C49   C54   A    
C27   O5    A    
H85   N38   S    
H18   N5    S    
C51   C56   A    
C48   C78   S    
O1    Zn1   S    
C4    N40   S    
H36   N14   S    
H6    N46   S    
H71   N31   S    
C38   C66   S    
H82   N37   S    
C101  N27   S    
C105  N30   S    
C30   O10   A    
H47   N19   S    
C47   O4    A    
H72   N31   S    
H35   N13   S    
H87   N39   S    
C12   C58   S    
C41   C81   S    
O40   Zn14  S    
O12   Zn9   S    
C1    O45   A    
C107  N15   S    
O28   Zn8   S    
C105  C108  S    
C60   C77   A    
C20   C24   T    
C62   C79   A    
H32   N11   S    
C109  N17   S    
C13   C58   T    
O8    Zn11  S    
C28   O8    A    
C35   O18   A    
H96   N43   S    
C4    N22   S    
C110  N36   S    
C43   O26   A    
H5    N46   S    
C39   O21   A    
C15   C80   S    
C61   C78   A    
O35   Zn9   S    
H17   N4    S    
O17   Zn4   S    
C64   C82   A    
H15   N3    S    
C6    N25   S    
C1    C23   S    
H20   N6    S    
C84   C89   A    
C65   C112  S    
H70   N30   S    
H9    N48   S    
H44   N18   S    
C59   C62   A    
O47   Zn14  S    
H84   N38   S    
C24   C47   S    
H51   N21   S    
H13   N2    S    
H60   N26   S    
C1    O50   A    
C83   C100  A    
C111  N19   S    
C63   C110  S    
C40   O42   A    
O1    Zn3   S    
H25   N8    S    
C86   C92   A    
C37   O19   A    
C72   C89   A    
C38   O20   A    
H64   N28   S    
C99   N7    S    
C35   C68   S    
C4    C59   S    
H81   N36   S    
C39   C70   S    
C103  C106  S    
C51   C68   A    
H67   N34   S    
C52   C70   A    
C66   C84   A    
C101  N9    S    
C54   C72   A    
O45   Zn3   S    
O14   Zn16  S    
C89   N45   S    
O25   Zn7   S    
O26   Zn8   S    
C93   C98   A    
O12   Zn2   S    
