data_mof_unit_50543.cif
_audit_creation_date              2012-12-10T17:02:28-0500
_audit_creation_method            fapswitch 2.2
_symmetry_space_group_name_H-M    P1
_symmetry_Int_Tables_number       1
_space_group_crystal_system       triclinic
_cell_length_a                    10.775992
_cell_length_b                    11.109589
_cell_length_c                    9.822292
_cell_angle_alpha                 110.757376
_cell_angle_beta                  97.939723
_cell_angle_gamma                 90.851746
_cell_volume                      1086.43668527

loop_
_atom_site_label
_atom_site_type_symbol
_atom_type_description
_atom_site_fract_x
_atom_site_fract_y
_atom_site_fract_z
_atom_type_partial_charge
C1    C     C_R   0.492505 0.255138 0.441581 0.823754
C2    C     C_R   0.507503 0.744861 0.558421 0.823764
C3    C     C_2   0.473312 0.118822 0.412102 -0.406826
C4    C     C_2   0.526713 0.881177 0.587904 -0.406822
C5    C     C_2   0.524507 0.065013 0.507656 0.250943
C6    C     C_2   0.475491 0.935002 0.492381 0.250907
C7    C     C_2   0.512139 0.508309 0.080502 -0.094987
C8    C     C_2   0.487845 0.491710 0.919504 -0.095009
C9    C     C_R   0.263143 0.500375 0.501724 0.793422
C10   C     C_R   0.736857 0.499627 0.498277 0.793416
C11   C     C_R   0.143916 0.738683 0.592660 -0.162264
C12   C     C_R   0.856090 0.261320 0.407398 -0.162242
C13   C     C_R   0.085544 0.854655 0.629169 -0.145584
C14   C     C_R   0.914471 0.145354 0.370941 -0.145581
C15   C     C_R   0.955712 0.854094 0.621179 -0.138421
C16   C     C_R   0.044297 0.145916 0.378922 -0.138421
C17   C     C_R   0.883910 0.737590 0.577481 -0.152793
C18   C     C_R   0.116095 0.262414 0.422558 -0.152788
C19   C     C_R   0.941319 0.618581 0.539710 0.068594
C20   C     C_R   0.058683 0.381423 0.460305 0.068589
C21   C     C_R   0.072676 0.619084 0.546081 0.075148
C22   C     C_R   0.927326 0.380921 0.453940 0.075144
C23   C     C_R   0.870237 0.499555 0.494888 -0.179517
C24   C     C_R   0.129764 0.500448 0.505118 -0.179521
Cu1   Cu    Cu3+1 0.521920 0.521810 0.644910 0.935210
Cu2   Cu    Cu3+1 0.478080 0.478190 0.355090 0.935204
H1    H     H_    0.089610 0.055813 0.350997 0.143539
H2    H     H_    0.910402 0.944197 0.649153 0.143524
H3    H     H_    0.245105 0.743801 0.601662 0.117428
H4    H     H_    0.754902 0.256200 0.398400 0.117416
H5    H     H_    0.141314 0.945211 0.663707 0.135777
H6    H     H_    0.858711 0.054794 0.336457 0.135778
H7    H     H_    0.783278 0.741803 0.572687 0.122971
H8    H     H_    0.216728 0.258205 0.427349 0.122983
H9    H     H_    0.597172 0.933067 0.681321 0.163181
H10   H     H_    0.402882 0.066916 0.318661 0.163181
H11   H     H_    0.412550 0.423167 0.847886 0.170267
H12   H     H_    0.587425 0.576863 0.152124 0.170257
H13   H     H_    0.626564 0.618127 0.932823 0.195972
H14   H     H_    0.373448 0.381859 0.067173 0.195969
N1    N     N_2   0.445130 0.445420 0.137360 -0.287425
N2    N     N_2   0.554870 0.554580 0.862640 -0.287426
O1    O     O_R   0.511700 0.332340 0.577400 -0.557198
O2    O     O_R   0.488300 0.667660 0.422600 -0.557206
O3    O     O_R   0.474680 0.295500 0.332650 -0.576046
O4    O     O_R   0.525320 0.704500 0.667350 -0.576052
O5    O     O_R   0.338170 0.518410 0.622370 -0.576167
O6    O     O_R   0.661830 0.481590 0.377630 -0.576167
O7    O     O_R   0.301150 0.481570 0.377630 -0.571708
O8    O     O_R   0.698850 0.518430 0.622370 -0.571710
N3    N     N_2   0.368740 0.872234 0.383616 -0.441623
H15   H     H_    0.305013 0.820210 0.414079 0.252406
C25   C     C_3   0.389941 0.813741 0.232038 -0.637027
H16   H     H_    0.364584 0.708555 0.191006 0.246496
H17   H     H_    0.489434 0.829753 0.220278 0.218030
H18   H     H_    0.328341 0.855122 0.162099 0.214495
N4    N     N_2   0.631230 0.127801 0.616452 -0.441624
H19   H     H_    0.694964 0.179838 0.586017 0.252426
C26   C     C_3   0.610001 0.186253 0.768021 -0.637085
H20   H     H_    0.635286 0.291450 0.809063 0.246517
H21   H     H_    0.671639 0.144906 0.837963 0.214507
H22   H     H_    0.510521 0.170158 0.779763 0.218029

loop_
_geom_bond_atom_site_label_1
_geom_bond_atom_site_label_2
_ccdc_geom_bond_type
Cu1   N2    S    
C19   C23   A    
C9    C24   S    
Cu2   O6    S    
C10   C23   S    
C11   C13   A    
Cu1   O5    S    
C25   H17   S    
C2    C4    S    
C5    N4    S    
C3    C5    D    
Cu1   O1    S    
C16   H1    S    
C7    N1    D    
C15   H2    S    
C4    H9    S    
Cu2   O2    S    
C7    C8    S    
C25   H16   S    
C2    O4    A    
C18   H8    S    
C1    O3    A    
N4    H19   S    
C17   H7    S    
C3    H10   S    
C16   C18   A    
H14   N1    S    
C19   C21   A    
C7    H12   S    
C8    N2    D    
C9    O5    A    
H13   N2    S    
C18   C20   A    
C13   C15   A    
C10   O6    A    
C5    C6    S    
C6    N3    S    
C14   C16   A    
N4    C26   S    
C26   H21   S    
C8    H11   S    
C21   C24   A    
C11   C21   A    
N3    H15   S    
C10   O8    A    
C12   C22   A    
C12   C14   A    
C26   H20   S    
C9    O7    A    
C2    O2    A    
C11   H3    S    
C4    C6    D    
C25   H18   S    
C14   H6    S    
C1    C3    S    
C15   C17   A    
C13   H5    S    
C22   C23   A    
C17   C19   A    
C26   H22   S    
Cu2   O3    S    
C12   H4    S    
Cu1   Cu2   S    
Cu1   O8    S    
Cu1   O4    S    
C1    O1    A    
C20   C24   A    
Cu2   N1    S    
C20   C22   A    
N3    C25   S    
Cu2   O7    S    
