data_mof_unit_17757.cif
_audit_creation_date              2012-12-10T18:06:43-0500
_audit_creation_method            fapswitch 2.2
_symmetry_space_group_name_H-M    P1
_symmetry_Int_Tables_number       1
_space_group_crystal_system       triclinic
_cell_length_a                    12.639534
_cell_length_b                    13.165283
_cell_length_c                    15.503987
_cell_angle_alpha                 83.555987
_cell_angle_beta                  98.857729
_cell_angle_gamma                 96.404182
_cell_volume                      2521.33618531

loop_
_atom_site_label
_atom_site_type_symbol
_atom_type_description
_atom_site_fract_x
_atom_site_fract_y
_atom_site_fract_z
_atom_type_partial_charge
C1    C     C_R   0.444844 0.308420 0.512555 0.831901
C2    C     C_R   0.426068 0.461230 0.102818 -0.119426
C3    C     C_R   0.314731 0.461328 0.070897 0.056065
C4    C     C_R   0.496659 0.432308 0.049581 0.095048
C5    C     C_R   0.462843 0.433528 0.958667 0.083606
C6    C     C_R   0.352157 0.436677 0.926662 -0.250650
C7    C     C_R   0.278762 0.446165 0.982890 -0.140554
C8    C     C_R   0.598794 0.399835 0.084579 -0.157379
C9    C     C_R   0.672088 0.385765 0.029931 -0.244593
C10   C     C_R   0.645986 0.405915 0.939422 0.120101
C11   C     C_R   0.541382 0.431175 0.903315 0.085376
C12   C     C_R   0.435064 0.511701 0.336125 0.921329
C13   C     C_R   0.723582 0.402405 0.884775 -0.320745
C14   C     C_R   0.699169 0.424981 0.793454 0.476623
C15   C     C_R   0.520491 0.461097 0.813834 -0.326537
C16   C     C_R   0.725996 0.924316 0.567150 -0.205078
C17   C     C_R   0.594862 0.797820 0.500733 -0.039408
C18   C     C_R   0.301337 0.167041 0.493615 -0.191783
C19   C     C_R   0.269152 0.064298 0.484067 -0.150151
C20   C     C_R   0.345711 0.994161 0.495233 -0.179687
C21   C     C_R   0.456217 0.025686 0.520255 0.086938
C22   C     C_R   0.485769 0.126575 0.542946 0.090948
C23   C     C_R   0.556853 0.691163 0.491846 0.844939
C24   C     C_R   0.538428 0.960549 0.523423 0.082877
C25   C     C_R   0.645152 0.990547 0.561884 0.178011
C26   C     C_R   0.669014 0.085236 0.595846 -0.285103
C27   C     C_R   0.590342 0.152767 0.586427 -0.218170
C28   C     C_R   0.517503 0.866740 0.487975 -0.260761
C29   C     C_R   0.700462 0.827131 0.537888 -0.201123
C30   C     C_R   0.409969 0.199091 0.520342 -0.116108
C31   C     C_R   0.134199 0.631674 0.628302 -0.267163
C32   C     C_R   0.757491 0.382722 0.393114 0.647139
C33   C     C_R   0.853812 0.364442 0.366224 -0.365601
C34   C     C_R   0.563946 0.483924 0.664150 0.877687
C35   C     C_R   0.950619 0.408868 0.406515 -0.265879
C36   C     C_R   0.952368 0.474737 0.472465 0.043069
C37   C     C_R   0.852976 0.495014 0.494983 0.108844
C38   C     C_R   0.048286 0.521785 0.516455 0.010314
C39   C     C_R   0.041851 0.587181 0.581911 0.063460
C40   C     C_R   0.943232 0.607780 0.601115 -0.244613
C41   C     C_R   0.849955 0.562689 0.557508 -0.112079
C42   C     C_R   0.150878 0.506031 0.499149 -0.138805
C43   C     C_R   0.232958 0.613744 0.609423 0.558557
C44   C     C_R   0.392847 0.505196 0.243253 -0.224716
C45   C     C_R   0.597429 0.458836 0.758572 -0.153027
C46   C     C_R   0.242056 0.478203 0.127090 0.456069
C47   C     C_R   0.281804 0.496173 0.214378 -0.398817
C48   C     C_R   0.464817 0.497203 0.184629 0.420710
H1    H     H_    0.194302 0.445609 0.956222 0.196886
H2    H     H_    0.803576 0.383764 0.913448 0.148805
H3    H     H_    0.761335 0.773611 0.548373 0.147080
H4    H     H_    0.749030 0.107838 0.628168 0.152323
H5    H     H_    0.807523 0.946080 0.596943 0.136750
H6    H     H_    0.439839 0.843279 0.452635 0.147542
H7    H     H_    0.241719 0.221857 0.477453 0.156067
H8    H     H_    0.315781 0.915587 0.485993 0.140208
H9    H     H_    0.185125 0.039570 0.464408 0.142675
H10   H     H_    0.611957 0.225359 0.614116 0.170951
H11   H     H_    0.444728 0.490235 0.786694 0.208152
H12   H     H_    0.938089 0.658731 0.650340 0.154495
H13   H     H_    0.130113 0.680747 0.679215 0.171816
H14   H     H_    0.163604 0.457485 0.451031 0.145064
H15   H     H_    0.022094 0.391504 0.383451 0.156700
H16   H     H_    0.854407 0.318248 0.312889 0.154063
H17   H     H_    0.776540 0.581607 0.574525 0.213403
H18   H     H_    0.750514 0.362635 0.058717 0.155547
H19   H     H_    0.226073 0.503080 0.259484 0.179508
H20   H     H_    0.319833 0.427132 0.859077 0.157525
H21   H     H_    0.622112 0.382331 0.154259 0.219712
N1    N     N_R   0.239390 0.551900 0.544730 -0.157088
N2    N     N_R   0.759950 0.448600 0.455730 -0.174524
O1    O     O_R   0.374950 0.371210 0.521360 -0.614588
O2    O     O_R   0.542050 0.338030 0.492790 -0.592807
O3    O     O_R   0.368720 0.526070 0.390200 -0.631253
O4    O     O_R   0.535820 0.492890 0.361630 -0.500129
O5    O     O_R   0.457950 0.661970 0.507210 -0.637864
O6    O     O_R   0.625050 0.628790 0.478640 -0.647110
O7    O     O_R   0.464180 0.507110 0.638370 -0.629216
O8    O     O_R   0.631280 0.473930 0.609800 -0.593706
Zn1   Zn    Zn3+2 0.388420 0.522150 0.519080 0.929270
Zn2   Zn    Zn3+2 0.611580 0.477850 0.480920 0.982035
O9    O     O_3   0.321221 0.659092 0.659320 -0.788602
H22   H     H_    0.384521 0.657463 0.630868 0.386372
O10   O     O_3   0.658990 0.346201 0.349349 -0.560451
C49   C     C_3   0.649984 0.238023 0.351352 0.070700
H23   H     H_    0.667326 0.201742 0.419747 0.155854
H24   H     H_    0.704850 0.212382 0.310426 0.120195
C50   C     C_3   0.535805 0.200584 0.313405 -0.777342
H25   H     H_    0.518872 0.230739 0.243321 0.239433
H26   H     H_    0.526157 0.115322 0.318412 0.204429
H27   H     H_    0.476824 0.227418 0.349677 0.258157
O11   O     O_3   0.775929 0.421990 0.738782 -0.596116
C51   C     C_3   0.816230 0.324541 0.750509 0.102968
H28   H     H_    0.750891 0.260717 0.755810 0.123541
H29   H     H_    0.877598 0.318807 0.809987 0.145455
C52   C     C_3   0.870713 0.311048 0.672254 -0.813596
H30   H     H_    0.936778 0.373052 0.665029 0.268324
H31   H     H_    0.905179 0.235943 0.682112 0.193945
H32   H     H_    0.811207 0.313124 0.611599 0.248920
O12   O     O_3   0.133201 0.474334 0.096325 -0.786489
H33   H     H_    0.094111 0.487762 0.144028 0.332520
O13   O     O_3   0.573429 0.526525 0.207023 -0.582520
C53   C     C_3   0.593046 0.632952 0.184063 0.112014
H34   H     H_    0.543526 0.677538 0.216912 0.119750
H35   H     H_    0.575679 0.651084 0.111644 0.142753
C54   C     C_3   0.710952 0.666071 0.213801 -0.784384
H36   H     H_    0.727980 0.749774 0.196144 0.197554
H37   H     H_    0.730131 0.649457 0.286070 0.261418
H38   H     H_    0.762690 0.623849 0.181383 0.255250

loop_
_geom_bond_atom_site_label_1
_geom_bond_atom_site_label_2
_ccdc_geom_bond_type
C51   H28   S    
C40   H12   S    
C12   O3    A    
C17   C29   A    
C31   H13   S    
C35   C36   A    
C23   O5    A    
C20   H8    S    
C49   H23   S    
C19   H9    S    
C8    H21   S    
C17   C23   S    
C31   C43   A    
O11   C51   S    
C36   C37   A    
C38   C42   A    
C3    C7    A    
C5    C6    A    
O7    Zn1   S    
C54   H36   S    
C52   H32   S    
C42   N1    A    
C18   C19   A    
C47   H19   S    
C16   H5    S    
C1    C30   S    
C9    H18   S    
C11   C15   A    
O10   C49   S    
C19   C20   A    
C8    C9    A    
C52   H31   S    
C18   C30   A    
C14   C45   A    
C9    C10   A    
C42   H14   S    
C44   C47   A    
C4    C8    A    
C50   H25   S    
C6    H20   S    
C51   H29   S    
O3    Zn1   S    
C21   C22   A    
O2    Zn2   S    
C32   N2    A    
C49   H24   S    
C32   O10   S    
C1    O1    A    
N1    Zn1   S    
C24   C28   A    
C24   C25   A    
C7    H1    S    
C39   C40   A    
O8    Zn2   S    
C28   H6    S    
O4    Zn2   S    
C41   H17   S    
C2    C48   A    
C16   C29   A    
C10   C13   A    
C2    C4    A    
C26   H4    S    
C34   O8    A    
C50   H27   S    
O6    Zn2   S    
C48   O13   S    
C52   H30   S    
C26   C27   A    
C53   H35   S    
C34   C45   S    
C23   O6    A    
C14   O11   S    
C18   H7    S    
C40   C41   A    
C50   H26   S    
C51   C52   S    
C22   C27   A    
C37   N2    A    
C12   O4    A    
C15   C45   A    
C29   H3    S    
C49   C50   S    
C16   C25   A    
C46   O12   S    
C46   C47   A    
C22   C30   A    
C17   C28   A    
C15   H11   S    
O5    Zn1   S    
C4    C5    A    
C27   H10   S    
C5    C11   A    
C6    C7    A    
C43   N1    A    
C3    C46   A    
C1    O2    A    
C32   C33   A    
C36   C38   A    
C2    C3    A    
C25   C26   A    
O1    Zn1   S    
C34   O7    A    
C38   C39   A    
C54   H37   S    
C33   H16   S    
O12   H33   S    
C33   C35   A    
C31   C39   A    
C53   C54   S    
C37   C41   A    
O13   C53   S    
C10   C11   A    
C13   H2    S    
C20   C21   A    
C12   C44   S    
O9    H22   S    
C21   C24   A    
C53   H34   S    
C43   O9    S    
C35   H15   S    
C13   C14   A    
C44   C48   A    
N2    Zn2   S    
C54   H38   S    
