data_mof_unit_29122.cif
_audit_creation_date              2013-03-05T15:42:41-0500
_audit_creation_method            fapswitch 2.2
_symmetry_space_group_name_H-M    P1
_symmetry_Int_Tables_number       1
_space_group_crystal_system       triclinic
_cell_length_a                    19.054111
_cell_length_b                    11.26397
_cell_length_c                    18.626669
_cell_angle_alpha                 90.251279
_cell_angle_beta                  91.390438
_cell_angle_gamma                 89.509266
_cell_volume                      3996.38900458

loop_
_atom_site_label
_atom_site_type_symbol
_atom_site_description
_atom_site_fract_x
_atom_site_fract_y
_atom_site_fract_z
_atom_type_partial_charge
O1    O     O_R   0.788190 0.043000 0.172520 -0.455446
O2    O     O_R   0.211810 0.043000 0.827480 -0.456439
O3    O     O_R   0.288190 0.543000 0.172520 -0.466515
O4    O     O_R   0.711810 0.543000 0.827480 -0.453491
O5    O     O_R   0.766240 0.292300 0.176860 -0.447977
O6    O     O_R   0.233760 0.292300 0.823140 -0.442430
O7    O     O_R   0.266240 0.792300 0.176860 -0.437738
O8    O     O_R   0.733760 0.792300 0.823140 -0.446342
C1    C     C_R   0.730746 0.372225 0.145508 0.583593
C2    C     C_R   0.269128 0.372573 0.854252 0.587047
C3    C     C_R   0.230755 0.872251 0.145525 0.599565
C4    C     C_R   0.769132 0.872560 0.854261 0.585235
O9    O     O_R   0.670310 0.409160 0.168720 -0.542831
O10   O     O_R   0.329690 0.409160 0.831280 -0.534001
O11   O     O_R   0.170310 0.909160 0.168720 -0.526452
O12   O     O_R   0.829690 0.909160 0.831280 -0.537257
O13   O     O_R   0.556160 0.251900 0.173380 -0.509263
O14   O     O_R   0.443840 0.251900 0.826620 -0.493106
O15   O     O_R   0.056160 0.751900 0.173380 -0.495056
O16   O     O_R   0.943840 0.751900 0.826620 -0.499812
C5    C     C_R   0.532509 0.156988 0.145132 0.603716
C6    C     C_R   0.466954 0.156782 0.855248 0.634141
C7    C     C_R   0.032507 0.656987 0.145134 0.618671
C8    C     C_R   0.966944 0.656782 0.855254 0.614630
O17   O     O_R   0.545410 0.050140 0.168240 -0.426375
O18   O     O_R   0.454590 0.050140 0.831760 -0.416573
O19   O     O_R   0.045410 0.550140 0.168240 -0.422119
O20   O     O_R   0.954590 0.550140 0.831760 -0.424094
O21   O     O_R   0.681530 0.958350 0.176970 -0.497213
O22   O     O_R   0.318470 0.958350 0.823030 -0.500386
O23   O     O_R   0.181530 0.458350 0.176970 -0.495672
O24   O     O_R   0.818470 0.458350 0.823030 -0.497631
C9    C     C_R   0.742788 0.966083 0.150338 0.569434
C10   C     C_R   0.257365 0.965780 0.849560 0.562445
C11   C     C_R   0.242780 0.466101 0.150323 0.553735
C12   C     C_R   0.757354 0.465758 0.849542 0.576084
O25   O     O_R   0.788610 0.044480 0.334450 -0.478940
O26   O     O_R   0.211390 0.044480 0.665550 -0.484991
O27   O     O_R   0.288610 0.544480 0.334450 -0.535321
O28   O     O_R   0.711390 0.544480 0.665550 -0.475675
O29   O     O_R   0.766630 0.293670 0.326970 -0.525246
O30   O     O_R   0.233370 0.293670 0.673030 -0.506754
O31   O     O_R   0.266630 0.793670 0.326970 -0.499237
O32   O     O_R   0.733370 0.793670 0.673030 -0.531821
C13   C     C_R   0.734091 0.387902 0.349138 0.575670
C14   C     C_R   0.269796 0.381661 0.646667 0.527043
C15   C     C_R   0.207781 0.823978 0.359755 0.552468
C16   C     C_R   0.765187 0.886910 0.650342 0.533826
O33   O     O_R   0.670730 0.410640 0.330640 -0.471461
O34   O     O_R   0.329270 0.410640 0.669360 -0.536909
O35   O     O_R   0.170730 0.910640 0.330640 -0.524024
O36   O     O_R   0.829270 0.910640 0.669360 -0.492538
O37   O     O_R   0.556550 0.253260 0.323480 -0.472749
O38   O     O_R   0.443450 0.253260 0.676520 -0.443435
O39   O     O_R   0.056550 0.753260 0.323480 -0.508907
O40   O     O_R   0.943450 0.753260 0.676520 -0.438923
C17   C     C_R   0.532999 0.158517 0.352188 0.535861
C18   C     C_R   0.440944 0.152249 0.639184 0.557390
C19   C     C_R   0.029949 0.657715 0.351867 0.547664
C20   C     C_R   0.968492 0.656931 0.647259 0.555760
O41   O     O_R   0.545830 0.051610 0.330160 -0.535108
O42   O     O_R   0.454170 0.051610 0.669840 -0.509638
O43   O     O_R   0.045830 0.551610 0.330160 -0.524836
O44   O     O_R   0.954170 0.551610 0.669840 -0.544930
O45   O     O_R   0.681920 0.959720 0.327070 -0.519754
O46   O     O_R   0.318080 0.959720 0.672930 -0.553535
O47   O     O_R   0.181920 0.459720 0.327070 -0.518679
O48   O     O_R   0.818080 0.459720 0.672930 -0.515236
C21   C     C_R   0.727984 0.024451 0.364328 0.569280
C22   C     C_R   0.257372 0.972438 0.642726 0.524560
C23   C     C_R   0.243371 0.469754 0.355145 0.517700
C24   C     C_R   0.771601 0.525371 0.636231 0.550858
Cr1   Cr    Cr6+3 0.772820 0.169820 0.252640 1.138283
Cr2   Cr    Cr6+3 0.227180 0.169820 0.747360 1.141381
Cr3   Cr    Cr6+3 0.272820 0.669820 0.252640 1.106512
Cr4   Cr    Cr6+3 0.727180 0.669820 0.747360 1.137461
Cr5   Cr    Cr6+3 0.615040 0.323610 0.249150 1.062162
Cr6   Cr    Cr6+3 0.384960 0.323610 0.750850 1.077665
Cr7   Cr    Cr6+3 0.115040 0.823610 0.249150 1.062634
Cr8   Cr    Cr6+3 0.884960 0.823610 0.750850 1.095012
Cr9   Cr    Cr6+3 0.616720 0.011130 0.250660 1.067389
Cr10  Cr    Cr6+3 0.383280 0.011130 0.749340 1.071171
Cr11  Cr    Cr6+3 0.116720 0.511130 0.250660 1.071000
Cr12  Cr    Cr6+3 0.883280 0.511130 0.749340 1.068959
O49   O     O_3   0.668190 0.168190 0.250820 -0.300664
O50   O     O_3   0.331810 0.168190 0.749180 -0.307997
O51   O     O_3   0.168190 0.668190 0.250820 -0.307164
O52   O     O_3   0.831810 0.668190 0.749180 -0.313800
C25   C     C_3   0.527225 0.273292 0.970808 -0.169212
C26   C     C_3   0.470213 0.273296 0.030415 -0.174719
C27   C     C_3   0.027197 0.773303 0.970817 -0.171979
C28   C     C_3   0.970187 0.773281 0.030424 -0.171629
C29   C     C_3   0.568312 0.175143 0.012457 0.113875
C30   C     C_3   0.430105 0.175067 0.988233 0.106807
C31   C     C_3   0.068295 0.675161 0.012459 0.110139
C32   C     C_3   0.930089 0.675044 0.988237 0.109956
H1    H     H_    0.550014 0.352541 0.945417 0.146481
H2    H     H_    0.446737 0.352514 0.056306 0.142652
H3    H     H_    0.049981 0.852563 0.945431 0.144833
H4    H     H_    0.946708 0.852489 0.056323 0.147031
C33   C     C_3   0.511575 0.173258 0.070052 -0.000814
C34   C     C_3   0.486903 0.173222 0.930685 -0.004970
C35   C     C_3   0.011560 0.673252 0.070056 -0.003422
C36   C     C_3   0.986886 0.673224 0.930690 -0.001716
C37   C     C_3   0.472093 0.080037 0.027972 0.216837
C38   C     C_3   0.527270 0.080068 0.972381 0.214617
C39   C     C_3   0.972086 0.580023 0.027971 0.216041
C40   C     C_3   0.027262 0.580077 0.972380 0.216070
H5    H     H_    0.849813 0.002350 0.065844 0.159599
H6    H     H_    0.148600 0.998436 0.933056 0.158500
H7    H     H_    0.349779 0.502427 0.065823 0.158911
H8    H     H_    0.648566 0.498370 0.933032 0.159117
C41   C     C_R   0.749726 0.894478 0.929096 0.090398
C42   C     C_R   0.249617 0.892973 0.070448 0.085781
C43   C     C_R   0.249704 0.394539 0.929070 0.088975
C44   C     C_R   0.749592 0.392893 0.070412 0.090727
C45   C     C_R   0.695825 0.830583 0.968016 0.076110
C46   C     C_R   0.304631 0.829850 0.031559 0.075620
C47   C     C_R   0.195799 0.330646 0.967976 0.076972
C48   C     C_R   0.804597 0.329761 0.031503 0.075787
C49   C     C_R   0.701895 0.837345 0.045462 0.037932
C50   C     C_R   0.299255 0.836958 0.954103 0.037415
C51   C     C_R   0.201858 0.337413 0.045421 0.038394
C52   C     C_R   0.799206 0.336868 0.954047 0.036376
C53   C     C_R   0.806559 0.956404 0.040287 -0.119291
C54   C     C_R   0.192525 0.953787 0.958913 -0.117596
C55   C     C_R   0.306527 0.456477 0.040263 -0.119056
C56   C     C_R   0.692490 0.453712 0.958882 -0.118068
C57   C     C_R   0.802737 0.954730 0.967402 -0.113210
C58   C     C_R   0.195493 0.951273 0.031887 -0.113828
C59   C     C_R   0.302700 0.454824 0.967378 -0.112512
C60   C     C_R   0.695457 0.451173 0.031857 -0.113040
C61   C     C_R   0.638568 0.756134 0.938425 0.284233
C62   C     C_R   0.362513 0.755908 0.061266 0.287425
C63   C     C_R   0.138547 0.256194 0.938366 0.285039
C64   C     C_R   0.862487 0.255817 0.061184 0.284204
C65   C     C_R   0.094739 0.197563 0.986332 -0.081634
C66   C     C_R   0.907297 0.196987 0.013440 -0.083230
C67   C     C_R   0.594765 0.697511 0.986404 -0.080654
C68   C     C_R   0.407326 0.697053 0.013542 -0.082759
C69   C     C_R   0.604345 0.703747 0.059637 -0.132650
C70   C     C_R   0.398524 0.703633 0.940243 -0.133759
C71   C     C_R   0.104298 0.203815 0.059564 -0.131379
C72   C     C_R   0.898470 0.203558 0.940142 -0.133959
C73   C     C_R   0.658816 0.768057 0.088627 -0.062447
C74   C     C_R   0.343801 0.768354 0.910996 -0.064144
C75   C     C_R   0.158758 0.268138 0.088569 -0.061832
C76   C     C_R   0.843728 0.268254 0.910917 -0.063610
C77   C     C_R   0.753359 0.909707 0.079801 0.040827
C78   C     C_R   0.247065 0.908911 0.919706 0.041288
C79   C     C_R   0.253331 0.409757 0.079773 0.040104
C80   C     C_R   0.747029 0.408849 0.919669 0.042279
H9    H     H_    0.846151 0.995080 0.941167 0.140182
H10   H     H_    0.150663 0.989259 0.057855 0.139485
H11   H     H_    0.346103 0.495209 0.941143 0.140029
H12   H     H_    0.650623 0.489139 0.057829 0.139875
H13   H     H_    0.051866 0.143731 0.966207 0.130435
H14   H     H_    0.950404 0.142949 0.033836 0.131578
H15   H     H_    0.551886 0.643684 0.966291 0.130588
H16   H     H_    0.450425 0.643008 0.033952 0.131514
H17   H     H_    0.070582 0.154138 0.094257 0.150158
H18   H     H_    0.932923 0.153725 0.905530 0.150920
H19   H     H_    0.570639 0.654070 0.094339 0.146607
H20   H     H_    0.432985 0.653790 0.905645 0.151022
H21   H     H_    0.668063 0.759930 0.145913 0.137396
H22   H     H_    0.335364 0.760555 0.853564 0.139622
H23   H     H_    0.167988 0.260010 0.145854 0.141100
H24   H     H_    0.835268 0.260458 0.853483 0.140275
C81   C     C_R   0.465336 0.152780 0.565572 -0.047191
C82   C     C_R   0.499734 0.171977 0.421245 -0.063154
C83   C     C_R   0.998785 0.664091 0.574218 -0.034032
C84   C     C_R   0.992714 0.663371 0.422039 -0.034869
C85   C     C_R   0.442089 0.065339 0.514892 -0.033111
C86   C     C_R   0.450935 0.086649 0.441367 -0.029239
C87   C     C_R   0.005669 0.558115 0.535085 -0.023539
C88   C     C_R   0.990249 0.557808 0.461068 -0.011400
C89   C     C_R   0.533137 0.244273 0.473852 0.179516
C90   C     C_R   0.513872 0.238567 0.545265 0.192909
C91   C     C_R   0.982040 0.769792 0.459950 0.144634
C92   C     C_R   0.993366 0.771670 0.535926 0.183568
C93   C     C_R   0.418050 0.951311 0.534156 -0.100032
C94   C     C_R   0.420135 0.009018 0.389923 -0.060526
C95   C     C_R   0.024365 0.450339 0.568254 -0.085133
C96   C     C_R   0.975954 0.450058 0.426688 -0.066364
C97   C     C_R   0.017288 0.344894 0.531159 -0.173410
C98   C     C_R   0.994089 0.345622 0.459477 -0.159776
C99   C     C_R   0.404484 0.865350 0.481819 -0.142646
C100  C     C_R   0.401435 0.895674 0.409977 -0.084719
H25   H     H_    0.415475 0.920526 0.588329 0.169649
H26   H     H_    0.418585 0.029944 0.333199 0.157046
H27   H     H_    0.046047 0.446756 0.622474 0.162917
H28   H     H_    0.952861 0.446206 0.372962 0.159527
H29   H     H_    0.030263 0.263129 0.558809 0.145011
H30   H     H_    0.988495 0.266631 0.427725 0.102511
H31   H     H_    0.394791 0.775259 0.497272 0.109283
H32   H     H_    0.388366 0.829754 0.369675 0.166600
H33   H     H_    0.626839 0.924553 0.445056 0.145487
H34   H     H_    0.303324 0.756944 0.589068 0.111645
H35   H     H_    0.140410 0.412009 0.440945 0.168160
H36   H     H_    0.864922 0.408956 0.556331 0.158992
C101  C     C_R   0.731941 0.961974 0.592713 0.018683
C102  C     C_R   0.204709 0.823366 0.439318 -0.031326
C103  C     C_R   0.258214 0.429916 0.575321 0.006680
C104  C     C_R   0.762064 0.459289 0.409817 0.025992
C105  C     C_R   0.768901 0.058752 0.568032 0.074372
C106  C     C_R   0.162075 0.909496 0.471894 0.025532
C107  C     C_R   0.317066 0.469224 0.535264 0.030408
C108  C     C_R   0.722035 0.555352 0.435837 0.076166
C109  C     C_R   0.776735 0.070753 0.492832 0.091131
C110  C     C_R   0.192825 0.974625 0.527136 0.069373
C111  C     C_R   0.318186 0.440978 0.462357 0.006921
C112  C     C_R   0.717372 0.571388 0.511031 0.071222
C113  C     C_R   0.671243 0.954581 0.477170 -0.126698
C114  C     C_R   0.267090 0.804272 0.553740 -0.148673
C115  C     C_R   0.191907 0.413244 0.466666 -0.161045
C116  C     C_R   0.821836 0.445644 0.524665 -0.129563
C117  C     C_R   0.675399 0.923672 0.550266 -0.133948
C118  C     C_R   0.253655 0.762588 0.483277 -0.155899
C119  C     C_R   0.195927 0.405102 0.540244 -0.182521
C120  C     C_R   0.815945 0.413420 0.452772 -0.136169
C121  C     C_R   0.808617 0.128099 0.616762 -0.034876
C122  C     C_R   0.099748 0.952890 0.440016 -0.023911
C123  C     C_R   0.374318 0.534943 0.564684 -0.087150
C124  C     C_R   0.680030 0.625260 0.388587 -0.038858
C125  C     C_R   0.870178 0.176914 0.594257 -0.074249
C126  C     C_R   0.083341 0.071251 0.443490 -0.051012
C127  C     C_R   0.434137 0.554545 0.525094 -0.105192
C128  C     C_R   0.622895 0.688154 0.413913 -0.090693
C129  C     C_R   0.886620 0.165255 0.522708 -0.095160
C130  C     C_R   0.126031 0.144482 0.484335 -0.123557
C131  C     C_R   0.438176 0.510207 0.455655 -0.097628
C132  C     C_R   0.610607 0.689812 0.486905 -0.116996
C133  C     C_R   0.838256 0.126492 0.471263 -0.044175
C134  C     C_R   0.178772 0.097635 0.528748 -0.063242
C135  C     C_R   0.381751 0.449222 0.425233 -0.100460
C136  C     C_R   0.659420 0.639442 0.535380 -0.037245
C137  C     C_R   0.727109 0.014836 0.444997 0.044101
C138  C     C_R   0.240616 0.916309 0.573779 0.024080
C139  C     C_R   0.253106 0.424925 0.426919 0.003249
C140  C     C_R   0.769001 0.513842 0.556797 0.016288
H37   H     H_    0.797977 0.128220 0.673678 0.131356
H38   H     H_    0.071028 0.902625 0.401701 0.182703
H39   H     H_    0.372409 0.576324 0.617114 0.141315
H40   H     H_    0.688252 0.623973 0.331231 0.119266
H41   H     H_    0.636478 0.867779 0.573501 0.126628
H42   H     H_    0.283836 0.689404 0.462065 0.143774
H43   H     H_    0.151650 0.377258 0.570291 0.133628
H44   H     H_    0.850668 0.347176 0.431334 0.120324
H45   H     H_    0.907759 0.213058 0.632822 0.133217
H46   H     H_    0.041799 0.105175 0.409006 0.127555
H47   H     H_    0.476797 0.605864 0.548143 0.146667
H48   H     H_    0.587608 0.734312 0.376908 0.118222
H49   H     H_    0.939102 0.172616 0.507909 0.158054
H50   H     H_    0.118216 0.236518 0.480621 0.114568
H51   H     H_    0.483041 0.529221 0.423596 0.175895
H52   H     H_    0.565339 0.737669 0.506374 0.093372
H53   H     H_    0.855524 0.130265 0.417075 0.171543
H54   H     H_    0.210885 0.158171 0.559973 0.139313
H55   H     H_    0.385853 0.417453 0.370506 0.140628
H56   H     H_    0.648751 0.656028 0.590709 0.168330
Br1   Br    Br    0.667296 0.155405 0.027876 -0.530058
Br2   Br    Br    0.331475 0.154332 0.972265 -0.535406
Br3   Br    Br    0.167286 0.655497 0.027872 -0.531578
Br4   Br    Br    0.831464 0.654246 0.972256 -0.534191
N1    N     N_R   0.594961 0.308517 0.457776 0.115263
O53   O     O_R   0.589767 0.421470 0.445787 -0.331161
O54   O     O_R   0.656085 0.262708 0.474247 -0.357476
N2    N     N_R   0.553598 0.304150 0.598632 0.130766
O55   O     O_R   0.560363 0.418518 0.593289 -0.300295
O56   O     O_R   0.588575 0.247837 0.649010 -0.287414
N3    N     N_R   0.938634 0.859770 0.426865 0.085118
O57   O     O_R   0.879148 0.883808 0.456459 -0.330247
O58   O     O_R   0.945630 0.887439 0.359707 -0.334838
N4    N     N_R   0.005628 0.881306 0.573809 0.100405
O59   O     O_R   0.980881 0.980685 0.549155 -0.336789
O60   O     O_R   0.051145 0.884501 0.627053 -0.325730
N5    N     N_R   0.442493 0.982078 0.064191 0.098477
O61   O     O_R   0.484058 0.893301 0.079876 -0.296426
O62   O     O_R   0.390743 0.008496 0.105700 -0.319748
N6    N     N_R   0.557564 0.982072 0.935657 0.095560
O63   O     O_R   0.516507 0.893706 0.919701 -0.296071
O64   O     O_R   0.608708 0.008541 0.893852 -0.307142
N7    N     N_R   0.942485 0.482040 0.064167 0.098268
O65   O     O_R   0.984046 0.393254 0.079840 -0.296082
O66   O     O_R   0.890714 0.508417 0.105658 -0.315369
N8    N     N_R   0.057554 0.482093 0.935643 0.096115
O67   O     O_R   0.016492 0.393738 0.919674 -0.295856
O68   O     O_R   0.108691 0.508583 0.893834 -0.316426
N9    N     N_R   0.616811 0.740300 0.863305 0.121730
O69   O     O_R   0.587854 0.640795 0.843282 -0.374088
O70   O     O_R   0.607981 0.829328 0.819700 -0.234860
N10   N     N_R   0.383588 0.740436 0.136461 0.122642
O71   O     O_R   0.412085 0.640175 0.156759 -0.391259
O72   O     O_R   0.392171 0.829975 0.180012 -0.253342
N11   N     N_R   0.116791 0.240380 0.863241 0.123600
O73   O     O_R   0.087850 0.140869 0.843203 -0.372296
O74   O     O_R   0.107969 0.329414 0.819637 -0.243575
N12   N     N_R   0.883565 0.240308 0.136371 0.120886
O75   O     O_R   0.912088 0.140055 0.156643 -0.373812
O76   O     O_R   0.892170 0.329838 0.179922 -0.250447

loop_
_geom_bond_atom_site_label_1
_geom_bond_atom_site_label_2
_geom_bond_distance
_ccdc_geom_bond_type
O4    C12   1.285240 A    
O39   C19   1.312282 A    
C70   C74   1.370533 A    
C36   C40   1.503339 S    
C45   C61   1.476399 A    
Cr7   O51   2.014923 S    
C122  H38   1.054593 S    
C110  C138  1.404235 A    
C127  H47   1.080791 S    
C117  H41   1.076858 S    
O25   C21   1.315993 A    
N3    O57   1.298313 A    
C121  C125  1.375106 A    
C88   C96   1.395599 A    
N4    O59   1.292768 A    
C1    O9    1.304032 A    
O44   Cr12  2.082976 S    
C3    O11   1.303976 A    
C7    C35   1.456847 S    
C4    O12   1.310839 A    
C123  H39   1.081560 S    
C69   C73   1.369598 A    
O2    C10   1.285313 A    
C31   Br3   1.912136 S    
C120  H44   1.075051 S    
C67   H15   1.080332 S    
O17   Cr9   2.071376 S    
C42   C58   1.402598 A    
C124  C128  1.385045 A    
C93   C99   1.392286 A    
O16   Cr8   1.954643 S    
C29   C33   1.541737 S    
O13   C5    1.270699 A    
O28   Cr4   2.090943 S    
O12   Cr8   2.080529 S    
C61   N9    1.460300 S    
O22   Cr10  1.965819 S    
O15   C7    1.270713 A    
C89   N1    1.426405 S    
O46   Cr10  1.955422 S    
C87   C88   1.402655 A    
C108  C112  1.416265 A    
C75   H23   1.081346 S    
C84   C91   1.404388 A    
C14   C103  1.449224 S    
C30   Br2   1.911711 S    
N2    O56   1.301810 A    
C61   C67   1.407880 A    
C32   C36   1.541534 S    
C114  C118  1.410312 A    
C115  C139  1.403767 A    
N12   O75   1.302471 A    
H34   C114  1.081025 S    
C87   C95   1.403869 A    
C82   C86   1.401504 A    
C63   C65   1.407830 A    
C1    C44   1.472549 S    
O5    Cr1   1.979138 S    
Cr12  O52   2.015385 S    
C68   C70   1.373773 A    
C133  H53   1.070314 S    
C17   O41   1.293713 A    
C47   C51   1.446102 A    
C19   O43   1.295749 A    
C20   O44   1.293929 A    
N10   O72   1.300475 A    
Cr8   O52   2.029704 S    
C9    C77   1.474247 S    
N8    O68   1.299525 A    
C81   C85   1.427044 A    
O46   C22   1.281150 A    
C83   C87   1.402784 A    
O19   Cr11  2.071376 S    
C49   C77   1.419056 A    
C130  C134  1.388211 A    
C50   C74   1.406650 A    
C55   C59   1.357850 A    
C40   N8    1.421659 S    
C31   C40   1.514831 S    
C53   C57   1.357855 A    
C16   O36   1.292921 A    
C30   C34   1.541566 S    
O27   C23   1.277301 A    
C35   C39   1.503555 S    
C94   H26   1.083215 S    
O31   C15   1.331042 A    
C71   H17   1.083002 S    
O32   C16   1.294748 A    
C127  C131  1.388074 A    
O47   Cr11  1.952816 S    
O21   C9    1.283083 A    
C86   C94   1.414690 A    
N11   O74   1.300495 A    
C121  H37   1.084170 S    
H35   C115  1.081626 S    
O24   C12   1.277803 A    
C114  C138  1.407299 A    
C109  C137  1.431464 A    
C90   N2    1.439944 S    
O8    Cr4   1.971991 S    
C46   C50   1.446423 A    
O32   Cr4   1.976016 S    
C63   N11   1.460351 S    
C55   C79   1.376457 A    
C56   C80   1.376014 A    
O11   Cr7   2.094921 S    
C111  C135  1.413093 A    
C39   C40   1.493440 S    
O27   Cr3   2.096480 S    
O3    Cr3   2.085397 S    
C46   C62   1.474768 A    
Cr5   O49   2.014923 S    
C32   Br4   1.911725 S    
N5    O61   1.300115 A    
C107  C111  1.394056 A    
C112  C136  1.421047 A    
C31   C35   1.541760 S    
C28   C32   1.550280 S    
C136  H56   1.070617 S    
O22   C10   1.277767 A    
C67   C69   1.373414 A    
C116  C140  1.404904 A    
C104  C108  1.409489 A    
C18   C81   1.458468 S    
N6    O63   1.300194 A    
C2    O10   1.310806 A    
C27   C28   1.572027 S    
C12   C80   1.475746 S    
C126  C130  1.377242 A    
C44   C48   1.465948 A    
C15   C102  1.484617 S    
O5    C1    1.258537 A    
C29   C38   1.514820 S    
C106  C110  1.382662 A    
C44   C60   1.402587 A    
O3    C11   1.289268 A    
O8    C4    1.262721 A    
N9    O69   1.302570 A    
C58   H10   1.076429 S    
C94   C100  1.383800 A    
N1    O54   1.300222 A    
Cr1   O49   1.993340 S    
H6    C54   1.077369 S    
C41   C45   1.466856 A    
Cr3   O51   1.993340 S    
C43   C47   1.466764 A    
C17   C82   1.454504 S    
O26   Cr2   2.090943 S    
C5    O17   1.299432 A    
O29   C13   1.295693 A    
O28   C24   1.298436 A    
O14   C6    1.269552 A    
C20   C83   1.493498 S    
C98   H30   1.070866 S    
C8    O20   1.298096 A    
C91   N3    1.434362 S    
C108  C124  1.412929 A    
O40   Cr8   1.958830 S    
C65   H13   1.080337 S    
C102  C118  1.402065 A    
O41   Cr9   2.075055 S    
C68   H16   1.080652 S    
C57   H9    1.075940 S    
C54   C78   1.376000 A    
C106  C122  1.400074 A    
H36   C116  1.079582 S    
O33   Cr5   2.077876 S    
C111  C139  1.403291 A    
C25   C29   1.549251 S    
O35   Cr7   2.077876 S    
O29   Cr1   1.965991 S    
N7    O65   1.300105 A    
C101  C105  1.388833 A    
C131  C135  1.388733 A    
C22   C138  1.458562 S    
C27   H3    1.108791 S    
Cr9   O49   2.030055 S    
C84   C88   1.398133 A    
C18   O42   1.291676 A    
Cr11  O51   2.030055 S    
O26   C22   1.268757 A    
C30   C37   1.515667 S    
O20   Cr12  2.073457 S    
C10   C78   1.475793 S    
C73   H21   1.081420 S    
C107  C123  1.421128 A    
C52   C76   1.406697 A    
C11   C79   1.474263 S    
C104  C120  1.384133 A    
C50   C78   1.419889 A    
C62   N10   1.458433 S    
C70   H20   1.082916 S    
C54   C58   1.359478 A    
O38   Cr6   1.958830 S    
O30   C14   1.318252 A    
C93   H25   1.070802 S    
C96   H28   1.084232 S    
C26   C30   1.550261 S    
C131  H51   1.078091 S    
C99   H31   1.074762 S    
O42   Cr10  2.082976 S    
C85   C93   1.417867 A    
O18   Cr10  2.073457 S    
O31   Cr3   1.965991 S    
N12   O76   1.300440 A    
O34   Cr6   2.075580 S    
O6    Cr2   1.971991 S    
C71   C75   1.369631 A    
O24   Cr12  1.965819 S    
C51   C79   1.419173 A    
O30   Cr2   1.976016 S    
C82   C89   1.414223 A    
O48   Cr12  1.955422 S    
C116  C120  1.388070 A    
C74   H22   1.081219 S    
N11   O73   1.302577 A    
O37   C17   1.284925 A    
C15   O35   1.311352 A    
Cr10  O50   2.015385 S    
C125  C129  1.381867 A    
O40   C20   1.304085 A    
O43   Cr11  2.075055 S    
C48   C64   1.474704 A    
C23   C139  1.438407 S    
O37   Cr5   1.971426 S    
O21   Cr9   1.955752 S    
C115  C119  1.374225 A    
O39   Cr7   1.971426 S    
O45   Cr9   1.952816 S    
C13   O33   1.271681 A    
O13   Cr5   1.957469 S    
O15   Cr7   1.957469 S    
C112  C140  1.438000 A    
C32   C39   1.515663 S    
C76   H24   1.081304 S    
O23   C11   1.283063 A    
C19   C84   1.503116 S    
C128  C132  1.385212 A    
H33   C113  1.080120 S    
C126  H46   1.075846 S    
C39   N7    1.423523 S    
C130  H50   1.048413 S    
O6    C2    1.262707 A    
C37   C38   1.493449 S    
O1    Cr1   2.085397 S    
C59   H11   1.075949 S    
C99   C100  1.382269 A    
C97   C98   1.396288 A    
C13   C104  1.475890 S    
O45   C21   1.326872 A    
C96   C98   1.365785 A    
O47   C23   1.276422 A    
C110  C134  1.409287 A    
C47   C63   1.476467 A    
H8    C56   1.077346 S    
C91   C92   1.426461 A    
N2    O55   1.300261 A    
C135  H55   1.083289 S    
C89   C90   1.390355 A    
C6    O18   1.298098 A    
C66   C72   1.373810 A    
C25   C26   1.572033 S    
O36   Cr8   2.075580 S    
C128  H48   1.082670 S    
C25   C34   1.548854 S    
N7    O66   1.299455 A    
C37   N5    1.423514 S    
C132  H52   1.082400 S    
C132  C136  1.398902 A    
C27   C36   1.548855 S    
C72   C76   1.370496 A    
C66   H14   1.080646 S    
O1    C9    1.289217 A    
C43   C59   1.400889 A    
C85   C86   1.405846 A    
O7    C3    1.258515 A    
C41   C57   1.400882 A    
C118  H42   1.080006 S    
N10   O71   1.302472 A    
N6    O64   1.299531 A    
C113  C137  1.414126 A    
C95   C97   1.377419 A    
C62   C68   1.407410 A    
N8    O67   1.300205 A    
C122  C126  1.368380 A    
O23   Cr11  1.955752 S    
C3    C42   1.472406 S    
C45   C49   1.446123 A    
C92   N4    1.437664 S    
C28   C35   1.549120 S    
C60   H12   1.076430 S    
O16   C8    1.269539 A    
C24   C140  1.484376 S    
C7    O19   1.299425 A    
N1    O53   1.295255 A    
Cr4   O52   1.993028 S    
N4    O60   1.302128 A    
O2    Cr2   2.097763 S    
O48   C24   1.327503 A    
C5    C33   1.456856 S    
Cr6   O50   2.029704 S    
C52   C80   1.419744 A    
C129  C133  1.385099 A    
C56   C60   1.359494 A    
C64   N12   1.458364 S    
C29   Br1   1.912118 S    
C33   C37   1.503527 S    
O9    Cr5   2.094921 S    
C64   C66   1.407462 A    
C113  C117  1.407034 A    
C124  H40   1.083547 S    
O7    Cr3   1.979138 S    
C103  C107  1.436038 A    
C16   C101  1.494751 S    
C25   H1    1.108778 S    
C8    C36   1.458116 S    
C26   C33   1.549121 S    
C105  C109  1.419420 A    
C123  C127  1.392210 A    
Cr2   O50   1.993028 S    
C42   C46   1.465815 A    
C53   C77   1.376456 A    
H5    C53   1.076949 S    
O14   Cr6   1.954643 S    
C51   C75   1.406318 A    
C69   H19   1.083008 S    
N5    O62   1.299459 A    
H7    C55   1.076979 S    
C49   C73   1.406355 A    
C83   C92   1.410539 A    
C38   N6    1.421665 S    
C81   C90   1.402706 A    
C28   H4    1.108486 S    
C4    C41   1.470087 S    
O38   C18   1.331488 A    
N3    O58   1.300750 A    
O25   Cr1   2.096480 S    
C125  H45   1.082584 S    
C72   H18   1.082924 S    
C97   H29   1.081063 S    
C95   H27   1.082644 S    
C129  H49   1.047777 S    
C14   O34   1.245513 A    
C6    C34   1.458156 S    
C103  C119  1.371142 A    
C101  C117  1.391251 A    
C105  C121  1.406167 A    
N9    O70   1.300477 A    
C34   C38   1.503367 S    
C119  H43   1.073473 S    
O10   Cr6   2.080529 S    
C65   C71   1.373378 A    
C109  C133  1.402638 A    
O4    Cr4   2.097763 S    
C100  H32   1.079852 S    
C27   C31   1.549238 S    
C102  C106  1.405209 A    
C134  H54   1.078893 S    
C21   C137  1.507470 S    
C26   H2    1.108500 S    
C2    C43   1.469965 S    
C48   C52   1.446442 A    
