data_mof_unit_41985.cif
_audit_creation_date              2013-03-05T16:42:22-0500
_audit_creation_method            fapswitch 2.2
_symmetry_space_group_name_H-M    P1
_symmetry_Int_Tables_number       1
_space_group_crystal_system       triclinic
_cell_length_a                    9.867528
_cell_length_b                    10.643848
_cell_length_c                    15.427252
_cell_angle_alpha                 90.902694
_cell_angle_beta                  66.693012
_cell_angle_gamma                 89.434355
_cell_volume                      1487.66754425

loop_
_atom_site_label
_atom_site_type_symbol
_atom_site_description
_atom_site_fract_x
_atom_site_fract_y
_atom_site_fract_z
_atom_type_partial_charge
O1    O     O_R   0.385310 0.683210 0.499990 -0.620399
O2    O     O_R   0.614650 0.683240 0.500000 -0.580905
C1    C     C_R   0.504120 0.739556 0.492314 0.911227
O3    O     O_R   0.319830 0.499970 0.632240 -0.569506
O4    O     O_R   0.549170 0.500000 0.632250 -0.576148
C2    C     C_R   0.407277 0.487382 0.676465 0.936971
Zn1   Zn    Zn3+2 0.346870 0.499980 0.499990 0.987570
Zn2   Zn    Zn3+2 0.653130 0.500020 0.500010 1.036987
O5    O     O_R   0.385350 0.316760 0.500000 -0.621626
O6    O     O_R   0.614690 0.316790 0.500010 -0.601108
O7    O     O_R   0.450830 0.500000 0.367750 -0.626483
O8    O     O_R   0.680170 0.500030 0.367760 -0.582264
C3    C     C_R   0.502653 0.259828 0.496441 0.905860
C4    C     C_R   0.593106 0.497645 0.323316 0.853522
C5    C     C_R   0.346329 0.457667 0.778943 -0.292728
C6    C     C_R   0.651693 0.469128 0.222204 -0.019490
C7    C     C_R   0.153048 0.491410 0.934351 -0.195548
C8    C     C_R   0.195040 0.475993 0.837296 0.266607
C9    C     C_R   0.442838 0.415112 0.820893 0.238454
C10   C     C_R   0.396462 0.423094 0.920879 -0.052628
C11   C     C_R   0.256094 0.479011 0.975117 -0.074820
C12   C     C_R   0.487985 0.386660 0.968423 0.090029
C13   C     C_R   0.461844 0.442332 0.057443 0.007330
C14   C     C_R   0.324227 0.501866 0.108471 -0.279630
C15   C     C_R   0.219464 0.516410 0.069882 0.330876
C16   C     C_R   0.599934 0.292934 0.933003 -0.077736
C17   C     C_R   0.701984 0.274404 0.973385 -0.163530
C18   C     C_R   0.691319 0.345290 0.052650 0.159023
C19   C     C_R   0.571063 0.430613 0.094997 0.116054
C20   C     C_R   0.793946 0.326855 0.093747 -0.213630
C21   C     C_R   0.771686 0.385881 0.179917 -0.137640
C22   C     C_R   0.561690 0.499393 0.175225 -0.221518
H1    H     H_    0.478526 0.571879 0.206700 0.153814
H2    H     H_    0.841610 0.359985 0.216219 0.175136
H3    H     H_    0.788568 0.203746 0.942963 0.168284
H4    H     H_    0.038153 0.511021 0.978088 0.228417
H5    H     H_    0.292258 0.533739 0.180636 0.183898
H6    H     H_    0.607633 0.230433 0.875390 0.196498
H7    H     H_    0.885412 0.260746 0.062568 0.155787
C23   C     C_R   0.382314 0.937609 0.491102 0.100897
C24   C     C_R   0.513078 0.870205 0.471631 -0.161166
C25   C     C_R   0.648847 0.933117 0.430819 0.185236
C26   C     C_R   0.646878 0.063938 0.437629 -0.223108
H8    H     H_    0.749817 0.114162 0.412962 0.172577
C27   C     C_R   0.510996 0.128156 0.479569 -0.126295
C28   C     C_R   0.381581 0.065122 0.495038 0.094022
C29   C     C_3   0.234685 0.073927 0.575690 -0.382948
C30   C     C_3   0.234127 0.931689 0.570572 -0.460348
H9    H     H_    0.241197 0.111829 0.641519 0.226731
H10   H     H_    0.149411 0.119085 0.555691 0.221891
H11   H     H_    0.237428 0.886219 0.634145 0.210694
H12   H     H_    0.150316 0.896487 0.545317 0.226163
C31   C     C_R   0.908638 0.604550 0.530355 0.223214
N1    N     N_R   0.856900 0.500860 0.500610 -0.104665
C32   C     C_R   0.953325 0.402682 0.460908 -0.039546
H13   H     H_    0.918541 0.323029 0.430917 0.136783
C33   C     C_R   0.097462 0.402967 0.460482 -0.082789
H14   H     H_    0.171331 0.323665 0.429873 0.142818
N2    N     N_R   0.142540 0.500820 0.500610 -0.092797
C34   C     C_R   0.049773 0.602362 0.533102 0.156248
C35   C     C_3   0.989429 0.652206 0.632116 -0.475739
C36   C     C_3   0.840276 0.664284 0.626473 -0.042482
H15   H     H_    0.991491 0.579207 0.681462 0.284402
H16   H     H_    0.036868 0.742198 0.641509 0.208082
H17   H     H_    0.753769 0.607298 0.677766 0.228241
N3    N     N_R   0.081511 0.578615 0.126026 0.198022
O9    O     O_R   0.018187 0.557535 0.216001 -0.405145
O10   O     O_R   0.035055 0.673420 0.092366 -0.363229
I1    I     I_    0.856838 0.842097 0.356502 -0.225756
I2    I     I_    0.773252 0.856458 0.626945 -0.300243
N4    N     N_R   0.081789 0.472457 0.800997 0.203439
O11   O     O_R   0.082962 0.381029 0.743638 -0.378386
O12   O     O_R   0.959299 0.535991 0.844467 -0.384502
N5    N     N_R   0.588377 0.369740 0.761040 0.195076
O13   O     O_R   0.705011 0.420645 0.765315 -0.378872
O14   O     O_R   0.604272 0.275780 0.702536 -0.381530

loop_
_geom_bond_atom_site_label_1
_geom_bond_atom_site_label_2
_geom_bond_distance
_ccdc_geom_bond_type
C5    C8    1.415033 A    
N3    O10   1.301457 A    
C32   H13   1.081534 S    
C24   C25   1.415325 A    
C9    C10   1.425654 A    
C29   H9    1.112434 S    
C31   N1    1.367421 A    
C6    C21   1.400890 A    
Zn1   O7    1.886343 S    
C16   C17   1.391910 A    
N5    O14   1.302253 A    
C13   C19   1.416472 A    
C18   C19   1.416419 A    
C5    C9    1.421029 A    
C19   C22   1.398544 A    
O4    C2    1.301745 A    
O7    C4    1.295655 A    
C33   N2    1.368438 A    
C36   I2    2.142529 S    
C23   C30   1.493598 S    
C35   H15   1.101918 S    
O5    C3    1.282507 A    
C2    C5    1.492742 S    
C28   C29   1.491461 S    
C30   H11   1.112266 S    
C13   C14   1.409479 A    
C7    H4    1.081545 S    
N3    O9    1.301444 A    
N2    C34   1.362943 A    
O3    Zn1   1.950146 S    
Zn1   N2    2.012397 S    
C31   C34   1.409928 A    
C14   H5    1.078028 S    
C29   H10   1.111913 S    
N5    O13   1.301426 A    
C14   C15   1.390593 A    
O3    C2    1.301718 A    
Zn2   N1    2.014494 S    
N4    O12   1.302341 A    
C16   H6    1.079468 S    
C17   H3    1.083843 S    
C27   C28   1.385155 A    
C25   I1    2.128141 S    
C7    C11   1.397446 A    
C34   C35   1.489236 S    
O1    C1    1.286234 A    
C35   H16   1.102619 S    
C23   C28   1.357452 A    
C26   H8    1.083325 S    
C31   C36   1.492772 S    
C29   C30   1.514948 S    
Zn2   O8    1.950142 S    
C7    C8    1.393001 A    
C21   H2    1.082849 S    
C26   C27   1.401823 A    
C23   C24   1.392153 A    
C10   C12   1.424844 A    
C32   C33   1.419718 A    
C4    C6    1.458630 S    
C25   C26   1.394115 A    
C8    N4    1.434989 S    
Zn1   O5    1.983118 S    
C11   C15   1.409650 A    
N1    C32   1.368031 A    
C1    C24   1.427418 S    
C36   H17   1.101621 S    
O1    Zn1   1.990488 S    
C9    N5    1.439156 S    
O2    Zn2   1.983118 S    
C15   N3    1.439699 S    
O8    C4    1.294151 A    
O6    C3    1.285756 A    
O4    Zn2   1.886343 S    
C6    C22   1.388822 A    
C22   H1    1.079274 S    
C18   C20   1.405013 A    
O2    C1    1.286298 A    
N4    O11   1.301823 A    
C3    C27   1.417031 S    
C33   H14   1.081517 S    
C20   C21   1.396443 A    
C20   H7    1.083668 S    
C35   C36   1.512691 S    
C30   H12   1.110230 S    
C10   C11   1.422593 A    
Zn2   O6    1.990488 S    
C12   C16   1.413326 A    
C17   C18   1.393984 A    
C12   C13   1.412348 A    
