data_mof_unit_9232.cif
_audit_creation_date              2012-12-10T17:35:44-0500
_audit_creation_method            fapswitch 2.2
_symmetry_space_group_name_H-M    P1
_symmetry_Int_Tables_number       1
_space_group_crystal_system       triclinic
_cell_length_a                    10.509216
_cell_length_b                    12.000956
_cell_length_c                    12.889714
_cell_angle_alpha                 93.575783
_cell_angle_beta                  90.304953
_cell_angle_gamma                 85.98636
_cell_volume                      1618.51404485

loop_
_atom_site_label
_atom_site_type_symbol
_atom_type_description
_atom_site_fract_x
_atom_site_fract_y
_atom_site_fract_z
_atom_type_partial_charge
C1    C     C_R   0.499196 0.522238 0.700404 0.900133
C2    C     C_R   0.500803 0.477762 0.299596 0.900133
C3    C     C_R   0.532188 0.442706 0.867196 -0.262750
C4    C     C_R   0.467806 0.557294 0.132805 -0.262750
C5    C     C_R   0.521704 0.448141 0.974095 0.120372
C6    C     C_R   0.478288 0.551858 0.025905 0.120374
C7    C     C_R   0.392004 0.952720 0.392863 0.115443
C8    C     C_R   0.608036 0.047283 0.607113 0.115451
C9    C     C_R   0.401693 0.836706 0.405246 0.007116
C10   C     C_R   0.598338 0.163295 0.594732 0.007132
C11   C     C_R   0.544189 0.858560 0.546843 -0.065126
C12   C     C_R   0.455803 0.141443 0.453163 -0.065122
C13   C     C_R   0.538690 0.976142 0.539186 0.023859
C14   C     C_R   0.461320 0.023861 0.460812 0.023854
C15   C     C_R   0.742551 0.499910 0.500546 0.882313
C16   C     C_R   0.257449 0.500090 0.499454 0.882312
C17   C     C_3   0.967786 0.394607 0.512777 -0.186190
C18   C     C_3   0.032214 0.605393 0.487223 -0.186188
C19   C     C_3   0.044989 0.465991 0.589802 0.042516
C20   C     C_3   0.955011 0.534009 0.410198 0.042517
C21   C     C_3   0.122628 0.500778 0.499456 -0.031272
C22   C     C_3   0.877372 0.499222 0.500544 -0.031273
C23   C     C_3   0.047250 0.430123 0.420941 -0.229818
C24   C     C_3   0.952750 0.569877 0.579059 -0.229818
C25   C     C_R   0.502238 0.464093 0.188251 -0.106917
C26   C     C_R   0.497758 0.535907 0.811749 -0.106918
C27   C     C_R   0.447240 0.647902 0.969675 0.213015
C28   C     C_R   0.552751 0.352097 0.030325 0.213008
C29   C     C_R   0.457403 0.638329 0.862066 -0.200430
C30   C     C_R   0.542590 0.361671 0.137934 -0.200429
H1    H     H_    0.938058 0.309219 0.524167 0.155258
H2    H     H_    0.061942 0.690781 0.475833 0.155260
H3    H     H_    0.089942 0.374360 0.356422 0.145701
H4    H     H_    0.910058 0.625640 0.643578 0.145704
H5    H     H_    0.434055 0.634843 0.174149 0.179276
H6    H     H_    0.565940 0.365157 0.825852 0.179283
H7    H     H_    0.568565 0.289979 0.182708 0.163703
H8    H     H_    0.431429 0.710020 0.817292 0.163702
H9    H     H_    0.397345 0.181336 0.394943 0.151853
H10   H     H_    0.602631 0.818674 0.605075 0.151852
H11   H     H_    0.650326 0.218974 0.645860 0.132071
H12   H     H_    0.349736 0.781025 0.354095 0.132071
N1    N     N_R   0.523490 0.207800 0.519350 -0.122318
N2    N     N_R   0.476510 0.792200 0.480650 -0.122311
O1    O     O_R   0.506270 0.421700 0.658830 -0.625292
O2    O     O_R   0.493730 0.578300 0.341170 -0.625298
O3    O     O_R   0.491200 0.609310 0.646410 -0.631749
O4    O     O_R   0.508800 0.390690 0.353590 -0.631745
O5    O     O_R   0.693580 0.406210 0.506230 -0.630265
O6    O     O_R   0.306420 0.593790 0.493770 -0.630257
O7    O     O_R   0.678510 0.593830 0.493810 -0.615935
O8    O     O_R   0.321490 0.406170 0.506190 -0.615942
Zn1   Zn    Zn3+2 0.510060 0.374730 0.508290 0.944006
Zn2   Zn    Zn3+2 0.489940 0.625270 0.491710 0.944010
C31   C     C_1   0.098929 0.429142 0.688266 0.148464
N3    N     N_1   0.141713 0.400178 0.765810 -0.196985
C32   C     C_1   0.901070 0.570859 0.311734 0.148467
N4    N     N_1   0.858286 0.599824 0.234191 -0.196986
C33   C     C_3   0.402571 0.760102 0.021699 -0.939721
H13   H     H_    0.383841 0.824845 0.964515 0.244674
H14   H     H_    0.312518 0.752725 0.064624 0.241673
H15   H     H_    0.476810 0.789690 0.076377 0.249038
C34   C     C_3   0.597418 0.239897 0.978301 -0.939707
H16   H     H_    0.616146 0.175153 0.035485 0.244670
H17   H     H_    0.523178 0.210311 0.923623 0.249039
H18   H     H_    0.687471 0.247272 0.935376 0.241674
C35   C     C_3   0.308674 0.997680 0.307280 -0.955500
H19   H     H_    0.367071 0.041108 0.252976 0.248428
H20   H     H_    0.262747 0.929785 0.261699 0.243919
H21   H     H_    0.232052 0.057201 0.341086 0.247421
C36   C     C_3   0.691441 0.002326 0.692645 -0.955516
H22   H     H_    0.768073 0.942848 0.658790 0.247435
H23   H     H_    0.737365 0.070225 0.738222 0.243907
H24   H     H_    0.633119 0.958853 0.746965 0.248421

loop_
_geom_bond_atom_site_label_1
_geom_bond_atom_site_label_2
_ccdc_geom_bond_type
C31   N3    T    
C34   H17   S    
C16   C21   S    
C27   C29   A    
C18   C21   S    
C4    C25   A    
C2    O2    A    
C9    H12   S    
O6    Zn2   S    
C18   C24   S    
C19   C21   S    
C16   O6    A    
C12   N1    A    
C5    C6    A    
C23   H3    S    
N1    Zn1   S    
C15   C22   S    
C9    N2    A    
C29   H8    S    
C15   O7    A    
C4    H5    S    
O1    Zn1   S    
C33   H13   S    
C13   C14   A    
C10   H11   S    
C7    C14   A    
O4    Zn1   S    
C33   H14   S    
C35   H19   S    
C4    C6    A    
C36   H23   S    
C1    O3    A    
C33   H15   S    
C2    O4    A    
C24   H4    S    
C30   H7    S    
C35   H20   S    
C28   C34   S    
C5    C28   A    
C6    C27   A    
C20   C23   S    
O2    Zn2   S    
C11   N2    A    
C17   C23   S    
O3    Zn2   S    
C20   C22   S    
C21   C23   S    
C1    C26   S    
C17   H1    S    
C22   C24   S    
C18   H2    S    
O8    Zn1   S    
C19   C31   S    
C25   C30   A    
C7    C9    A    
C8    C36   S    
C10   N1    A    
C3    C26   A    
C16   O8    A    
C12   C14   A    
C3    C5    A    
C36   H24   S    
C17   C22   S    
O7    Zn2   S    
C35   H21   S    
C12   H9    S    
C28   C30   A    
C19   C24   S    
C36   H22   S    
C27   C33   S    
C11   C13   A    
C1    O1    A    
C32   N4    T    
C3    H6    S    
O5    Zn1   S    
C17   C19   S    
C2    C25   S    
C18   C20   S    
C15   O5    A    
C11   H10   S    
C34   H18   S    
C7    C35   S    
C34   H16   S    
C8    C13   A    
N2    Zn2   S    
C26   C29   A    
C8    C10   A    
C20   C32   S    
