data_mof_unit_41176.cif
_audit_creation_date              2012-12-10T20:45:28-0500
_audit_creation_method            fapswitch 2.2
_symmetry_space_group_name_H-M    P1
_symmetry_Int_Tables_number       1
_space_group_crystal_system       triclinic
_cell_length_a                    10.720209
_cell_length_b                    10.655044
_cell_length_c                    9.841821
_cell_angle_alpha                 88.162224
_cell_angle_beta                  89.487964
_cell_angle_gamma                 91.859542
_cell_volume                      1122.94913937

loop_
_atom_site_label
_atom_site_type_symbol
_atom_type_description
_atom_site_fract_x
_atom_site_fract_y
_atom_site_fract_z
_atom_type_partial_charge
C1    C     C_R   0.508661 0.260124 0.501511 0.897416
C2    C     C_R   0.230843 0.816749 0.073437 -0.072106
C3    C     C_R   0.935177 0.562020 0.390054 -0.232550
C4    C     C_R   0.872959 0.502478 0.501047 -0.088980
C5    C     C_R   0.937659 0.463340 0.617928 0.005869
C6    C     C_R   0.064373 0.482708 0.619084 -0.242335
C7    C     C_R   0.128437 0.527528 0.502645 -0.098994
C8    C     C_R   0.063930 0.577638 0.390026 0.014905
C9    C     C_R   0.880733 0.452131 0.865674 -0.160298
C10   C     C_R   0.827019 0.388408 0.979244 -0.145484
C11   C     C_R   0.772177 0.268643 0.966436 -0.085004
C12   C     C_R   0.260786 0.511671 0.500166 0.872344
C13   C     C_R   0.771394 0.212236 0.840153 -0.107089
C14   C     C_R   0.823660 0.276142 0.725946 -0.091718
C15   C     C_R   0.878592 0.396704 0.738008 0.161160
C16   C     C_R   0.545906 0.060285 0.622732 0.075340
C17   C     C_R   0.542177 0.131279 0.502502 -0.155530
C18   C     C_R   0.573402 0.075627 0.380148 -0.196401
C19   C     C_R   0.572095 0.945163 0.373165 -0.011924
C20   C     C_R   0.541001 0.873074 0.493923 -0.203456
C21   C     C_R   0.546525 0.932265 0.618556 0.147163
C22   C     C_3   0.464268 0.915268 0.741776 -0.461642
C23   C     C_R   0.509794 0.740671 0.497428 0.858429
C24   C     C_3   0.460689 0.056696 0.742990 -0.427536
C25   C     C_R   0.434653 0.409317 0.075968 0.224941
C26   C     C_R   0.576167 0.580406 0.068300 -0.152914
C27   C     C_R   0.574923 0.581682 0.924187 -0.090742
C28   C     C_R   0.436213 0.406297 0.933082 0.143778
C29   C     C_3   0.297566 0.376348 0.934430 -0.366756
C30   C     C_3   0.298643 0.385106 0.088651 -0.498457
C31   C     C_R   0.740085 0.497686 0.499962 0.863513
C32   C     C_R   0.260895 0.835513 0.209249 -0.122805
C33   C     C_R   0.208929 0.756053 0.312039 -0.094060
C34   C     C_R   0.124938 0.657468 0.279881 0.131796
C35   C     C_R   0.091802 0.642443 0.143097 -0.193638
C36   C     C_R   0.146185 0.720365 0.040384 -0.141024
H1    H     H_    0.272164 0.877663 0.993989 0.172332
H2    H     H_    0.730897 0.219296 0.054473 0.156660
H3    H     H_    0.731149 0.118551 0.831014 0.146561
H4    H     H_    0.822415 0.231472 0.628608 0.115953
H5    H     H_    0.585821 0.132397 0.287234 0.190737
H6    H     H_    0.371987 0.869683 0.720345 0.206528
H7    H     H_    0.514304 0.873930 0.830105 0.209335
H8    H     H_    0.368035 0.090288 0.714561 0.254295
H9    H     H_    0.503960 0.097972 0.834201 0.216426
H10   H     H_    0.637586 0.645281 0.119750 0.150644
H11   H     H_    0.323712 0.912384 0.235063 0.133968
H12   H     H_    0.633630 0.649110 0.866751 0.150253
H13   H     H_    0.243768 0.451696 0.884500 0.151543
H14   H     H_    0.250915 0.467892 0.125250 0.218404
H15   H     H_    0.275982 0.297586 0.149509 0.231806
H16   H     H_    0.232351 0.772992 0.416836 0.100592
H17   H     H_    0.026389 0.568251 0.115608 0.126774
H18   H     H_    0.122256 0.706281 0.935213 0.133903
H19   H     H_    0.882677 0.601473 0.306146 0.160513
H20   H     H_    0.112851 0.456180 0.710163 0.155559
H21   H     H_    0.923068 0.544870 0.876738 0.119888
H22   H     H_    0.827810 0.431831 0.077188 0.137031
N1    N     N_R   0.499160 0.499140 0.142800 -0.110011
N2    N     N_R   0.499160 0.499180 0.857150 -0.110730
O1    O     O_R   0.500020 0.316790 0.614690 -0.617911
O2    O     O_R   0.500000 0.316760 0.385350 -0.621602
O3    O     O_R   0.316770 0.500030 0.614670 -0.646115
O4    O     O_R   0.316750 0.499990 0.385330 -0.605434
O5    O     O_R   0.500000 0.683240 0.614650 -0.610966
O6    O     O_R   0.499980 0.683210 0.385310 -0.643413
O7    O     O_R   0.683250 0.500010 0.614670 -0.612919
O8    O     O_R   0.683230 0.499970 0.385330 -0.630804
Zn1   Zn    Zn3+2 0.500010 0.500020 0.653130 0.943518
Zn2   Zn    Zn3+2 0.499990 0.499980 0.346870 0.941547
C37   C     C_2   0.592663 0.892945 0.237174 0.364814
H23   H     H_    0.533982 0.817649 0.200006 0.099319
O9    O     O_2   0.673708 0.939013 0.161233 -0.594010
C38   C     C_2   0.261935 0.244547 0.890648 0.972482
O10   O     O_2   0.280983 0.153509 0.965425 -0.620840
O11   O     O_R   0.202893 0.224232 0.767265 -0.801593
H24   H     H_    0.224223 0.292229 0.696734 0.309750

loop_
_geom_bond_atom_site_label_1
_geom_bond_atom_site_label_2
_ccdc_geom_bond_type
C27   H12   S    
C30   H15   S    
C16   C21   A    
C35   H17   S    
C19   C37   S    
C35   C36   A    
C1    O2    A    
C7    C8    A    
C29   H13   S    
C33   H16   S    
C31   O7    A    
C26   C27   A    
C38   O11   S    
C24   H9    S    
C23   O6    A    
C28   C29   S    
C10   H22   S    
C34   C35   A    
C27   N2    A    
C5    C6    A    
C12   O4    A    
O1    Zn1   S    
O2    Zn2   S    
C2    C32   A    
C18   C19   A    
C3    H19   S    
C19   C20   A    
C16   C17   A    
O4    Zn2   S    
C26   N1    A    
C30   H14   S    
C16   C24   S    
C21   C22   S    
C31   O8    A    
C17   C18   A    
C28   N2    A    
C7    C12   S    
C5    C15   S    
C38   O10   D    
O3    Zn1   S    
O11   H24   S    
C3    C8    A    
C18   H5    S    
C37   O9    D    
C12   O3    A    
C29   C38   S    
O7    Zn1   S    
C11   H2    S    
C29   C30   S    
C22   H7    S    
C20   C23   S    
C33   C34   A    
C8    C34   S    
C24   H8    S    
C32   H11   S    
C22   C24   S    
C25   C28   A    
C3    C4    A    
C9    C10   A    
C2    C36   A    
C25   C30   S    
C6    H20   S    
C4    C5    A    
C1    O1    A    
C6    C7    A    
O6    Zn2   S    
C1    C17   S    
C32   C33   A    
C23   O5    A    
C9    C15   A    
C37   H23   S    
C11   C13   A    
C2    H1    S    
C22   H6    S    
N2    Zn1   S    
O5    Zn1   S    
C9    H21   S    
C13   H3    S    
C4    C31   S    
C36   H18   S    
C10   C11   A    
C26   H10   S    
N1    Zn2   S    
C14   H4    S    
C20   C21   A    
O8    Zn2   S    
C14   C15   A    
C25   N1    A    
C13   C14   A    
