data_mof_unit_45118.cif
_audit_creation_date              2012-10-26T19:24:11-0400
_audit_creation_method            fapswitch 2.2
_symmetry_space_group_name_H-M    P1
_symmetry_Int_Tables_number       1
_space_group_crystal_system       triclinic
_cell_length_a                    27.810867
_cell_length_b                    10.842044
_cell_length_c                    9.593603
_cell_angle_alpha                 88.979596
_cell_angle_beta                  90.179788
_cell_angle_gamma                 95.601059
_cell_volume                      2878.45647105

loop_
_atom_site_label
_atom_site_type_symbol
_atom_type_description
_atom_site_fract_x
_atom_site_fract_y
_atom_site_fract_z
_atom_type_partial_charge
C1    C     C_R   0.497170 0.261882 0.501134 0.551207
C2    C     C_R   0.971074 0.373869 0.505579 0.008274
C3    C     C_R   0.977226 0.600982 0.476874 0.019673
C4    C     C_R   0.407511 0.499959 0.499912 0.537121
C5    C     C_R   0.948646 0.485095 0.490259 -0.045700
C6    C     C_R   0.942182 0.258858 0.493132 0.230013
C7    C     C_R   0.891545 0.254486 0.492982 -0.007135
C8    C     C_R   0.868534 0.365609 0.493494 -0.026933
C9    C     C_R   0.897482 0.480704 0.488842 -0.065921
C10   C     C_R   0.875238 0.592155 0.483691 -0.014123
C11   C     C_R   0.824796 0.588004 0.484118 0.420529
C12   C     C_R   0.278853 0.511139 0.374426 0.324961
C13   C     C_R   0.817555 0.367084 0.495234 0.404211
C14   C     C_R   0.719552 0.483547 0.367146 0.025434
C15   C     C_R   0.669647 0.488815 0.371780 -0.193876
C16   C     C_R   0.494602 0.735515 0.498290 0.551510
C17   C     C_R   0.671335 0.471289 0.624912 0.248608
C18   C     C_R   0.721538 0.469415 0.619625 -0.037763
C19   C     C_R   0.745695 0.475880 0.491814 0.185080
C20   C     C_R   0.021767 0.381766 0.529180 -0.025374
C21   C     C_R   0.050431 0.493615 0.497325 -0.004434
C22   C     C_R   0.028085 0.601288 0.461187 0.014459
C23   C     C_R   0.253604 0.502584 0.501764 0.242222
C24   C     C_R   0.044512 0.282679 0.587776 -0.098428
C25   C     C_R   0.107341 0.708314 0.404630 -0.024705
C26   C     C_R   0.953742 0.711759 0.483207 0.244187
C27   C     C_R   0.903533 0.705891 0.482116 -0.076460
C28   C     C_R   0.592362 0.495580 0.500435 0.565545
C29   C     C_R   0.057101 0.704224 0.406455 -0.122223
C30   C     C_R   0.437186 0.109295 0.707939 -0.086337
C31   C     C_R   0.412046 0.037241 0.810560 -0.095746
C32   C     C_R   0.411868 0.909339 0.810695 -0.092824
C33   C     C_R   0.436288 0.852614 0.707077 -0.077970
C34   C     C_R   0.101637 0.497389 0.500673 -0.089181
C35   C     C_R   0.463712 0.923752 0.604294 0.001408
C36   C     C_R   0.464824 0.054861 0.605992 -0.015002
C37   C     C_R   0.491615 0.126397 0.501448 -0.016109
C38   C     C_R   0.510033 0.067560 0.386341 0.236831
C39   C     C_R   0.501327 0.940481 0.374467 -0.020471
C40   C     C_R   0.174530 0.396527 0.546268 0.391724
C41   C     C_R   0.486301 0.867465 0.492729 -0.064811
C42   C     C_R   0.579988 0.644355 0.130831 -0.017620
C43   C     C_R   0.620370 0.683495 0.045676 -0.069257
C44   C     C_R   0.614107 0.693006 0.903203 -0.027957
C45   C     C_R   0.123803 0.392425 0.548585 0.025396
C46   C     C_R   0.570569 0.648426 0.846071 -0.047584
C47   C     C_R   0.535455 0.573312 0.922290 0.116773
C48   C     C_R   0.537324 0.572652 0.072203 0.089480
C49   C     C_R   0.465648 0.429742 0.076253 0.404687
C50   C     C_R   0.466533 0.429156 0.926873 0.007491
C51   C     C_R   0.181346 0.605900 0.461919 0.437062
C52   C     C_R   0.278933 0.492549 0.627253 -0.104704
C53   C     C_R   0.328975 0.491329 0.626635 -0.167350
C54   C     C_R   0.329231 0.513150 0.374674 -0.121996
C55   C     C_1   0.133242 0.819382 0.346103 0.276682
C56   C     C_R   0.094643 0.287287 0.599163 0.270435
C57   C     C_3   0.987378 0.850121 0.638507 -0.092141
C58   C     C_3   0.640512 0.340463 0.796264 -0.088927
C59   C     C_3   0.583486 0.146469 0.305926 -0.084962
C60   C     C_3   0.242547 0.406435 0.194487 -0.113228
C61   C     C_1   0.503848 0.891295 0.235481 0.289725
C62   C     C_3   0.386283 0.341266 0.095145 -0.137633
C63   C     C_1   0.584223 0.709069 0.261303 0.287518
C64   C     C_1   0.666968 0.729225 0.105018 0.212307
C65   C     C_1   0.651370 0.752946 0.812919 0.248529
C66   C     C_3   0.113929 0.190700 0.800326 -0.086744
C67   C     C_R   0.130504 0.605774 0.455899 0.006086
C68   C     C_1   0.743587 0.486743 0.233899 0.262497
C69   C     C_1   0.864694 0.133085 0.488527 0.320954
C70   C     C_3   0.974642 0.138973 0.333357 -0.095604
C71   C     C_R   0.354589 0.501308 0.500277 -0.039238
C72   C     C_R   0.645096 0.486173 0.500033 0.000521
Cu1   Cu    Cu3+1 0.500000 0.499990 0.640660 0.926310
Cu2   Cu    Cu3+1 0.500000 0.500010 0.359340 1.044323
H1    H     H_    0.348291 0.524062 0.276436 0.141406
H2    H     H_    0.566812 0.670990 0.739084 0.195834
H3    H     H_    0.440222 0.370138 0.869850 0.098127
H4    H     H_    0.650064 0.495346 0.274589 0.135267
H5    H     H_    0.023874 0.201778 0.631475 0.180207
H6    H     H_    0.347549 0.482593 0.725204 0.131308
H7    H     H_    0.009453 0.780307 0.686635 0.117510
H8    H     H_    0.952844 0.852419 0.696325 0.131995
H9    H     H_    0.008052 0.942392 0.648348 0.173384
H10   H     H_    0.675142 0.299294 0.814895 0.128803
H11   H     H_    0.617907 0.284892 0.719349 0.125075
H12   H     H_    0.259698 0.485469 0.725496 0.135390
H13   H     H_    0.620434 0.335859 0.896287 0.150061
H14   H     H_    0.597908 0.054213 0.308170 0.138938
H15   H     H_    0.592027 0.195406 0.405389 0.104438
H16   H     H_    0.602235 0.202685 0.220952 0.144477
H17   H     H_    0.218522 0.346760 0.266066 0.152701
H18   H     H_    0.275463 0.360393 0.170021 0.095103
H19   H     H_    0.222537 0.417125 0.095483 0.142932
H20   H     H_    0.383140 0.272004 0.011096 0.099576
H21   H     H_    0.375706 0.432322 0.056488 0.090552
H22   H     H_    0.360238 0.306974 0.177602 0.146543
H23   H     H_    0.886882 0.792148 0.483637 0.198991
H24   H     H_    0.076270 0.181898 0.840752 0.083331
H25   H     H_    0.134139 0.277601 0.837902 0.123380
H26   H     H_    0.132016 0.111775 0.843958 0.162340
H27   H     H_    0.002030 0.215025 0.298968 0.116435
H28   H     H_    0.941883 0.137494 0.266190 0.122698
H29   H     H_    0.990577 0.050176 0.319091 0.181489
H30   H     H_    0.741890 0.463128 0.715529 0.150870
H31   H     H_    0.041043 0.780852 0.357602 0.176381
H32   H     H_    0.432453 0.206631 0.706907 0.132000
H33   H     H_    0.391293 0.080527 0.887767 0.114526
H34   H     H_    0.391047 0.853407 0.888080 0.126124
H35   H     H_    0.430746 0.752822 0.705085 0.152507
N1    N     N_R   0.201886 0.501844 0.503699 -0.400631
N2    N     N_1   0.762855 0.489303 0.126998 -0.265996
N3    N     N_1   0.843506 0.035836 0.484910 -0.203040
N4    N     N_R   0.797296 0.476899 0.490004 -0.391697
N5    N     N_R   0.500460 0.501210 0.147910 -0.225643
N6    N     N_R   0.500480 0.501290 0.852040 -0.275264
N7    N     N_1   0.153742 0.908497 0.299162 -0.238237
N8    N     N_1   0.505205 0.854043 0.123375 -0.302679
N9    N     N_1   0.591541 0.764340 0.362777 -0.304061
N10   N     N_1   0.703898 0.765691 0.152112 -0.221306
N11   N     N_1   0.681100 0.800593 0.740594 -0.226833
O1    O     O_R   0.500000 0.319640 0.618810 -0.530296
O2    O     O_R   0.569730 0.499970 0.618800 -0.471602
O3    O     O_R   0.569740 0.499990 0.381230 -0.523706
O4    O     O_2   0.196640 0.295674 0.584042 -0.444906
O5    O     O_3   0.978897 0.827421 0.495865 -0.582256
O6    O     O_3   0.648727 0.465699 0.753169 -0.556648
O7    O     O_3   0.533432 0.135213 0.278102 -0.529896
O8    O     O_3   0.254604 0.524893 0.250094 -0.537964
O9    O     O_3   0.433118 0.350718 0.153480 -0.516173
O10   O     O_3   0.114703 0.184975 0.653598 -0.507664
O11   O     O_3   0.962868 0.148976 0.475363 -0.580117
O12   O     O_2   0.788161 0.260640 0.502286 -0.479026
O13   O     O_2   0.210363 0.708918 0.427774 -0.438468
O14   O     O_2   0.803204 0.694281 0.479357 -0.450822
O15   O     O_R   0.500000 0.319660 0.381240 -0.400111
O16   O     O_R   0.430260 0.500010 0.618770 -0.532144
O17   O     O_R   0.430270 0.500030 0.381200 -0.467618
O18   O     O_R   0.500000 0.680340 0.618760 -0.535529
O19   O     O_R   0.500000 0.680360 0.381190 -0.493666

loop_
_geom_bond_atom_site_label_1
_geom_bond_atom_site_label_2
_ccdc_geom_bond_type
C10   C27   A    
C58   H11   S    
C8    C13   A    
C22   C29   A    
C62   H22   S    
Cu1   Cu2   S    
C35   C36   A    
C25   C67   A    
C58   H13   S    
C51   C67   A    
C46   H2    S    
C38   O7    S    
C70   H27   S    
C7    C8    A    
C39   C41   A    
C2    C6    A    
C47   N6    A    
C15   C72   A    
C12   C23   A    
C26   C27   A    
C64   N10   T    
C21   C22   A    
C36   C37   A    
C18   C19   A    
C57   O5    S    
C30   C31   A    
C69   N3    T    
C28   O2    A    
C17   O6    S    
C15   H4    S    
C55   N7    T    
C19   N4    S    
C59   O7    S    
Cu2   N5    S    
C50   N6    A    
C59   H15   S    
C66   H26   S    
C2    C20   A    
C59   H14   S    
C4    O17   A    
C65   N11   T    
C13   N4    A    
C54   C71   A    
C20   C24   A    
C45   C56   A    
C8    C9    A    
C68   N2    T    
C57   H9    S    
C9    C10   A    
C1    C37   S    
C4    O16   A    
C60   H19   S    
Cu2   O3    S    
C12   C54   A    
C62   H21   S    
C30   H32   S    
C62   O9    S    
C29   H31   S    
C44   C65   S    
C28   C72   S    
C39   C61   S    
C44   C46   A    
C43   C64   S    
C60   H18   S    
C25   C29   A    
C40   C45   A    
C40   O4    S    
Cu2   O17   S    
C28   O3    A    
C61   N8    T    
C47   C48   A    
C60   O8    S    
C53   H6    S    
C11   O14   S    
C63   N9    T    
C70   H29   S    
C18   H30   S    
C21   C34   A    
C49   O9    S    
C59   H16   S    
C66   H25   S    
C43   C44   A    
C5    C9    A    
C37   C38   A    
C58   H10   S    
C24   H5    S    
C31   C32   A    
Cu1   O16   S    
Cu2   O15   S    
C17   C18   A    
C34   C45   A    
C42   C48   A    
C35   C41   A    
C58   O6    S    
C51   N1    A    
Cu1   O1    S    
C62   H20   S    
C32   H34   S    
C57   H7    S    
C16   O19   A    
C33   H35   S    
C42   C43   A    
C53   C71   A    
C50   H3    S    
C52   C53   A    
C48   N5    A    
C60   H17   S    
C23   N1    S    
C46   C47   A    
C27   H23   S    
C57   H8    S    
C31   H33   S    
C14   C19   A    
Cu1   O2    S    
C3    C26   A    
C16   O18   A    
C25   C55   S    
C6    O11   S    
C3    C5    A    
C34   C67   A    
C7    C69   S    
C40   N1    A    
C70   H28   S    
C6    C7    A    
C12   O8    S    
C24   C56   A    
Cu2   O19   S    
Cu1   N6    S    
C30   C36   A    
C32   C33   A    
C66   H24   S    
C52   H12   S    
C51   O13   S    
C23   C52   A    
C38   C39   A    
C16   C41   S    
C70   O11   S    
C33   C35   A    
C13   O12   S    
C49   N5    A    
C11   N4    A    
C1    O1    A    
C10   C11   A    
C54   H1    S    
C2    C5    A    
C20   C21   A    
C17   C72   A    
C49   C50   A    
Cu1   O18   S    
C14   C68   S    
C14   C15   A    
C3    C22   A    
C1    O15   A    
C42   C63   S    
C26   O5    S    
C4    C71   S    
C56   O10   S    
C66   O10   S    
