data_mof_unit_59107.cif
_audit_creation_date              2012-12-10T21:26:03-0500
_audit_creation_method            fapswitch 2.2
_symmetry_space_group_name_H-M    P1
_symmetry_Int_Tables_number       1
_space_group_crystal_system       triclinic
_cell_length_a                    8.579697
_cell_length_b                    16.271373
_cell_length_c                    16.615779
_cell_angle_alpha                 88.339052
_cell_angle_beta                  93.607872
_cell_angle_gamma                 101.002945
_cell_volume                      2272.12545953

loop_
_atom_site_label
_atom_site_type_symbol
_atom_type_description
_atom_site_fract_x
_atom_site_fract_y
_atom_site_fract_z
_atom_type_partial_charge
C1    C     C_R   0.503374 0.489854 0.653647 0.924870
C2    C     C_R   0.496626 0.510146 0.346353 0.924870
C3    C     C_R   0.402926 0.756285 0.471359 0.050879
C4    C     C_R   0.597074 0.243715 0.528641 0.050879
C5    C     C_R   0.411411 0.843465 0.474940 -0.253749
C6    C     C_R   0.588590 0.156535 0.525060 -0.253749
C7    C     C_R   0.539918 0.895255 0.515378 0.242231
C8    C     C_R   0.460083 0.104745 0.484622 0.242230
C9    C     C_R   0.658768 0.856892 0.554190 -0.194177
C10   C     C_R   0.341233 0.143108 0.445810 -0.194177
C11   C     C_R   0.646292 0.768092 0.550837 -0.013449
C12   C     C_R   0.353708 0.231908 0.449163 -0.013450
C13   C     C_R   0.800687 0.521772 0.501806 0.983518
C14   C     C_R   0.199313 0.478228 0.498194 0.983519
C15   C     C_2   0.967042 0.532999 0.505644 -0.354133
C16   C     C_2   0.032958 0.467001 0.494356 -0.354133
C17   C     C_R   0.526710 0.486998 0.741446 -0.085924
C18   C     C_R   0.473290 0.513001 0.258553 -0.085924
C19   C     C_R   0.564267 0.562351 0.783308 -0.198028
C20   C     C_R   0.435732 0.437649 0.216692 -0.198029
C21   C     C_R   0.596650 0.562621 0.866192 -0.066449
C22   C     C_R   0.403349 0.437379 0.133807 -0.066449
C23   C     C_R   0.577140 0.485249 0.908724 0.217021
C24   C     C_R   0.422859 0.514751 0.091276 0.217020
C25   C     C_R   0.551881 0.409139 0.866924 -0.060178
C26   C     C_R   0.448117 0.590860 0.133076 -0.060178
C27   C     C_R   0.525258 0.410842 0.782997 -0.208527
C28   C     C_R   0.474741 0.589158 0.217002 -0.208527
H1    H     H_    0.034895 0.594960 0.519212 0.198225
H2    H     H_    0.965105 0.405039 0.480788 0.198225
H3    H     H_    0.682013 0.129030 0.555688 0.222715
H4    H     H_    0.317988 0.870970 0.444312 0.222715
N1    N     N_2   0.556469 0.483027 0.992071 -0.106504
N2    N     N_2   0.443529 0.516972 0.007928 -0.106504
N3    N     N_R   0.519180 0.718290 0.509780 -0.164539
N4    N     N_R   0.480820 0.281710 0.490220 -0.164538
N5    N     N_2   0.552403 0.984807 0.520014 -0.114535
N6    N     N_2   0.447598 0.015193 0.479986 -0.114536
O1    O     O_R   0.493140 0.422050 0.612640 -0.582473
O2    O     O_R   0.506860 0.577950 0.387360 -0.582473
O3    O     O_R   0.505450 0.562230 0.618920 -0.602414
O4    O     O_R   0.494550 0.437770 0.381080 -0.602413
O5    O     O_R   0.723530 0.446300 0.497600 -0.614000
O6    O     O_R   0.276470 0.553700 0.502400 -0.614000
O7    O     O_R   0.735850 0.586490 0.503880 -0.620369
O8    O     O_R   0.264150 0.413510 0.496120 -0.620369
Zn1   Zn    Zn3+2 0.491780 0.406400 0.495810 1.014553
Zn2   Zn    Zn3+2 0.508220 0.593600 0.504190 1.014553
H5    H     H_    0.429436 0.378442 0.248706 0.245922
H6    H     H_    0.570563 0.621557 0.751294 0.245923
C29   C     C_2   0.348916 0.355936 0.092827 0.992057
O9    O     O_2   0.276372 0.353240 0.026887 -0.591010
O10   O     O_R   0.376515 0.281703 0.130687 -0.771823
H7    H     H_    0.332994 0.230517 0.097021 0.368040
C30   C     C_2   0.651083 0.644063 0.907173 0.992058
O11   O     O_2   0.723628 0.646760 0.973113 -0.591010
O12   O     O_R   0.623485 0.718296 0.869314 -0.771823
H8    H     H_    0.667007 0.769482 0.902979 0.368039
C31   C     C_2   0.550329 0.327674 0.910043 0.989334
O13   O     O_2   0.485590 0.262293 0.877833 -0.591987
O14   O     O_R   0.626390 0.325218 0.986790 -0.768944
H9    H     H_    0.617919 0.266117 0.009477 0.365901
C32   C     C_2   0.449670 0.672326 0.089957 0.989333
O15   O     O_2   0.514408 0.737707 0.122167 -0.591987
O16   O     O_R   0.373608 0.674781 0.013209 -0.768944
H10   H     H_    0.382080 0.733882 0.990522 0.365901
H11   H     H_    0.502901 0.352837 0.750103 0.220041
H12   H     H_    0.497098 0.647162 0.249897 0.220041
C33   C     C_2   0.734388 0.290024 0.577325 0.932687
O17   O     O_2   0.716274 0.340833 0.626631 -0.601872
O18   O     O_R   0.884338 0.269474 0.572058 -0.785292
H13   H     H_    0.968535 0.303293 0.609759 0.352891
C34   C     C_2   0.265612 0.709976 0.422675 0.932686
O19   O     O_2   0.283726 0.659166 0.373369 -0.601872
O20   O     O_R   0.115662 0.730526 0.427941 -0.785290
H14   H     H_    0.031465 0.696707 0.390240 0.352891
C35   C     C_2   0.795091 0.910385 0.599150 0.986235
O21   O     O_2   0.842875 0.887905 0.665548 -0.582731
O22   O     O_R   0.867818 0.986933 0.565700 -0.747604
H15   H     H_    0.958636 0.017597 0.601901 0.370177
C36   C     C_2   0.204910 0.089615 0.400850 0.986236
O23   O     O_2   0.157128 0.112095 0.334452 -0.582731
O24   O     O_R   0.132183 0.013067 0.434300 -0.747604
H16   H     H_    0.041366 0.982403 0.398098 0.370176
C37   C     C_2   0.778447 0.731259 0.587875 1.024469
O25   O     O_2   0.756722 0.682123 0.644669 -0.615458
O26   O     O_R   0.931206 0.757005 0.560623 -0.757131
H17   H     H_    0.013259 0.729628 0.592135 0.351535
C38   C     C_2   0.221552 0.268740 0.412125 1.024469
O27   O     O_2   0.243278 0.317878 0.355332 -0.615458
O28   O     O_R   0.068793 0.242993 0.439376 -0.757131
H18   H     H_    0.986740 0.270371 0.407864 0.351536

loop_
_geom_bond_atom_site_label_1
_geom_bond_atom_site_label_2
_ccdc_geom_bond_type
C30   O11   D    
C32   O16   S    
C2    C18   S    
C34   O19   D    
O20   H14   S    
C4    N4    A    
C36   O23   D    
C14   O8    A    
C37   O25   D    
C20   H5    S    
C22   C24   A    
O1    Zn1   S    
C19   C21   A    
C11   C37   S    
C16   H2    S    
C15   C16   D    
N4    Zn1   S    
O2    Zn2   S    
C33   O18   S    
C23   N1    S    
C12   N4    A    
C5    H4    S    
C37   O26   S    
C6    H3    S    
C31   O13   D    
C34   O20   S    
C33   O17   D    
C8    N6    S    
N3    Zn2   S    
C4    C33   S    
C36   O24   S    
C15   H1    S    
C5    C7    A    
C35   O22   S    
C21   C23   A    
C31   O14   S    
C29   O9    D    
C17   C27   A    
C12   C38   S    
C18   C28   A    
C4    C6    A    
O28   H18   S    
C21   C30   S    
C6    C8    A    
C35   O21   D    
C24   N2    S    
O22   H15   S    
C29   O10   S    
C26   C32   S    
N5    N6    D    
O24   H16   S    
C3    N3    A    
N1    N2    D    
C7    N5    S    
C9    C35   S    
C9    C11   A    
C10   C12   A    
C1    O3    A    
C20   C22   A    
C13   C15   S    
C14   C16   S    
C38   O28   S    
C13   O5    A    
C14   O6    A    
O7    Zn2   S    
C7    C9    A    
O8    Zn1   S    
C28   H12   S    
C26   C28   A    
C24   C26   A    
C3    C5    A    
O10   H7    S    
C25   C27   A    
C10   C36   S    
C1    C17   S    
C30   O12   S    
O18   H13   S    
C13   O7    A    
C19   H6    S    
O12   H8    S    
C2    O4    A    
C11   N3    A    
C17   C19   A    
O3    Zn2   S    
C18   C20   A    
O4    Zn1   S    
C23   C25   A    
O14   H9    S    
C3    C34   S    
C27   H11   S    
C1    O1    A    
C32   O15   D    
C2    O2    A    
O26   H17   S    
C8    C10   A    
O16   H10   S    
C25   C31   S    
C38   O27   D    
O5    Zn1   S    
O6    Zn2   S    
C22   C29   S    
