data_mof_unit_57808.cif
_audit_creation_date              2012-12-11T14:48:01-0500
_audit_creation_method            fapswitch 2.2
_symmetry_space_group_name_H-M    P1
_symmetry_Int_Tables_number       1
_space_group_crystal_system       triclinic
_cell_length_a                    11.550377
_cell_length_b                    11.493862
_cell_length_c                    19.49835
_cell_angle_alpha                 90.302087
_cell_angle_beta                  89.943618
_cell_angle_gamma                 60.313529
_cell_volume                      2248.76618789

loop_
_atom_site_label
_atom_site_type_symbol
_atom_type_description
_atom_site_fract_x
_atom_site_fract_y
_atom_site_fract_z
_atom_type_partial_charge
C1    C     C_R   0.640419 0.117425 0.599145 0.554645
C2    C     C_1   0.640858 0.703553 0.667869 0.016168
C3    C     C_1   0.146867 0.189132 0.863369 0.008248
C4    C     C_1   0.227555 0.144825 0.735783 -0.023369
C5    C     C_1   0.188025 0.164648 0.805284 -0.023585
C6    C     C_1   0.258674 0.132529 0.676079 0.005678
C7    C     C_1   0.678447 0.191041 0.860930 0.009372
C8    C     C_1   0.658361 0.167247 0.729034 -0.025930
C9    C     C_1   0.665430 0.180732 0.800421 -0.026445
C10   C     C_1   0.652905 0.149782 0.668552 0.013311
C11   C     C_R   0.612890 0.573022 0.323140 -0.038026
C12   C     C_R   0.612376 0.745607 0.598469 0.556217
C13   C     C_R   0.603009 0.566964 0.251533 -0.051703
C14   C     C_R   0.700515 0.577961 0.209267 0.006995
C15   C     C_R   0.798748 0.601263 0.242029 0.009803
C16   C     C_R   0.790261 0.626195 0.312886 -0.022572
C17   C     C_R   0.683637 0.631634 0.349965 0.047735
C18   C     C_R   0.232044 0.257751 0.283644 -0.023849
C19   C     C_R   0.210929 0.266081 0.213936 -0.182083
C20   C     C_R   0.181657 0.178070 0.180182 -0.009041
C21   C     C_R   0.215006 0.055387 0.210195 0.108001
C22   C     C_R   0.241814 0.038701 0.281035 0.075675
C23   C     C_R   0.297861 0.120212 0.605446 0.544514
C24   C     C_R   0.247582 0.141759 0.319821 0.010682
C25   C     C_R   0.791252 0.074106 0.303064 0.004825
C26   C     C_R   0.790166 0.065919 0.231454 -0.020377
C27   C     C_R   0.681928 0.170977 0.194579 -0.017572
C28   C     C_R   0.564407 0.255038 0.229085 -0.158677
C29   C     C_R   0.559168 0.247265 0.299661 -0.181088
C30   C     C_R   0.670123 0.155581 0.336836 0.032080
C31   C     C_R   0.084538 0.230059 0.929385 0.543562
C32   C     C_R   0.683843 0.605269 0.929682 0.549750
C33   C     C_R   0.708393 0.206682 0.930248 0.538164
C34   C     C_R   0.646683 0.115045 0.403865 0.572988
C35   C     C_R   0.093658 0.230344 0.120785 0.562086
C36   C     C_R   0.707910 0.552875 0.134032 0.591081
C37   C     C_R   0.707838 0.207352 0.126114 0.533796
C38   C     C_R   0.623315 0.727719 0.407016 0.590070
C39   C     C_R   0.290659 0.120794 0.392803 0.565384
C40   C     C_1   0.670522 0.647551 0.860296 0.008356
C41   C     C_1   0.654526 0.683783 0.728407 -0.025622
C42   C     C_1   0.663453 0.667485 0.799746 -0.027351
Cr1   Cr    Cr6+3 0.404720 0.198220 0.499960 1.101735
Cr2   Cr    Cr6+3 0.698290 0.897110 0.500380 1.094841
Cr3   Cr    Cr6+3 0.396970 0.904720 0.499610 1.109928
Cr4   Cr    Cr6+3 0.926180 0.152240 0.028110 1.076353
Cr5   Cr    Cr6+3 0.921340 0.452070 0.027460 1.071319
Cr6   Cr    Cr6+3 0.626260 0.447120 0.028700 1.102872
H1    H     H_    0.475984 0.323293 0.201403 0.171845
H2    H     H_    0.467544 0.310459 0.325931 0.129053
H3    H     H_    0.202330 0.351948 0.186718 0.167647
O1    O     O_R   0.267740 0.231990 0.575440 -0.469135
O2    O     O_R   0.685970 0.784630 0.430010 -0.485294
O3    O     O_R   0.502530 0.766960 0.423990 -0.481429
O4    O     O_R   0.288330 0.026310 0.429250 -0.444474
O5    O     O_3   0.499990 0.000020 0.499980 -0.333324
O6    O     O_R   0.821500 0.119550 0.952820 -0.502537
O7    O     O_R   0.037130 0.162750 0.957360 -0.490064
O8    O     O_R   0.056440 0.344950 0.951330 -0.503083
O9    O     O_R   0.797900 0.560570 0.957460 -0.489968
O10   O     O_R   0.596140 0.579600 0.952720 -0.494510
O11   O     O_R   0.639070 0.321380 0.958660 -0.496331
O12   O     O_R   0.527280 0.186680 0.570530 -0.505714
O13   O     O_R   0.821240 0.124490 0.104360 -0.519161
O14   O     O_R   0.036900 0.167320 0.097830 -0.467305
O15   O     O_R   0.056190 0.349890 0.102870 -0.502099
O16   O     O_R   0.797670 0.565150 0.097930 -0.473436
O17   O     O_R   0.595880 0.584540 0.104260 -0.426612
O18   O     O_R   0.638830 0.325960 0.099140 -0.456950
O19   O     O_3   0.824590 0.350480 0.028090 -0.297035
O20   O     O_R   0.728090 0.003480 0.576380 -0.486402
O21   O     O_R   0.682970 0.789220 0.570490 -0.485172
O22   O     O_R   0.499290 0.771920 0.575530 -0.496981
O23   O     O_R   0.285330 0.030900 0.569730 -0.470577
O24   O     O_R   0.270980 0.227040 0.423900 -0.425096
O25   O     O_R   0.530280 0.182090 0.430050 -0.513498
O26   O     O_R   0.731330 0.998530 0.424830 -0.500436
C43   C     C_2   0.548961 0.520319 0.371322 0.274698
H4    H     H_    0.468473 0.504112 0.355633 0.090485
O27   O     O_2   0.589542 0.490243 0.429994 -0.455317
C44   C     C_2   0.892007 0.942871 0.195312 0.264537
H5    H     H_    0.863532 0.909062 0.149571 0.152848
O28   O     O_2   0.007395 0.880362 0.214179 -0.479984
C45   C     C_2   0.478151 0.568987 0.227362 0.243565
H6    H     H_    0.391973 0.608844 0.260444 0.132962
O29   O     O_2   0.465892 0.525415 0.172776 -0.463892
I1    I     I_    0.956659 0.615660 0.189973 -0.344338
C46   C     C_2   0.892867 0.645776 0.349073 0.321898
H7    H     H_    0.937822 0.698996 0.325601 0.124045
O30   O     O_2   0.927801 0.602246 0.406944 -0.406901
C47   C     C_2   0.227432 0.381125 0.311716 0.252826
H8    H     H_    0.264917 0.433465 0.280517 0.090562
O31   O     O_2   0.169386 0.435834 0.364440 -0.408883
I2    I     I_    0.253208 0.890520 0.143980 -0.190440
I3    I     I_    0.256848 0.862739 0.325468 -0.252678
C48   C     C_2   0.914898 0.996141 0.343337 0.323412
H9    H     H_    0.979696 0.890178 0.334265 0.163346
O32   O     O_2   0.942121 0.050453 0.389619 -0.443614

loop_
_geom_bond_atom_site_label_1
_geom_bond_atom_site_label_2
_ccdc_geom_bond_type
C37   O18   A    
C41   C42   S    
C19   C20   A    
Cr6   O18   S    
C2    C12   S    
C44   H5    S    
C23   O1    A    
C36   O16   A    
Cr1   O12   S    
C13   C45   S    
C26   C27   A    
C1    O20   A    
C18   C24   A    
C18   C47   S    
C31   O7    A    
C28   C29   A    
C45   O29   D    
C32   O10   A    
C33   O11   A    
C34   O26   A    
C14   C36   S    
C43   O27   D    
Cr1   O1    S    
C21   I2    S    
C35   O14   A    
C2    C41   T    
C15   C16   A    
C25   C30   A    
C24   C39   S    
Cr2   O20   S    
Cr3   O22   S    
C18   C19   A    
C22   I3    S    
C31   O8    A    
Cr5   O9    S    
C20   C35   S    
Cr2   O2    S    
C39   O4    A    
Cr3   O5    S    
C8    C9    S    
C48   O32   D    
C12   O22   A    
C39   O24   A    
Cr5   O15   S    
C40   C42   T    
C12   O21   A    
C13   C14   A    
Cr4   O7    S    
C7    C33   S    
C1    O12   A    
Cr5   O16   S    
C44   O28   D    
C29   H2    S    
Cr1   O24   S    
C30   C34   S    
C45   H6    S    
Cr4   O14   S    
C4    C6    T    
C47   H8    S    
C43   H4    S    
C16   C17   A    
C35   O15   A    
C25   C26   A    
Cr4   O13   S    
Cr3   O23   S    
Cr5   O19   S    
C29   C30   A    
C11   C43   S    
C47   O31   D    
C28   H1    S    
Cr2   O5    S    
Cr6   O11   S    
C38   O3    A    
C48   H9    S    
C20   C21   A    
Cr6   O17   S    
C3    C31   S    
C46   O30   D    
Cr3   O3    S    
C26   C44   S    
Cr4   O6    S    
C22   C24   A    
C32   O9    A    
C23   O23   A    
C37   O13   A    
C15   I1    S    
Cr1   O25   S    
C7    C9    T    
C11   C17   A    
C33   O6    A    
C1    C10   S    
Cr6   O19   S    
C4    C5    S    
C3    C5    T    
C36   O17   A    
Cr2   O26   S    
C11   C13   A    
Cr6   O10   S    
C38   O2    A    
C27   C37   S    
C6    C23   S    
Cr2   O21   S    
C17   C38   S    
C32   C40   S    
Cr4   O19   S    
Cr5   O8    S    
C19   H3    S    
Cr1   O5    S    
C46   H7    S    
Cr3   O4    S    
C25   C48   S    
C8    C10   T    
C27   C28   A    
C16   C46   S    
C14   C15   A    
C21   C22   A    
C34   O25   A    
