data_mof_unit_46931.cif
_audit_creation_date              2012-12-10T20:57:49-0500
_audit_creation_method            fapswitch 2.2
_symmetry_space_group_name_H-M    P1
_symmetry_Int_Tables_number       1
_space_group_crystal_system       triclinic
_cell_length_a                    18.18706
_cell_length_b                    18.251819
_cell_length_c                    18.42806
_cell_angle_alpha                 120.143126
_cell_angle_beta                  89.892286
_cell_angle_gamma                 119.83296
_cell_volume                      4331.04519087

loop_
_atom_site_label
_atom_site_type_symbol
_atom_type_description
_atom_site_fract_x
_atom_site_fract_y
_atom_site_fract_z
_atom_type_partial_charge
C1    C     C_R   0.360260 0.220030 0.361016 0.817170
C2    C     C_3   0.800081 0.941941 0.711440 0.440199
C3    C     C_3   0.053038 0.743682 0.528499 -0.235927
C4    C     C_3   0.902465 0.435403 0.545379 -0.196102
C5    C     C_3   0.745285 0.625129 0.022210 -0.154704
C6    C     C_3   0.030098 0.993321 0.626347 -0.168191
C7    C     C_3   0.977290 0.216943 0.670978 -0.231415
C8    C     C_3   0.699286 0.897930 0.704016 -0.297976
C9    C     C_R   0.641034 0.781105 0.641525 0.898976
C10   C     C_3   0.800308 0.102878 0.804345 -0.218295
C11   C     C_3   0.745581 0.061532 0.854903 -0.441850
C12   C     C_3   0.859328 0.060913 0.777030 0.480598
C13   C     C_3   0.665535 0.386472 0.228734 -0.579610
C14   C     C_3   0.726090 0.384587 0.169426 0.298363
C15   C     C_3   0.694483 0.551560 0.258332 0.337002
C16   C     C_3   0.797524 0.558406 0.357624 -0.346725
C17   C     C_3   0.322009 0.610033 0.345904 0.394682
C18   C     C_3   0.698589 0.499352 0.302412 -0.022210
C19   C     C_3   0.798988 0.497601 0.200019 -0.057413
C20   C     C_3   0.752316 0.547902 0.195979 0.423933
C21   C     C_R   0.358859 0.500369 0.640460 0.882880
C22   C     C_3   0.856824 0.560556 0.298407 -0.454344
C23   C     C_R   0.329312 0.150576 0.582052 0.708408
C24   C     C_R   0.326857 0.110731 0.493923 -0.311499
C25   C     C_R   0.265443 0.097946 0.434986 -0.029382
C26   C     C_R   0.206965 0.126962 0.465095 0.577483
C27   C     C_R   0.208259 0.163945 0.553364 -0.300379
C28   C     C_3   0.300964 0.499646 0.300527 -0.337212
C29   C     C_R   0.269422 0.176113 0.611442 -0.207552
C30   C     C_R   0.208269 0.943842 0.285259 -0.206253
C31   C     C_R   0.201284 0.891757 0.195861 -0.132325
C32   C     C_R   0.252166 0.947434 0.161371 -0.128110
C33   C     C_R   0.640772 0.499316 0.359625 0.833557
C34   C     C_R   0.307811 0.055358 0.217586 0.467480
C35   C     C_R   0.308585 0.107467 0.306112 -0.155722
C36   C     C_R   0.261233 0.050558 0.340871 0.034562
C37   C     C_R   0.293358 0.845198 0.038964 -0.193897
C38   C     C_R   0.298433 0.805020 0.952989 -0.089047
C39   C     C_3   0.197768 0.498279 0.198377 -0.302748
C40   C     C_R   0.261342 0.815974 0.895771 0.020203
C41   C     C_R   0.218145 0.865834 0.923855 -0.117470
C42   C     C_R   0.213258 0.906481 0.009803 -0.040273
C43   C     C_R   0.251142 0.896759 0.068019 0.193611
C44   C     C_R   0.910325 0.600762 0.552028 -0.393256
C45   C     C_R   0.641899 0.499805 0.639632 0.851296
C46   C     C_R   0.861802 0.548269 0.589367 0.458824
C47   C     C_R   0.839324 0.598284 0.663508 -0.047894
C48   C     C_R   0.869912 0.701444 0.702391 0.602237
C49   C     C_R   0.918780 0.752969 0.665433 -0.239939
C50   C     C_3   0.140336 0.431169 0.231261 0.290817
C51   C     C_R   0.940828 0.704424 0.591097 0.435770
C52   C     C_R   0.840394 0.542675 0.759462 0.593140
C53   C     C_R   0.799896 0.496925 0.803741 -0.202426
C54   C     C_R   0.707293 0.450952 0.792161 0.120162
C55   C     C_R   0.657975 0.453526 0.737892 -0.149760
C56   C     C_R   0.698478 0.500580 0.695088 -0.153429
C57   C     C_R   0.358843 0.500784 0.359333 1.010235
C58   C     C_R   0.790861 0.546047 0.705942 0.018575
C59   C     C_R   0.627138 0.298090 0.799643 0.593688
C60   C     C_R   0.579412 0.250103 0.839687 0.557063
C61   C     C_3   0.264228 0.610039 0.284496 -0.667700
C62   C     C_R   0.560757 0.303460 0.914748 -0.403313
C63   C     C_R   0.590291 0.405238 0.950584 0.519020
C64   C     C_R   0.641208 0.455633 0.912882 0.359118
C65   C     C_R   0.658921 0.401306 0.836313 -0.263761
C66   C     C_R   0.347535 0.760043 0.670933 0.552387
C67   C     C_R   0.341084 0.703662 0.704110 0.556616
C68   C     C_R   0.262906 0.604601 0.667830 -0.061328
C69   C     C_3   0.318874 0.464489 0.208497 0.914391
C70   C     C_R   0.189360 0.565152 0.601336 -0.286614
C71   C     C_R   0.195345 0.622273 0.569133 0.608643
C72   C     C_3   0.669643 0.940722 0.663961 0.367143
C73   C     C_R   0.274739 0.719128 0.603235 -0.414728
C74   C     C_R   0.198029 0.541583 0.757377 0.540429
C75   C     C_R   0.185897 0.489344 0.796634 -0.253954
C76   C     C_R   0.223756 0.432939 0.776958 -0.079972
C77   C     C_R   0.284620 0.444026 0.731300 0.549751
C78   C     C_R   0.300017 0.499632 0.694689 -0.253850
C79   C     C_R   0.254189 0.547100 0.706203 -0.077016
C80   C     C_R   0.248989 0.363248 0.853732 -0.221259
C81   C     C_3   0.258391 0.465560 0.149672 0.198044
C82   C     C_R   0.225962 0.280115 0.857042 0.660552
C83   C     C_3   0.733584 0.060070 0.718843 -0.576123
C84   C     C_R   0.146476 0.182834 0.796748 -0.418009
C85   C     C_R   0.089910 0.166667 0.730053 0.390052
C86   C     C_R   0.111126 0.252084 0.729541 0.448072
C87   C     C_R   0.192328 0.349747 0.790037 -0.023772
C88   C     C_R   0.856981 0.498649 0.142700 0.853996
C89   C     C_R   0.135472 0.496511 0.858691 0.863626
C90   C     C_R   0.857112 0.219135 0.861897 0.865621
C91   C     C_R   0.140226 0.779709 0.141026 0.825840
C92   C     C_R   0.855965 0.499456 0.861625 0.854191
C93   C     C_3   0.199373 0.423084 0.284379 0.799596
C94   C     C_3   0.692022 0.940478 0.801397 0.856861
C95   C     C_R   0.139893 0.499696 0.142384 0.953913
C96   C     C_3   0.106186 0.366622 0.358955 -0.132513
C97   C     C_3   0.589027 0.928280 0.881428 -0.103494
C98   C     C_3   0.439641 0.493661 0.152664 -0.079870
C99   C     C_3   0.684733 0.814719 0.817637 -0.120165
C100  C     C_3   0.643095 0.219285 0.036980 -0.260613
C101  C     C_3   0.676686 0.684607 0.304246 -0.138979
C102  C     C_3   0.147065 0.284035 0.036435 0.139131
C103  C     C_3   0.156039 0.204272 0.435144 -0.260366
C104  C     C_3   0.445491 0.130011 0.202969 -0.268906
F1    F     F_    0.299044 0.365507 0.166798 -0.623064
F2    F     F_    0.643015 0.244522 0.725516 -0.599696
F3    F     F_    0.550008 0.151088 0.804930 -0.589861
F4    F     F_    0.568362 0.454479 0.021206 -0.671396
F5    F     F_    0.066298 0.334662 0.163521 -0.674297
F6    F     F_    0.423809 0.855021 0.705265 -0.586379
F7    F     F_    0.410267 0.744953 0.771899 -0.674340
F8    F     F_    0.123786 0.584378 0.505635 -0.695240
F9    F     F_    0.152985 0.585302 0.766490 -0.648330
F10   F     F_    0.327095 0.397385 0.721064 -0.653261
F11   F     F_    0.282718 0.292822 0.916693 -0.624959
F12   F     F_    0.667770 0.898614 0.576353 -0.637304
F13   F     F_    0.412350 0.683025 0.367661 -0.579863
F14   F     F_    0.830857 0.900443 0.738065 -0.571965
F15   F     F_    0.915896 0.091462 0.851757 -0.583626
F16   F     F_    0.816176 0.646526 0.218743 -0.659693
F17   F     F_    0.388869 0.162873 0.638655 -0.634619
F18   F     F_    0.178042 0.323039 0.236253 -0.625724
F19   F     F_    0.851974 0.751979 0.776117 -0.624330
F20   F     F_    0.928814 0.584487 0.767633 -0.639281
H1    H     H_    0.227035 0.641014 0.321930 0.217727
H2    H     H_    0.594816 0.342007 0.187233 0.233312
H3    H     H_    0.665926 0.347271 0.259308 0.157198
H4    H     H_    0.762652 0.354340 0.179663 0.091772
H5    H     H_    0.622873 0.504820 0.216637 0.044208
H6    H     H_    0.305701 0.531892 0.146614 0.139933
H7    H     H_    0.708019 0.501529 0.126735 0.109401
H8    H     H_    0.823953 0.639225 0.413534 0.265360
H9    H     H_    0.801041 0.519310 0.386873 0.176270
H10   H     H_    0.892903 0.527832 0.303303 0.168288
H11   H     H_    0.908588 0.642435 0.323646 0.265495
H12   H     H_    0.111922 0.470344 0.276564 0.140612
H13   H     H_    0.270014 0.204897 0.679204 0.199817
H14   H     H_    0.372385 0.089151 0.471203 0.191212
H15   H     H_    0.161129 0.181899 0.576680 0.215822
H16   H     H_    0.170651 0.901237 0.312244 0.188387
H17   H     H_    0.323538 0.837875 0.083357 0.113498
H18   H     H_    0.331614 0.766028 0.930892 0.148478
H19   H     H_    0.265834 0.785731 0.829568 0.151217
H20   H     H_    0.189228 0.873878 0.879307 0.155634
H21   H     H_    0.180978 0.946592 0.031468 0.156655
H22   H     H_    0.922501 0.560003 0.491848 0.180688
H23   H     H_    0.600452 0.918106 0.664126 0.233769
H24   H     H_    0.940568 0.831891 0.695431 0.223359
H25   H     H_    0.587188 0.419149 0.730047 0.212853
H26   H     H_    0.522447 0.265478 0.944669 0.243896
H27   H     H_    0.279381 0.763078 0.578067 0.217434
H28   H     H_    0.127101 0.491076 0.575908 0.175141
H29   H     H_    0.312308 0.437484 0.898915 0.195161
H30   H     H_    0.306336 0.633882 0.409075 0.170599
H31   H     H_    0.130214 0.119931 0.801206 0.205169
H32   H     H_    0.308169 0.663964 0.267242 0.253528
H33   H     H_    0.117214 0.308733 0.350899 0.174018
H34   H     H_    0.771493 0.084133 0.678689 0.213659
H35   H     H_    0.047635 0.329230 0.303047 0.200066
H36   H     H_    0.088719 0.395381 0.420222 0.166846
H37   H     H_    0.538701 0.946596 0.886547 0.211158
H38   H     H_    0.650848 0.996943 0.939544 0.094714
H39   H     H_    0.563008 0.862902 0.887403 0.196655
H40   H     H_    0.391062 0.453414 0.087518 0.233009
H41   H     H_    0.503559 0.557749 0.159946 0.162724
H42   H     H_    0.452495 0.440372 0.153100 0.213215
H43   H     H_    0.612716 0.766568 0.778197 0.121792
H44   H     H_    0.687570 0.812296 0.876453 0.167788
H45   H     H_    0.693165 0.092660 0.735728 0.272885
H46   H     H_    0.717507 0.778779 0.777828 0.244235
H47   H     H_    0.606567 0.186883 0.073140 0.140639
H48   H     H_    0.700711 0.212716 0.030333 0.146774
H49   H     H_    0.596024 0.172094 0.969024 0.232703
H50   H     H_    0.608355 0.643804 0.308065 0.167162
H51   H     H_    0.672947 0.669436 0.237361 0.167802
H52   H     H_    0.709958 0.768869 0.353639 0.214962
H53   H     H_    0.150084 0.271820 0.088659 0.245694
H54   H     H_    0.147884 0.222451 0.977833 0.167775
H55   H     H_    0.082181 0.271269 0.016155 0.213099
H56   H     H_    0.698651 0.085421 0.868222 0.187313
H57   H     H_    0.227326 0.266609 0.453084 0.142711
H58   H     H_    0.130962 0.229174 0.491860 0.175752
H59   H     H_    0.115719 0.191964 0.380076 0.188642
H60   H     H_    0.441710 0.057399 0.172176 0.143783
H61   H     H_    0.481321 0.181163 0.275818 0.136003
H62   H     H_    0.485932 0.170941 0.174200 0.188115
H63   H     H_    0.023278 0.670401 0.461357 0.180594
H64   H     H_    0.091434 0.745720 0.577354 0.198094
H65   H     H_    0.101696 0.807621 0.523622 0.185984
H66   H     H_    0.962247 0.498874 0.606966 0.218974
H67   H     H_    0.807047 0.920454 0.644886 0.113612
H68   H     H_    0.921114 0.430492 0.486448 0.163372
H69   H     H_    0.880196 0.361777 0.536278 0.182965
H70   H     H_    0.799474 0.613389 0.007605 0.120634
H71   H     H_    0.728913 0.619513 0.078099 0.210051
H72   H     H_    0.771679 0.704923 0.044032 0.189959
H73   H     H_    0.029903 0.966788 0.668951 0.187701
H74   H     H_    0.094079 0.020109 0.611182 0.145077
H75   H     H_    0.975051 0.925333 0.562393 0.219378
H76   H     H_    0.980447 0.259628 0.741530 0.140608
H77   H     H_    0.927221 0.132500 0.636401 0.205170
H78   H     H_    0.902145 0.093943 0.744371 0.073582
H79   H     H_    0.953054 0.241572 0.638261 0.176717
H80   H     H_    0.791336 0.099680 0.921126 0.219056
O1    O     O_3   0.500000 0.500000 0.500000 -0.535347
O2    O     O_R   0.113800 0.731630 0.056520 -0.634992
O3    O     O_R   0.819390 0.439310 0.886160 -0.664436
O4    O     O_R   0.383400 0.268380 0.323710 -0.571232
O5    O     O_R   0.115110 0.560720 0.179280 -0.662915
O6    O     O_R   0.941380 0.560750 0.885620 -0.560434
O7    O     O_R   0.115110 0.439270 0.057830 -0.605134
O8    O     O_R   0.942690 0.268390 0.886930 -0.629581
O9    O     O_R   0.114340 0.731630 0.178520 -0.645177
O10   O     O_R   0.820160 0.439310 0.057830 -0.620804
O11   O     O_R   0.113800 0.560730 0.885620 -0.561149
O12   O     O_R   0.383400 0.560740 0.616060 -0.644246
O13   O     O_R   0.555060 0.731630 0.615290 -0.592343
O14   O     O_R   0.383950 0.439280 0.616600 -0.584867
O15   O     O_R   0.677590 0.560710 0.444390 -0.635996
O16   O     O_R   0.556370 0.439260 0.616600 -0.636405
O17   O     O_R   0.382640 0.439290 0.322940 -0.567987
O18   O     O_R   0.678360 0.560700 0.616060 -0.653729
O19   O     O_R   0.382640 0.560750 0.444390 -0.639418
O20   O     O_3   0.185474 0.450472 0.367809 -0.672217
O21   O     O_3   0.600311 0.898746 0.796901 -0.596897
O22   O     O_3   0.411245 0.535636 0.225128 -0.641994
O23   O     O_R   0.555060 0.439270 0.322940 -0.653031
O24   O     O_3   0.733492 0.919727 0.847761 -0.565383
O25   O     O_3   0.672362 0.322998 0.079174 -0.592950
O26   O     O_3   0.727474 0.655871 0.326084 -0.571206
O27   O     O_3   0.219409 0.380736 0.057848 -0.605622
O28   O     O_3   0.144204 0.110008 0.405411 -0.594471
O29   O     O_3   0.359561 0.109538 0.184236 -0.566932
O30   O     O_3   0.986188 0.758718 0.555465 -0.630891
O31   O     O_3   0.830476 0.446074 0.551324 -0.605506
O32   O     O_3   0.668009 0.555131 0.946401 -0.567718
O33   O     O_3   0.012830 0.069819 0.665760 -0.617556
O34   O     O_R   0.383950 0.268380 0.445700 -0.664540
O35   O     O_3   0.061226 0.238224 0.661364 -0.617788
O36   O     O_R   0.677590 0.731610 0.615290 -0.606514
O37   O     O_3   0.997750 0.500010 0.002220 -0.519063
O38   O     O_R   0.942690 0.560750 0.179280 -0.637956
O39   O     O_R   0.114340 0.439270 0.886160 -0.675439
O40   O     O_R   0.820160 0.268410 0.886930 -0.624876
Zn1   Zn    Zn3+2 0.456040 0.586770 0.543190 1.039153
Zn2   Zn    Zn3+2 0.456820 0.413240 0.543960 0.986672
Zn3   Zn    Zn3+2 0.631110 0.586750 0.543190 1.002069
Zn4   Zn    Zn3+2 0.456040 0.413240 0.369660 1.046283
Zn5   Zn    Zn3+2 0.041710 0.413240 0.959030 0.980953
Zn6   Zn    Zn3+2 0.866640 0.413270 0.959030 0.988846
Zn7   Zn    Zn3+2 0.040930 0.586780 0.958260 1.043702
Zn8   Zn    Zn3+2 0.041710 0.586770 0.132560 0.970910

loop_
_geom_bond_atom_site_label_1
_geom_bond_atom_site_label_2
_ccdc_geom_bond_type
C15   C18   S    
C97   O21   S    
C55   C56   A    
O39   Zn5   S    
C90   O40   A    
C100  H48   S    
C103  H58   S    
C41   C42   A    
C4    H68   S    
C92   O6    A    
C19   C20   S    
O37   Zn7   S    
O1    Zn4   S    
C2    C12   S    
C3    H64   S    
C48   F19   S    
C2    F14   S    
C80   H29   S    
C23   F17   S    
C99   H46   S    
C57   O17   A    
C77   C78   A    
O19   Zn1   S    
C104  H61   S    
C26   C27   A    
O40   Zn6   S    
C37   H17   S    
C13   C18   S    
C22   H10   S    
C51   O30   S    
C103  H59   S    
C45   O18   A    
O14   Zn2   S    
C100  O25   S    
O13   Zn1   S    
C82   F11   S    
C64   O32   S    
C80   C87   A    
O1    Zn1   S    
C3    H65   S    
C3    O30   S    
C88   O38   A    
C30   C31   A    
C84   H31   S    
C27   C29   A    
C17   H30   S    
C10   C83   S    
C14   H4    S    
O9    Zn8   S    
C60   C62   A    
C34   C35   A    
C7    H76   S    
C70   C71   A    
C1    O4    A    
C14   O25   S    
C7    H79   S    
C94   O21   S    
C17   C61   S    
O23   Zn4   S    
C54   C55   A    
C91   O9    A    
C62   C63   A    
C28   C69   S    
C45   C56   S    
C8    C9    S    
C49   C51   A    
C5    O32   S    
C21   C78   S    
O10   Zn6   S    
O36   Zn3   S    
C44   H22   S    
C23   C24   A    
C89   O39   A    
C101  O26   S    
C12   H78   S    
C99   O24   S    
C17   F13   S    
C89   O11   A    
C68   C70   A    
C68   C79   S    
C96   H33   S    
C59   C60   A    
C103  H57   S    
C13   C14   S    
C73   H27   S    
C100  H47   S    
O11   Zn7   S    
C102  H55   S    
C38   H18   S    
C101  H50   S    
C15   C20   S    
O37   Zn8   S    
C9    O36   A    
C16   H9    S    
C10   C12   S    
C54   C65   S    
O3    Zn6   S    
C44   C46   A    
C55   H25   S    
C99   H43   S    
C76   C77   A    
C33   O15   A    
C4    H69   S    
C39   C61   S    
C6    O33   S    
C67   F7    S    
C8    C72   S    
C59   F2    S    
C30   H16   S    
C74   C75   A    
C96   H35   S    
C67   C68   A    
C95   O5    A    
C4    H66   S    
C19   C22   S    
C8    C94   S    
C24   C25   A    
C39   C81   S    
C41   H20   S    
C80   C82   A    
C19   C88   S    
C10   C90   S    
C6    H74   S    
C69   F1    S    
C78   C79   A    
C25   C36   S    
C24   H14   S    
O12   Zn1   S    
C28   C57   S    
C66   C73   A    
C50   F5    S    
O7    Zn5   S    
C49   H24   S    
C28   C93   S    
C90   O8    A    
C35   C36   A    
C32   C34   A    
C37   C43   A    
C75   C76   A    
O4    Zn4   S    
C37   C38   A    
C2    H67   S    
C12   F15   S    
C97   H39   S    
O18   Zn3   S    
C47   C48   A    
C15   H5    S    
C95   O7    A    
C71   F8    S    
O34   Zn2   S    
C53   C92   S    
C86   O35   S    
C21   O12   A    
O37   Zn5   S    
C84   C85   A    
O2    Zn7   S    
C76   C87   S    
C39   C95   S    
C85   C86   A    
C98   H42   S    
C60   F3    S    
C88   O10   A    
C5    H72   S    
C13   H2    S    
C44   C51   A    
C16   C18   S    
C40   C41   A    
C96   H36   S    
C7    O35   S    
O1    Zn2   S    
C82   C84   A    
C74   C79   A    
C52   C58   A    
C15   O26   S    
C102  O27   S    
C102  H54   S    
C4    O31   S    
O15   Zn3   S    
C101  H51   S    
C42   C43   A    
C20   H7    S    
C77   F10   S    
C61   H32   S    
C23   C29   A    
O6    Zn7   S    
C20   F16   S    
C91   O2    A    
C29   H13   S    
C52   C53   A    
C1    C35   S    
C71   C73   A    
C99   H44   S    
C57   O19   A    
C9    O13   A    
C103  O28   S    
C45   O16   A    
C70   H28   S    
O16   Zn2   S    
C46   C47   A    
C104  O29   S    
C16   C22   S    
C62   H26   S    
C104  H60   S    
C86   C87   A    
C17   C28   S    
C14   C19   S    
C31   C32   A    
C2    C8    S    
O37   Zn6   S    
C31   C91   S    
C11   C94   S    
C33   O23   A    
C3    H63   S    
C6    H73   S    
C98   H40   S    
C50   C93   S    
C53   C54   A    
O17   Zn4   S    
C94   O24   S    
C1    O34   A    
C72   H23   S    
C104  H62   S    
C34   O29   S    
C72   F12   S    
C97   H37   S    
O1    Zn3   S    
C30   C36   A    
C22   H11   S    
C21   O14   A    
C26   O28   S    
C46   O31   S    
C69   O22   S    
C25   C26   A    
O38   Zn8   S    
C7    H77   S    
C92   O3    A    
C50   H12   S    
C5    H71   S    
C64   C65   A    
C47   C58   S    
C38   C40   A    
C52   F20   S    
C81   H6    S    
C6    H75   S    
C83   H34   S    
C72   C83   S    
C48   C49   A    
C83   H45   S    
C32   C43   S    
C56   C58   A    
C66   C67   A    
C93   O20   S    
C85   O33   S    
C11   H80   S    
C74   F9    S    
C16   H8    S    
C18   C33   S    
C27   H15   S    
C98   H41   S    
C69   C81   S    
C10   C11   S    
C75   C89   S    
O5    Zn8   S    
C63   C64   A    
C13   H3    S    
C39   C50   S    
C66   F6    S    
C96   O20   S    
C97   H38   S    
C81   O27   S    
C40   H19   S    
C100  H49   S    
O8    Zn5   S    
C102  H53   S    
C101  H52   S    
C61   H1    S    
C11   H56   S    
C63   F4    S    
C42   H21   S    
C93   F18   S    
C59   C65   A    
C5    H70   S    
C98   O22   S    
