data_mof_unit_14456.cif
_audit_creation_date              2012-10-26T20:50:17-0400
_audit_creation_method            fapswitch 2.2
_symmetry_space_group_name_H-M    P1
_symmetry_Int_Tables_number       1
_space_group_crystal_system       triclinic
_cell_length_a                    19.412521
_cell_length_b                    18.152512
_cell_length_c                    10.93093
_cell_angle_alpha                 89.34474
_cell_angle_beta                  90.397258
_cell_angle_gamma                 89.975583
_cell_volume                      3851.56195317

loop_
_atom_site_label
_atom_site_type_symbol
_atom_type_description
_atom_site_fract_x
_atom_site_fract_y
_atom_site_fract_z
_atom_type_partial_charge
C1    C     C_R   0.367459 0.500049 0.500196 0.564396
C2    C     C_R   0.035466 0.500706 0.389828 -0.042973
C3    C     C_R   0.071751 0.499612 0.500987 0.061386
C4    C     C_R   0.928291 0.499438 0.500875 0.061668
C5    C     C_R   0.036304 0.496673 0.612035 -0.045412
C6    C     C_R   0.964578 0.496491 0.611982 -0.043168
C7    C     C_R   0.440066 0.721384 0.478587 0.094853
C8    C     C_R   0.559413 0.721718 0.522364 0.091673
C9    C     C_R   0.438242 0.798650 0.481029 -0.049704
C10   C     C_R   0.560197 0.799088 0.520927 -0.052182
C11   C     C_R   0.498964 0.838692 0.501031 0.082015
C12   C     C_R   0.632551 0.500020 0.499981 0.555207
C13   C     C_R   0.514356 0.960910 0.609075 0.220694
C14   C     C_R   0.482416 0.962266 0.392445 0.221923
C15   C     C_R   0.504361 0.499919 0.262892 0.562779
C16   C     C_R   0.500002 0.499179 0.737650 0.567272
C17   C     C_R   0.515651 0.038529 0.606666 -0.084674
C18   C     C_R   0.482340 0.039829 0.394009 -0.083238
C19   C     C_R   0.499425 0.078848 0.499996 -0.057019
C20   C     C_R   0.498530 0.921391 0.500802 -0.003090
C21   C     C_R   0.448243 0.202225 0.437781 -0.110402
C22   C     C_R   0.551898 0.201018 0.560236 -0.102093
C23   C     C_R   0.816528 0.567507 0.491652 0.260282
C24   C     C_R   0.449246 0.279549 0.439327 0.074558
C25   C     C_R   0.551307 0.278373 0.558559 0.086882
C26   C     C_R   0.499825 0.161577 0.499431 0.028975
C27   C     C_R   0.503006 0.561182 0.060293 0.007063
C28   C     C_R   0.496034 0.559972 0.937477 0.004954
C29   C     C_R   0.510251 0.497659 0.130542 -0.004156
C30   C     C_R   0.502264 0.495958 0.870524 -0.009449
C31   C     C_R   0.519510 0.430171 0.066863 -0.052580
C32   C     C_R   0.514205 0.429042 0.937654 -0.053398
C33   C     C_3   0.486920 0.641462 0.926284 0.102738
C34   C     C_R   0.183518 0.567303 0.513242 0.260336
C35   C     C_3   0.497775 0.643072 0.066402 0.099588
C36   C     C_R   0.744628 0.433474 0.509428 -0.133405
C37   C     C_R   0.255391 0.433905 0.488491 -0.133752
C38   C     C_R   0.816442 0.433149 0.509927 -0.050369
C39   C     C_R   0.183586 0.433617 0.488485 -0.049677
C40   C     C_R   0.852790 0.500178 0.500895 -0.012910
C41   C     C_R   0.147249 0.500327 0.500942 -0.012869
C42   C     C_1   0.537287 0.361928 0.130877 0.254383
C43   C     C_1   0.520732 0.358260 0.878192 0.252299
C44   C     C_1   0.851972 0.363308 0.519215 0.209863
C45   C     C_R   0.744528 0.566669 0.491074 -0.088111
C46   C     C_1   0.148047 0.364134 0.476017 0.209510
C47   C     C_R   0.255520 0.566436 0.513147 -0.082848
C48   C     C_R   0.708262 0.500038 0.500101 -0.039747
C49   C     C_R   0.291762 0.500123 0.500611 -0.038174
C50   C     C_R   0.963746 0.500716 0.389780 -0.045373
Cu1   Cu    Cu3+1 0.500000 0.573360 0.500000 1.050152
Cu2   Cu    Cu3+1 0.500000 0.426640 0.500000 0.991732
H1    H     H_    0.392828 0.692239 0.459908 0.142156
H2    H     H_    0.591882 0.308003 0.605065 0.135500
H3    H     H_    0.527775 0.668287 0.870789 0.118416
H4    H     H_    0.453179 0.662133 0.120828 0.119009
H5    H     H_    0.717169 0.381606 0.516545 0.147033
H6    H     H_    0.282846 0.382293 0.478654 0.145318
H7    H     H_    0.716634 0.618153 0.483237 0.178621
H8    H     H_    0.283441 0.617613 0.523327 0.183550
H9    H     H_    0.935818 0.502142 0.303651 0.146789
H10   H     H_    0.062757 0.502212 0.303737 0.144657
H11   H     H_    0.064236 0.494954 0.698149 0.146856
H12   H     H_    0.606973 0.692742 0.540637 0.140755
H13   H     H_    0.937286 0.494764 0.698063 0.143112
H14   H     H_    0.509770 0.801156 0.795857 0.362980
H15   H     H_    0.474032 0.805452 0.199174 0.372757
H16   H     H_    0.379534 0.751832 0.013416 0.352517
H17   H     H_    0.603096 0.762530 0.963802 0.360223
H18   H     H_    0.944538 0.704775 0.576616 0.391458
H19   H     H_    0.055838 0.707587 0.435283 0.391142
H20   H     H_    0.389771 0.827006 0.466361 0.167771
H21   H     H_    0.608327 0.827843 0.535633 0.166716
H22   H     H_    0.527867 0.067915 0.689657 0.174003
H23   H     H_    0.470018 0.070192 0.310883 0.172352
H24   H     H_    0.406805 0.174511 0.390129 0.121233
H25   H     H_    0.593335 0.172341 0.607449 0.124621
H26   H     H_    0.409296 0.310101 0.391534 0.127949
N1    N     N_R   0.500000 0.683620 0.500000 -0.220879
N2    N     N_R   0.500000 0.316380 0.500000 -0.224219
N3    N     N_1   0.551547 0.307536 0.181287 -0.251232
N4    N     N_1   0.525732 0.301253 0.832840 -0.274976
N5    N     N_1   0.880488 0.307423 0.526647 -0.231679
N6    N     N_1   0.119523 0.308537 0.466040 -0.232547
O1    O     O_R   0.400190 0.561980 0.499980 -0.504924
O2    O     O_2   0.517648 0.966855 0.855323 -0.169130
O3    O     O_3   0.479357 0.841490 0.766340 -0.445282
O4    O     O_2   0.385970 0.902481 0.250215 -0.284390
O5    O     O_2   0.478072 0.969803 0.146355 -0.173256
O6    O     O_3   0.506691 0.840697 0.236581 -0.436690
O7    O     O_2   0.393150 0.661563 0.745362 -0.222104
O8    O     O_2   0.349504 0.616180 0.941601 -0.271141
O9    O     O_3   0.385125 0.753991 0.923476 -0.413521
O10   O     O_2   0.583753 0.689245 0.244709 -0.215565
O11   O     O_2   0.637428 0.638134 0.062689 -0.272238
O12   O     O_R   0.599810 0.561980 0.500020 -0.511412
O13   O     O_3   0.583817 0.769303 0.046561 -0.420626
O14   O     O_2   0.896975 0.657562 0.360621 -0.242637
O15   O     O_2   0.809670 0.716084 0.488056 -0.236516
O16   O     O_3   0.917555 0.659835 0.595599 -0.484581
O17   O     O_2   0.102697 0.652721 0.648756 -0.240847
O18   O     O_2   0.190403 0.715591 0.525773 -0.232213
O19   O     O_3   0.082834 0.663296 0.413976 -0.485311
O20   O     O_R   0.400190 0.438070 0.500040 -0.514400
O21   O     O_R   0.599810 0.438070 0.499960 -0.516087
O22   O     O_R   0.500000 0.561960 0.319660 -0.471604
O23   O     O_R   0.500000 0.561960 0.680340 -0.473891
O24   O     O_R   0.500000 0.438060 0.319720 -0.506627
O25   O     O_R   0.500000 0.438060 0.680280 -0.501408
O26   O     O_2   0.604939 0.891922 0.755332 -0.290176
S1    S     S_3+6 0.530729 0.915611 0.750959 0.057239
S2    S     S_3+6 0.461816 0.919210 0.252068 0.058800
S3    S     S_3+6 0.400904 0.666736 0.881752 0.038019
S4    S     S_3+6 0.578567 0.684091 0.107993 0.034540
S5    S     S_3+6 0.859895 0.653246 0.480731 0.053228
S6    S     S_3+6 0.140146 0.652613 0.528878 0.056384

loop_
_geom_bond_atom_site_label_1
_geom_bond_atom_site_label_2
_ccdc_geom_bond_type
C33   H3    S    
C38   C40   A    
C21   C26   A    
C18   H23   S    
C23   C45   A    
C31   C42   S    
C27   C29   A    
C25   N2    A    
C14   C18   A    
C9    H20   S    
O6    S2    S    
C12   C48   S    
C44   N5    T    
Cu1   O1    S    
O10   S4    D    
C39   C41   A    
C14   S2    S    
O16   S5    S    
C21   H24   S    
C15   O22   A    
O15   S5    D    
C5    C6    A    
C10   H21   S    
O3    S1    S    
O11   S4    D    
C34   S6    S    
C23   C40   A    
C5    H11   S    
C35   S4    S    
C18   C19   A    
C19   C26   S    
O26   S1    D    
C2    C50   A    
C16   O23   A    
C17   C19   A    
C47   H8    S    
C24   N2    A    
C6    H13   S    
Cu2   O20   S    
C4    C40   S    
C22   C25   A    
C8    N1    A    
C36   C48   A    
O8    S3    D    
C37   H6    S    
Cu1   O12   S    
C34   C41   A    
Cu1   O23   S    
C42   N3    T    
H18   O16   S    
C16   O25   A    
C15   C29   S    
C1    O1    A    
C37   C39   A    
C11   C20   S    
Cu1   Cu2   S    
C14   C20   A    
O18   S6    D    
C25   H2    S    
C4    C6    A    
C36   H5    S    
H14   O3    S    
C27   C35   S    
H15   O6    S    
O7    S3    D    
C4    C50   A    
C15   O24   A    
C38   C44   S    
C37   C49   A    
C31   C32   A    
O5    S2    D    
O9    S3    S    
C9    C11   A    
C1    O20   A    
C8    H12   S    
C39   C46   S    
C46   N6    T    
C24   H26   S    
C28   C33   S    
C17   H22   S    
C7    H1    S    
C16   C30   S    
C7    N1    A    
C45   C48   A    
C7    C9    A    
H19   O19   S    
C45   H7    S    
C13   C20   A    
C35   H4    S    
C22   H25   S    
C3    C5    A    
Cu2   O21   S    
C47   C49   A    
C33   S3    S    
H16   O9    S    
C13   C17   A    
C28   C30   A    
O2    S1    D    
C29   C31   A    
C30   C32   A    
O14   S5    D    
C12   O21   A    
Cu2   O25   S    
Cu1   O22   S    
C13   S1    S    
C36   C38   A    
C33   C35   S    
C32   C43   S    
C2    C3    A    
Cu1   N1    S    
C3    C41   S    
C10   C11   A    
C23   S5    S    
O4    S2    D    
C2    H10   S    
C50   H9    S    
Cu2   O24   S    
C8    C10   A    
C22   C26   A    
C21   C24   A    
C27   C28   A    
O17   S6    D    
C12   O12   A    
C34   C47   A    
O19   S6    S    
O13   S4    S    
Cu2   N2    S    
C1    C49   S    
C43   N4    T    
H17   O13   S    
