data_mof_unit_42320.cif
_audit_creation_date              2012-12-10T18:18:27-0500
_audit_creation_method            fapswitch 2.2
_symmetry_space_group_name_H-M    P1
_symmetry_Int_Tables_number       1
_space_group_crystal_system       triclinic
_cell_length_a                    14.021607
_cell_length_b                    14.936742
_cell_length_c                    15.529575
_cell_angle_alpha                 89.482311
_cell_angle_beta                  66.684015
_cell_angle_gamma                 91.17601
_cell_volume                      2985.70919489

loop_
_atom_site_label
_atom_site_type_symbol
_atom_type_description
_atom_site_fract_x
_atom_site_fract_y
_atom_site_fract_z
_atom_type_partial_charge
C1    C     C_R   0.502391 0.673120 0.497006 0.993456
C2    C     C_R   0.507828 0.768667 0.492287 -0.187307
C3    C     C_R   0.491674 0.187927 0.428678 -0.279646
C4    C     C_R   0.510279 0.812204 0.570027 -0.274091
C5    C     C_R   0.490939 0.095609 0.426748 0.130316
C6    C     C_R   0.512195 0.904513 0.571396 0.128667
C7    C     C_R   0.499115 0.046726 0.501436 0.041312
C8    C     C_R   0.504190 0.953358 0.496612 0.036076
C9    C     C_R   0.501495 0.091056 0.581075 -0.027608
C10   C     C_R   0.501479 0.908952 0.417124 -0.006548
C11   C     C_R   0.482615 0.051751 0.350993 -0.184737
C12   C     C_R   0.497733 0.326868 0.502795 1.002642
C13   C     C_R   0.521265 0.948403 0.646822 -0.170475
C14   C     C_R   0.485538 0.959120 0.347184 -0.065189
C15   C     C_R   0.518321 0.041014 0.650613 -0.106114
C16   C     C_R   0.434351 0.502431 0.676902 0.997348
C17   C     C_R   0.565469 0.496895 0.323343 0.999717
C18   C     C_R   0.181806 0.430980 0.542112 0.055766
C19   C     C_R   0.818341 0.568820 0.457537 -0.000770
C20   C     C_R   0.223078 0.568257 0.455866 -0.016468
C21   C     C_R   0.777912 0.430460 0.541878 0.059491
C22   C     C_R   0.122741 0.570938 0.454313 -0.110010
C23   C     C_R   0.371993 0.498876 0.110790 -0.165463
C24   C     C_R   0.878950 0.426885 0.541742 -0.120491
C25   C     C_R   0.051268 0.499730 0.498479 0.047878
C26   C     C_R   0.949829 0.498850 0.498951 0.039635
C27   C     C_R   0.081468 0.428969 0.541854 -0.038756
C28   C     C_R   0.919436 0.569858 0.456025 -0.038553
C29   C     C_R   0.091573 0.641513 0.410051 0.354604
C30   C     C_R   0.911736 0.354309 0.582253 0.442003
C31   C     C_R   0.990362 0.640091 0.411833 -0.261192
C32   C     C_R   0.011831 0.357119 0.583052 -0.247217
C33   C     C_R   0.390700 0.501700 0.780275 -0.215271
C34   C     C_R   0.598471 0.417721 0.907287 -0.170721
C35   C     C_R   0.607046 0.484543 0.221347 -0.166674
C36   C     C_R   0.257495 0.524033 0.935700 -0.227260
C37   C     C_R   0.724655 0.421951 0.075146 -0.229316
C38   C     C_R   0.287457 0.524622 0.838226 0.429292
C39   C     C_R   0.703552 0.445208 0.168013 0.434359
C40   C     C_R   0.458880 0.477568 0.821603 -0.235001
C41   C     C_R   0.537925 0.502386 0.179234 -0.235067
C42   C     C_R   0.429714 0.476875 0.918430 0.095484
C43   C     C_R   0.553451 0.470509 0.090849 0.077118
C44   C     C_R   0.328229 0.503069 0.975626 0.071300
C45   C     C_R   0.299273 0.510503 0.071941 -0.129171
C46   C     C_R   0.650113 0.432792 0.037085 0.067424
C47   C     C_R   0.501588 0.456709 0.958938 0.072759
C48   C     C_R   0.475588 0.476380 0.054419 0.082305
C49   C     C_R   0.670921 0.405341 0.946202 -0.137074
C50   C     C_R   0.488335 0.184112 0.587387 0.365040
C51   C     C_R   0.513134 0.815676 0.411496 0.313487
C52   C     C_R   0.492890 0.231302 0.506958 -0.157448
H1    H     H_    0.220989 0.528531 0.117153 0.171985
H2    H     H_    0.531535 0.911066 0.702598 0.168512
H3    H     H_    0.471782 0.927817 0.290677 0.229992
H4    H     H_    0.532435 0.072441 0.706898 0.220100
H5    H     H_    0.206059 0.377293 0.575573 0.168218
H6    H     H_    0.793936 0.622699 0.424422 0.154432
H7    H     H_    0.163667 0.796257 0.478442 0.355096
H8    H     H_    0.727957 0.175953 0.589378 0.389654
H9    H     H_    0.966550 0.693898 0.378138 0.199253
H10   H     H_    0.036323 0.302446 0.615156 0.202622
H11   H     H_    0.470217 0.540434 0.217962 0.212379
H12   H     H_    0.743969 0.374791 0.904545 0.188748
H13   H     H_    0.537591 0.463679 0.776155 0.195200
H14   H     H_    0.895732 0.502251 0.263039 0.374842
H15   H     H_    0.202661 0.642303 0.676324 0.384784
H16   H     H_    0.343906 0.505489 0.185844 0.160855
H17   H     H_    0.619191 0.393032 0.837495 0.208131
H18   H     H_    0.315003 0.321462 0.770463 0.392595
H19   H     H_    0.699068 0.719323 0.302029 0.362821
H20   H     H_    0.280870 0.620038 0.421972 0.233308
H21   H     H_    0.720320 0.378443 0.575586 0.219495
H22   H     H_    0.179578 0.542768 0.980908 0.204927
H23   H     H_    0.798158 0.392581 0.032913 0.204269
H24   H     H_    0.490710 0.226564 0.369444 0.159152
H25   H     H_    0.511098 0.773678 0.629380 0.167264
H26   H     H_    0.472575 0.089117 0.295120 0.168519
N1    N     N_R   0.249980 0.499930 0.499960 -0.128915
N2    N     N_R   0.750020 0.500070 0.500040 -0.117106
O1    O     O_R   0.419720 0.632140 0.499980 -0.591456
O2    O     O_2   0.122116 0.800283 0.316430 -0.252859
O3    O     O_3   0.225359 0.781330 0.421807 -0.522697
O4    O     O_2   0.891578 0.185820 0.653066 -0.255028
O5    O     O_2   0.742384 0.283143 0.718584 -0.314295
O6    O     O_3   0.785190 0.218491 0.552843 -0.533455
O7    O     O_2   0.753698 0.357587 0.295240 -0.286044
O8    O     O_2   0.892266 0.381443 0.139456 -0.277613
O9    O     O_3   0.835321 0.518016 0.248577 -0.526920
O10   O     O_2   0.164586 0.479589 0.749906 -0.299646
O11   O     O_2   0.099710 0.593109 0.870549 -0.253512
O12   O     O_R   0.580280 0.367860 0.500020 -0.585740
O13   O     O_3   0.247527 0.640502 0.712074 -0.548594
O14   O     O_2   0.403428 0.176864 0.779245 -0.286371
O15   O     O_2   0.539232 0.291414 0.701666 -0.302207
O16   O     O_3   0.355248 0.312466 0.702639 -0.570100
O17   O     O_2   0.458420 0.709938 0.298762 -0.229493
O18   O     O_2   0.597684 0.820605 0.219017 -0.268911
O19   O     O_3   0.641685 0.683708 0.296073 -0.549904
O20   O     O_R   0.580270 0.632160 0.499970 -0.641266
O21   O     O_R   0.419730 0.367840 0.500030 -0.627081
O22   O     O_R   0.373870 0.499980 0.632250 -0.532951
O23   O     O_R   0.626130 0.500020 0.367750 -0.524910
O24   O     O_R   0.534420 0.500000 0.632240 -0.636904
O25   O     O_R   0.465580 0.500000 0.367760 -0.642400
O26   O     O_2   0.265158 0.695815 0.267254 -0.239785
S1    S     S_3+6 0.177029 0.731786 0.350309 0.048563
S2    S     S_3+6 0.831498 0.257920 0.630329 0.033826
S3    S     S_3+6 0.798578 0.422028 0.213334 0.055110
S4    S     S_3+6 0.195167 0.558652 0.793470 0.049122
S5    S     S_3+6 0.448224 0.240508 0.696599 0.011794
S6    S     S_3+6 0.551302 0.758504 0.302769 0.042615
Zn1   Zn    Zn3+2 0.392800 0.499980 0.500010 1.031569
Zn2   Zn    Zn3+2 0.607200 0.500020 0.499990 1.042568

loop_
_geom_bond_atom_site_label_1
_geom_bond_atom_site_label_2
_ccdc_geom_bond_type
C51   S6    S    
C23   C45   A    
C22   C29   A    
O9    S3    S    
O21   Zn1   S    
C31   H9    S    
H18   O16   S    
C7    C8    A    
C46   C49   A    
O11   S4    D    
O25   Zn1   S    
C24   C26   A    
C5    C11   A    
C20   C22   A    
C8    C10   A    
C11   C14   A    
O26   S1    D    
O19   S6    S    
C1    O1    A    
C21   H21   S    
O14   S5    D    
C1    C2    S    
C16   O24   A    
C18   N1    A    
C22   C25   A    
C50   C52   A    
C38   S4    S    
O5    S2    D    
C43   C48   A    
O13   S4    S    
C40   C42   A    
C14   H3    S    
C37   H23   S    
C45   H1    S    
C49   H12   S    
C41   C43   A    
C42   C44   A    
C10   C51   A    
C1    O20   A    
C12   C52   S    
H14   O9    S    
C19   H6    S    
O16   S5    S    
C33   C40   A    
O18   S6    D    
C9    C50   A    
O23   Zn2   S    
O20   Zn2   S    
C4    C6    A    
C10   C14   A    
C5    C7    A    
O17   S6    D    
H8    O6    S    
C6    C8    A    
C25   C26   A    
H19   O19   S    
C23   H16   S    
C35   C39   A    
C19   C28   A    
C11   H26   S    
C17   O25   A    
C16   C33   S    
C18   H5    S    
C47   C48   A    
C39   S3    S    
O2    S1    D    
C3    H24   S    
C34   H17   S    
C36   H22   S    
O24   Zn2   S    
O8    S3    D    
C16   O22   A    
N2    Zn2   S    
C40   H13   S    
C13   C15   A    
C36   C44   A    
C41   H11   S    
C44   C45   A    
C13   H2    S    
C7    C9    A    
C34   C49   A    
C23   C48   A    
C20   N1    A    
C30   S2    S    
C27   C32   A    
C12   O12   A    
C28   C31   A    
O6    S2    S    
C18   C27   A    
H7    O3    S    
C3    C5    A    
C3    C52   A    
O7    S3    D    
C25   C27   A    
C26   C28   A    
C33   C38   A    
C15   H4    S    
N1    Zn1   S    
C17   O23   A    
C32   H10   S    
C12   O21   A    
C29   C31   A    
O22   Zn1   S    
O15   S5    D    
C6    C13   A    
C30   C32   A    
O12   Zn2   S    
C2    C4    A    
C21   N2    A    
C36   C38   A    
C50   S5    S    
O4    S2    D    
O3    S1    S    
C42   C47   A    
C9    C15   A    
C19   N2    A    
C35   C41   A    
C43   C46   A    
C24   C30   A    
C2    C51   A    
C4    H25   S    
C37   C39   A    
C21   C24   A    
O1    Zn1   S    
H15   O13   S    
O10   S4    D    
C20   H20   S    
C34   C47   A    
C17   C35   S    
C37   C46   A    
C29   S1    S    
