data_mof_unit_36343.cif
_audit_creation_date              2012-10-26T18:50:22-0400
_audit_creation_method            fapswitch 2.2
_symmetry_space_group_name_H-M    P1
_symmetry_Int_Tables_number       1
_space_group_crystal_system       triclinic
_cell_length_a                    9.612335
_cell_length_b                    10.775213
_cell_length_c                    15.484752
_cell_angle_alpha                 87.592463
_cell_angle_beta                  74.187075
_cell_angle_gamma                 90.080194
_cell_volume                      1541.63818023

loop_
_atom_site_label
_atom_site_type_symbol
_atom_type_description
_atom_site_fract_x
_atom_site_fract_y
_atom_site_fract_z
_atom_type_partial_charge
C1    C     C_R   0.998631 0.262630 0.503013 0.541240
C2    C     C_R   0.224803 0.452200 0.045230 0.052027
C3    C     C_R   0.321279 0.503020 0.090316 0.007787
C4    C     C_R   0.918205 0.501699 0.671852 0.531370
C5    C     C_R   0.078184 0.426149 0.092877 0.133257
C6    C     C_R   0.030606 0.447672 0.184433 -0.103291
C7    C     C_R   0.269149 0.519450 0.183121 -0.151850
C8    C     C_R   0.078637 0.120598 0.647148 -0.111169
C9    C     C_R   0.118857 0.051539 0.714431 -0.125602
C10   C     C_R   0.119323 0.922470 0.714183 -0.119463
C11   C     C_R   0.079680 0.861695 0.646615 -0.097555
C12   C     C_R   0.669227 0.519807 0.904690 0.034313
C13   C     C_R   0.040387 0.929747 0.576935 0.030367
C14   C     C_R   0.039944 0.061000 0.577180 0.025330
C15   C     C_R   0.995738 0.128456 0.509039 0.002634
C16   C     C_R   0.998966 0.737090 0.502543 0.526653
C17   C     C_R   0.946742 0.067389 0.445001 -0.148028
C18   C     C_R   0.947016 0.939356 0.444819 -0.154194
C19   C     C_R   0.996379 0.870538 0.508639 0.006839
C20   C     C_R   0.697703 0.663061 0.379618 -0.086057
C21   C     C_R   0.651897 0.743913 0.321145 -0.174118
C22   C     C_R   0.508173 0.745850 0.322076 -0.179252
C23   C     C_R   0.761551 0.579505 0.948060 0.054583
C24   C     C_R   0.409513 0.666342 0.381012 -0.087547
C25   C     C_R   0.451388 0.581310 0.441367 0.161679
C26   C     C_R   0.601020 0.580516 0.441008 0.157869
C27   C     C_R   0.549047 0.423240 0.556133 -0.001617
C28   C     C_R   0.081722 0.499003 0.328071 0.532521
C29   C     C_R   0.401305 0.423139 0.556019 -0.004298
C30   C     C_R   0.872009 0.516551 0.769108 -0.003830
C31   C     C_R   0.126294 0.491142 0.230040 -0.041077
C32   C     C_R   0.906809 0.605511 0.902298 -0.147919
C33   C     C_R   0.961899 0.573992 0.813294 -0.154999
C34   C     C_R   0.520531 0.497896 0.951220 0.033629
C35   C     C_R   0.729130 0.485986 0.815562 -0.127656
C36   C     C_3   0.954634 0.243016 0.065114 -0.309421
C37   C     C_R   0.468314 0.530659 0.042421 0.033993
C38   C     C_R   0.564509 0.591240 0.082473 -0.133504
C39   C     C_R   0.707933 0.614443 0.036208 -0.118835
C40   C     C_R   0.421870 0.446319 0.909147 -0.144551
C41   C     C_R   0.278074 0.424703 0.954841 -0.140046
Cu1   Cu    Cu3+1 0.140660 0.499990 0.500010 0.913073
Cu2   Cu    Cu3+1 0.859340 0.500010 0.499990 0.921377
H1    H     H_    0.777277 0.661191 0.069697 0.111462
H2    H     H_    0.728717 0.805856 0.274953 0.111072
H3    H     H_    0.338996 0.549730 0.221914 0.126709
H4    H     H_    0.472570 0.809297 0.276552 0.116653
H5    H     H_    0.302236 0.675908 0.375858 0.180910
H6    H     H_    0.325907 0.360078 0.601973 0.108817
H7    H     H_    0.919374 0.425619 0.220590 0.147813
H8    H     H_    0.210625 0.383068 0.918082 0.108913
H9    H     H_    0.977435 0.651546 0.935197 0.110285
H10   H     H_    0.072806 0.598561 0.778254 0.120920
H11   H     H_    0.667056 0.437093 0.779316 0.111960
H12   H     H_    0.911169 0.119366 0.393594 0.125324
H13   H     H_    0.532137 0.625688 0.149084 0.107890
H14   H     H_    0.450833 0.422417 0.839838 0.098241
H15   H     H_    0.986117 0.407010 0.986359 0.255523
H16   H     H_    0.868296 0.213370 0.034897 0.146403
H17   H     H_    0.920323 0.216610 0.138041 0.153295
H18   H     H_    0.055954 0.194181 0.032614 0.137959
H19   H     H_    0.075466 0.220413 0.651832 0.125276
H20   H     H_    0.147999 0.098365 0.767627 0.104784
H21   H     H_    0.148780 0.869087 0.767190 0.109335
H22   H     H_    0.077634 0.761407 0.650767 0.140668
H23   H     H_    0.911547 0.893692 0.393310 0.108663
H24   H     H_    0.583699 0.360244 0.602212 0.113664
H25   H     H_    0.809976 0.669535 0.373826 0.178496
N1    N     N_R   0.648320 0.501210 0.499140 -0.243023
N2    N     N_R   0.352470 0.501290 0.499110 -0.242181
N3    N     N_2   0.976598 0.375909 0.051375 -0.523955
O1    O     O_R   0.118810 0.319640 0.500010 -0.496515
O2    O     O_R   0.881240 0.319660 0.500000 -0.498265
O3    O     O_R   0.055570 0.499980 0.629840 -0.517086
O4    O     O_R   0.818000 0.500010 0.629830 -0.499158
O5    O     O_R   0.118760 0.680340 0.500000 -0.526618
O6    O     O_R   0.881190 0.680360 0.499990 -0.510785
O7    O     O_R   0.182000 0.499990 0.370170 -0.513442
O8    O     O_R   0.944430 0.500020 0.370160 -0.524669

loop_
_geom_bond_atom_site_label_1
_geom_bond_atom_site_label_2
_ccdc_geom_bond_type
Cu2   O2    S    
C27   C29   A    
C34   C37   A    
C36   H16   S    
C29   H6    S    
C12   C23   A    
C30   C35   A    
C34   C40   A    
C18   C19   A    
C3    C7    A    
C5    C6    A    
H15   N3    S    
C2    C41   A    
Cu2   O8    S    
Cu1   N2    S    
C16   O6    A    
C28   O8    A    
C32   H9    S    
C4    O4    A    
C8    C9    A    
C1    C15   S    
C28   O7    A    
C9    C10   A    
C17   H12   S    
C4    O3    A    
C27   N1    A    
C36   N3    S    
C6    C31   A    
Cu2   N1    S    
C16   O5    A    
C13   C14   A    
C35   H11   S    
C33   H10   S    
C21   H2    S    
Cu2   O4    S    
Cu1   O3    S    
C1    O1    A    
C7    C31   A    
C13   C19   A    
C24   H5    S    
C7    H3    S    
C24   C25   A    
C25   C26   A    
C37   C38   A    
Cu1   O1    S    
C17   C18   A    
C6    H7    S    
C12   C35   A    
C40   C41   A    
Cu1   O7    S    
C22   C24   A    
C2    C5    A    
C18   H23   S    
Cu1   Cu2   S    
C12   C34   A    
C36   H18   S    
C29   N2    A    
C15   C17   A    
C8    C14   A    
C40   H14   S    
C30   C33   A    
C9    H20   S    
C20   H25   S    
C28   C31   S    
C10   H21   S    
C36   H17   S    
C39   H1    S    
Cu2   O6    S    
Cu1   O5    S    
C1    O2    A    
C23   C32   A    
C2    C3    A    
C5    N3    S    
C32   C33   A    
C11   C13   A    
C38   C39   A    
C20   C26   A    
C16   C19   S    
C23   C39   A    
C22   H4    S    
C27   H24   S    
C10   C11   A    
C38   H13   S    
C20   C21   A    
C3    C37   A    
C26   N1    A    
C14   C15   A    
C25   N2    A    
C21   C22   A    
C41   H8    S    
C4    C30   S    
C11   H22   S    
C8    H19   S    
