data_mof_unit_13227.cif
_audit_creation_date              2012-12-11T16:08:53-0500
_audit_creation_method            fapswitch 2.2
_symmetry_space_group_name_H-M    P1
_symmetry_Int_Tables_number       1
_space_group_crystal_system       triclinic
_cell_length_a                    12.955919
_cell_length_b                    13.312298
_cell_length_c                    27.743829
_cell_angle_alpha                 94.674983
_cell_angle_beta                  90.333413
_cell_angle_gamma                 119.125648
_cell_volume                      4160.41616544

loop_
_atom_site_label
_atom_site_type_symbol
_atom_type_description
_atom_site_fract_x
_atom_site_fract_y
_atom_site_fract_z
_atom_type_partial_charge
C1    C     C_R   0.628194 0.895331 0.427550 0.545982
C2    C     C_R   0.137856 0.736512 0.304151 0.038401
C3    C     C_3   0.155589 0.511723 0.321278 -0.327666
C4    C     C_R   0.109172 0.713815 0.203594 -0.022505
C5    C     C_R   0.601002 0.222628 0.440826 0.543724
C6    C     C_R   0.076822 0.616112 0.228138 -0.115335
C7    C     C_R   0.091714 0.626336 0.278313 0.147029
C8    C     C_R   0.090051 0.701429 0.154186 -0.122777
C9    C     C_R   0.112087 0.796682 0.128989 0.006845
C10   C     C_R   0.240956 0.958588 0.354023 -0.134844
C11   C     C_R   0.221962 0.946791 0.304120 0.011264
C12   C     C_R   0.171950 0.835752 0.278981 0.031325
C13   C     C_R   0.644807 0.415375 0.237292 -0.142355
C14   C     C_R   0.258563 0.044639 0.278734 -0.134216
C15   C     C_R   0.243108 0.032480 0.228411 -0.140536
C16   C     C_R   0.189626 0.922424 0.203126 0.021948
C17   C     C_R   0.269410 0.877201 0.425945 0.543740
C18   C     C_R   0.157337 0.824144 0.228579 0.053694
C19   C     C_R   0.164298 0.907809 0.153112 -0.144990
C20   C     C_R   0.213115 0.861104 0.378579 -0.017086
C21   C     C_R   0.754374 0.935142 0.358051 -0.131631
C22   C     C_R   0.760240 0.923456 0.308187 -0.014523
C23   C     C_R   0.758493 0.913598 0.207244 0.042163
C24   C     C_R   0.634681 0.399277 0.286496 -0.152541
C25   C     C_R   0.847346 0.011213 0.235383 0.166068
C26   C     C_R   0.850504 0.012372 0.285601 -0.106306
C27   C     C_R   0.758907 0.906063 0.156993 -0.115738
C28   C     C_R   0.684624 0.801798 0.129467 -0.030245
C29   C     C_R   0.626925 0.899294 0.565160 0.543981
C30   C     C_R   0.568333 0.755171 0.353571 -0.134706
C31   C     C_R   0.577161 0.738607 0.303547 -0.013145
C32   C     C_R   0.669845 0.826528 0.280503 0.039275
C33   C     C_R   0.491437 0.639240 0.275990 -0.110135
C34   C     C_R   0.495543 0.626686 0.225166 0.144388
C35   C     C_R   0.676164 0.331552 0.306417 0.019450
C36   C     C_R   0.584829 0.718698 0.201942 0.021666
C37   C     C_R   0.670986 0.819366 0.229876 0.000937
C38   C     C_R   0.594711 0.710156 0.151546 -0.131984
C39   C     C_R   0.653586 0.857045 0.380286 0.001175
C40   C     C_R   0.737674 0.293511 0.651891 -0.156179
C41   C     C_R   0.603911 0.228719 0.578141 0.565389
C42   C     C_R   0.750238 0.313773 0.702489 0.049782
C43   C     C_R   0.763198 0.341106 0.804442 -0.006161
C44   C     C_R   0.850956 0.329760 0.779424 -0.106807
C45   C     C_R   0.843823 0.313203 0.728713 0.162930
C46   C     C_R   0.694776 0.362616 0.207221 0.008699
C47   C     C_R   0.773278 0.362597 0.854976 -0.142285
C48   C     C_R   0.686523 0.377157 0.879463 -0.022061
C49   C     C_R   0.570055 0.328539 0.651147 0.097501
C50   C     C_R   0.574303 0.338435 0.701966 -0.006271
C51   C     C_R   0.663793 0.329621 0.727600 -0.006354
C52   C     C_R   0.487226 0.350845 0.727457 -0.115804
C53   C     C_R   0.272345 0.879522 0.563484 0.541448
C54   C     C_R   0.484705 0.349718 0.777569 0.130388
C55   C     C_R   0.576795 0.346312 0.803369 0.024315
C56   C     C_R   0.667301 0.337781 0.778443 0.009682
C57   C     C_1   0.700987 0.379575 0.156301 -0.064241
C58   C     C_R   0.584804 0.360003 0.853719 -0.123026
C59   C     C_R   0.642895 0.292113 0.626616 0.013514
C60   C     C_1   0.225136 0.862626 0.610530 -0.016444
C61   C     C_R   0.083429 0.741506 0.718917 0.151213
C62   C     C_R   0.067684 0.732312 0.768828 0.168850
C63   C     C_R   0.241200 0.921597 0.786819 -0.135881
C64   C     C_R   0.257900 0.932003 0.737135 0.087118
C65   C     C_1   0.633702 0.274089 0.396079 -0.022426
C66   C     C_R   0.178570 0.841857 0.703076 0.033548
C67   C     C_R   0.147487 0.822572 0.802710 -0.020157
C68   C     C_1   0.654285 0.305522 0.356020 -0.056608
C69   C     C_1   0.129924 0.814348 0.853803 -0.057236
C70   C     C_1   0.198842 0.851728 0.652108 -0.037729
C71   C     C_1   0.104192 0.798536 0.895213 -0.017764
C72   C     C_1   0.640978 0.867905 0.611901 -0.030053
C73   C     C_R   0.761041 0.869882 0.728602 0.130542
C74   C     C_R   0.763858 0.862174 0.778910 -0.102050
C75   C     C_R   0.551351 0.780605 0.779640 -0.080420
C76   C     C_R   0.545377 0.789220 0.729752 0.134740
C77   C     C_R   0.731324 0.281746 0.276950 0.195703
C78   C     C_R   0.650691 0.833278 0.704040 0.042913
C79   C     C_1   0.706980 0.401367 0.114683 -0.017502
C80   C     C_R   0.659869 0.816795 0.804026 -0.029141
C81   C     C_1   0.666577 0.803553 0.854716 -0.061396
C82   C     C_1   0.646824 0.848967 0.653262 -0.067706
C83   C     C_1   0.682402 0.791831 0.896241 -0.011406
C84   C     C_R   0.063167 0.770740 0.079489 0.544585
C85   C     C_R   0.717634 0.442418 0.067683 0.546027
C86   C     C_R   0.720668 0.781969 0.081260 0.543920
C87   C     C_R   0.057211 0.766510 0.941547 0.541932
C88   C     C_R   0.709995 0.434059 0.928944 0.540701
C89   C     C_R   0.739444 0.296404 0.227131 0.134265
C90   C     C_R   0.155121 0.750633 0.354319 -0.121333
C91   C     C_R   0.715962 0.776462 0.943199 0.544238
C92   C     C_3   0.862106 0.261899 0.335205 -0.313366
C93   C     C_3   0.040082 0.106238 0.203086 -0.336357
C94   C     C_3   0.344352 0.417710 0.218839 -0.320007
C95   C     C_3   0.902438 0.177246 0.695921 -0.299293
C96   C     C_3   0.295185 0.242799 0.811505 -0.320707
C97   C     C_3   0.903445 0.654671 0.668199 -0.287255
C98   C     C_3   0.870338 0.640563 0.799657 -0.278704
C99   C     C_3   0.981320 0.959684 0.727152 -0.324849
C100  C     C_3   0.348834 0.636302 0.702374 -0.304968
Cr1   Cr    Cr6+3 0.416430 0.829200 0.492370 1.016327
Cr2   Cr    Cr6+3 0.674630 0.087020 0.504170 1.012989
Cr3   Cr    Cr6+3 0.408920 0.083740 0.503490 1.032369
Cr4   Cr    Cr6+3 0.914010 0.832750 0.013970 1.021490
Cr5   Cr    Cr6+3 0.922310 0.578600 0.003000 1.016428
Cr6   Cr    Cr6+3 0.656280 0.574630 0.003870 1.024899
H1    H     H_    0.271243 0.108851 0.209373 0.102316
H2    H     H_    0.851550 0.374800 0.874785 0.124421
H3    H     H_    0.797045 0.271630 0.632201 0.164744
H4    H     H_    0.924600 0.332201 0.799275 0.095921
H5    H     H_    0.516999 0.369663 0.872768 0.179164
H6    H     H_    0.416814 0.356209 0.708784 0.104849
H7    H     H_    0.612231 0.468093 0.222448 0.148516
H8    H     H_    0.301540 0.990596 0.813178 0.113692
H9    H     H_    0.846514 0.890054 0.799078 0.113238
H10   H     H_    0.471397 0.747242 0.799562 0.129498
H11   H     H_    0.592462 0.437972 0.308821 0.118511
H12   H     H_    0.299380 0.130482 0.297777 0.104720
H13   H     H_    0.049193 0.614644 0.135932 0.139465
H14   H     H_    0.131571 0.676972 0.374578 0.158130
H15   H     H_    0.039991 0.531338 0.208242 0.103095
H16   H     H_    0.181826 0.981153 0.133431 0.107837
H17   H     H_    0.703703 0.129037 0.301606 0.260750
H18   H     H_    0.833830 0.208419 0.366287 0.141953
H19   H     H_    0.881173 0.350592 0.348369 0.168202
H20   H     H_    0.945331 0.267329 0.322407 0.136586
H21   H     H_    0.950704 0.186623 0.232308 0.280013
H22   H     H_    0.089591 0.116133 0.237528 0.141354
H23   H     H_    0.286420 0.044569 0.373015 0.136638
H24   H     H_    0.096026 0.178608 0.181513 0.135476
H25   H     H_    0.019962 0.023823 0.181803 0.171924
H26   H     H_    0.361823 0.538446 0.170717 0.249411
H27   H     H_    0.304862 0.344600 0.190041 0.140335
H28   H     H_    0.271936 0.418807 0.239502 0.132540
H29   H     H_    0.403793 0.403493 0.242948 0.146265
H30   H     H_    0.729449 0.186852 0.169983 0.237668
H31   H     H_    0.863633 0.306661 0.180916 0.219275
H32   H     H_    0.015685 0.347806 0.720351 0.246292
H33   H     H_    0.895846 0.140275 0.730996 0.162282
H34   H     H_    0.825688 0.977625 0.139398 0.173709
H35   H     H_    0.972560 0.170867 0.675311 0.156838
H36   H     H_    0.817011 0.126089 0.674502 0.174296
H37   H     H_    0.359488 0.402897 0.785734 0.244203
H38   H     H_    0.227947 0.254104 0.832266 0.140661
H39   H     H_    0.329038 0.197701 0.833386 0.151441
H40   H     H_    0.252215 0.188746 0.776979 0.151034
H41   H     H_    0.503921 0.433308 0.635144 0.214490
H42   H     H_    0.402412 0.289532 0.630602 0.239898
H43   H     H_    0.046766 0.628151 0.657366 0.246039
H44   H     H_    0.931797 0.728349 0.645801 0.128873
H45   H     H_    0.822273 0.012426 0.378649 0.127018
H46   H     H_    0.854758 0.665963 0.699061 0.170218
H47   H     H_    0.842368 0.573558 0.645749 0.150323
H48   H     H_    0.998058 0.590012 0.808197 0.250401
H49   H     H_    0.854069 0.622582 0.838130 0.142350
H50   H     H_    0.791206 0.577080 0.776854 0.165541
H51   H     H_    0.882465 0.728040 0.796015 0.131940
H52   H     H_    0.414228 0.009550 0.705488 0.240880
H53   H     H_    0.401713 0.094204 0.750430 0.231787
H54   H     H_    0.859238 0.875919 0.667871 0.252217
H55   H     H_    0.052022 0.995755 0.700982 0.156457
H56   H     H_    0.921376 0.085227 0.307044 0.102864
H57   H     H_    0.986578 0.889131 0.743570 0.151294
H58   H     H_    0.996945 0.030132 0.755515 0.140788
H59   H     H_    0.436690 0.796875 0.675561 0.259948
H60   H     H_    0.263835 0.622057 0.685913 0.151106
H61   H     H_    0.331564 0.602838 0.738529 0.143067
H62   H     H_    0.382151 0.587715 0.678894 0.139214
H63   H     H_    0.993775 0.450368 0.283493 0.263514
H64   H     H_    0.157993 0.437879 0.300738 0.117165
H65   H     H_    0.141044 0.493153 0.359668 0.145321
H66   H     H_    0.242826 0.590682 0.319465 0.159736
H67   H     H_    0.537675 0.630157 0.129678 0.152051
H68   H     H_    0.420947 0.572464 0.294299 0.099904
H69   H     H_    0.491628 0.692909 0.370939 0.117271
N1    N     N_2   0.771576 0.209913 0.295998 -0.492982
N2    N     N_3   0.355264 0.033780 0.720974 -0.623556
N3    N     N_2   0.866918 0.915709 0.702202 -0.537816
N4    N     N_2   0.433768 0.758389 0.706665 -0.517940
N5    N     N_2   0.058995 0.525042 0.302117 -0.533565
N6    N     N_2   0.932650 0.109226 0.213528 -0.514545
N7    N     N_2   0.409524 0.524713 0.196756 -0.526425
N8    N     N_3   0.791967 0.242422 0.197226 -0.606498
N9    N     N_2   0.931766 0.297035 0.704410 -0.537985
N10   N     N_2   0.390390 0.354674 0.801771 -0.529443
N11   N     N_3   0.489208 0.350226 0.623996 -0.604864
N12   N     N_2   0.005131 0.647484 0.685257 -0.483873
N13   N     N_2   0.972167 0.630460 0.784542 -0.480650
O1    O     O_R   0.296680 0.802170 0.437540 -0.520899
O2    O     O_R   0.637200 0.461990 0.052510 -0.506266
O3    O     O_R   0.664790 0.681920 0.057970 -0.501219
O4    O     O_R   0.525380 0.838530 0.443500 -0.500251
O5    O     O_R   0.815840 0.852920 0.961840 -0.509232
O6    O     O_R   0.012100 0.822630 0.963670 -0.496103
O7    O     O_R   0.037010 0.668460 0.953040 -0.510939
O8    O     O_R   0.813390 0.478970 0.949660 -0.500535
O9    O     O_R   0.632250 0.456930 0.945520 -0.521750
O10   O     O_R   0.660200 0.677230 0.958780 -0.493907
O11   O     O_3   0.830870 0.661990 0.006950 -0.245118
O12   O     O_R   0.662610 0.183990 0.557860 -0.518187
O13   O     O_R   0.702130 0.995190 0.446810 -0.523483
O14   O     O_R   0.661770 0.181390 0.458760 -0.498389
O15   O     O_R   0.499820 0.198480 0.455280 -0.514141
O16   O     O_R   0.311660 0.976250 0.449080 -0.505780
O17   O     O_R   0.297580 0.804960 0.544440 -0.514073
O18   O     O_R   0.526220 0.841130 0.542590 -0.495096
O19   O     O_R   0.703030 0.997990 0.553710 -0.511300
O20   O     O_R   0.500730 0.201280 0.562180 -0.469786
O21   O     O_R   0.312500 0.978850 0.548170 -0.491525
O22   O     O_3   0.499990 0.999990 0.500010 -0.245382
O23   O     O_R   0.820790 0.857990 0.068830 -0.521187
O24   O     O_R   0.016700 0.827330 0.062850 -0.498400
O25   O     O_R   0.041970 0.673520 0.060040 -0.524383
O26   O     O_R   0.817980 0.483660 0.048840 -0.499756

loop_
_geom_bond_atom_site_label_1
_geom_bond_atom_site_label_2
_ccdc_geom_bond_type
Cr5   O8    S    
C55   C56   A    
C19   H16   S    
C73   C74   A    
C88   O8    A    
C2    C7    A    
C4    C8    A    
Cr1   O4    S    
C1    O13   A    
C92   H19   S    
Cr3   O21   S    
H17   N1    S    
C46   C89   A    
C92   N1    S    
C96   H39   S    
C77   C89   A    
C24   H11   S    
C22   C32   A    
C62   C67   A    
C100  H61   S    
C89   N8    S    
C36   C37   A    
H52   N2    S    
C76   C78   A    
Cr1   O1    S    
C92   H18   S    
C30   C31   A    
C91   O5    A    
C11   C14   A    
C95   N9    S    
C52   H6    S    
H42   N11   S    
C15   C16   A    
C53   O21   A    
C61   N12   S    
C17   C20   S    
C35   C68   S    
Cr4   O24   S    
C100  H60   S    
C51   C56   A    
C15   H1    S    
C69   C71   T    
C57   C79   T    
Cr3   O16   S    
C98   N13   S    
H26   N7    S    
C99   H55   S    
C91   O10   A    
C93   N6    S    
C61   C66   A    
C9    C19   A    
C13   H7    S    
C49   N11   S    
C31   C32   A    
C10   C20   A    
C8    C9    A    
C14   H12   S    
C54   N10   S    
C7    N5    S    
C50   C52   A    
Cr4   O5    S    
C31   C33   A    
C97   H47   S    
H43   N12   S    
H32   N9    S    
Cr2   O19   S    
H63   N5    S    
C42   C51   A    
Cr6   O10   S    
C29   C72   S    
C4    C18   A    
C76   N4    S    
C40   C42   A    
C2    C12   A    
C40   C59   A    
C74   C80   A    
C21   C22   A    
H37   N10   S    
Cr6   O3    S    
H53   N2    S    
C41   O12   A    
Cr3   O22   S    
C81   C83   T    
C53   C60   S    
C25   N6    S    
Cr4   O23   S    
C94   H29   S    
C63   C67   A    
H41   N11   S    
C98   H50   S    
C24   C35   A    
Cr5   O25   S    
C58   H5    S    
C3    N5    S    
C86   O23   A    
C41   C59   S    
C99   N3    S    
C4    C6    A    
C10   C11   A    
C5    O14   A    
Cr2   O22   S    
C38   H67   S    
C17   O1    A    
C85   O2    A    
C23   C37   A    
H48   N13   S    
C26   H56   S    
C29   O18   A    
C63   C64   A    
C13   C24   A    
C67   C69   S    
C42   C45   A    
C90   H14   S    
C88   O9    A    
C17   O16   A    
C43   C44   A    
Cr2   O12   S    
C96   H38   S    
C78   C82   S    
C47   H2    S    
C53   O17   A    
C47   C48   A    
C21   C39   A    
C98   H51   S    
C60   C70   T    
C73   C78   A    
C65   C68   T    
Cr5   O7    S    
C48   C88   S    
C33   C34   A    
C86   O3    A    
C52   C54   A    
C50   C51   A    
C32   C37   A    
Cr3   O20   S    
C33   H68   S    
H54   N3    S    
C40   H3    S    
Cr1   O17   S    
Cr6   O9    S    
C71   C87   S    
C73   N3    S    
C5    C65   S    
C95   H35   S    
C77   N1    S    
C23   C27   A    
C46   C57   S    
C28   C86   S    
H21   N6    S    
Cr4   O11   S    
C99   H57   S    
Cr6   O2    S    
C93   H24   S    
C63   H8    S    
C30   H69   S    
C79   C85   S    
C83   C91   S    
C84   O25   A    
C62   N13   S    
C75   C80   A    
C54   C55   A    
C97   N12   S    
C98   H49   S    
C75   C76   A    
Cr5   O26   S    
C14   C15   A    
C96   N10   S    
Cr2   O13   S    
C44   C45   A    
C87   O6    A    
C80   C81   S    
C2    C90   A    
C92   H20   S    
C5    O15   A    
C11   C12   A    
C84   O24   A    
C3    H64   S    
C48   C58   A    
C6    C7    A    
H31   N8    S    
Cr1   O22   S    
C96   H40   S    
C95   H33   S    
C27   H34   S    
C49   C59   A    
C100  H62   S    
C97   H44   S    
C41   O20   A    
C36   C38   A    
C25   C26   A    
C10   H23   S    
C87   O7    A    
C85   O26   A    
C64   N2    S    
C3    H65   S    
C66   C70   S    
C20   C90   A    
C94   H27   S    
C16   C19   A    
H59   N4    S    
C74   H9    S    
H30   N8    S    
C94   H28   S    
C97   H46   S    
C35   C77   A    
C30   C39   A    
C34   N7    S    
C29   O19   A    
C34   C36   A    
C21   H45   S    
Cr2   O14   S    
C61   C62   A    
C3    H66   S    
Cr3   O15   S    
C93   H22   S    
Cr1   O18   S    
C1    C39   S    
C9    C84   S    
C99   H58   S    
C1    O4    A    
C43   C56   A    
Cr5   O11   S    
C23   C25   A    
C45   N9    S    
C95   H36   S    
C16   C18   A    
C49   C50   A    
C22   C26   A    
C55   C58   A    
C12   C18   A    
C27   C28   A    
Cr4   O6    S    
C13   C46   A    
C75   H10   S    
C94   N7    S    
C6    H15   S    
C28   C38   A    
C93   H25   S    
C100  N4    S    
C43   C47   A    
C72   C82   T    
C8    H13   S    
C64   C66   A    
Cr6   O11   S    
C44   H4    S    
