data_mof_unit_12750.cif
_audit_creation_date              2012-12-11T15:31:36-0500
_audit_creation_method            fapswitch 2.2
_symmetry_space_group_name_H-M    P1
_symmetry_Int_Tables_number       1
_space_group_crystal_system       triclinic
_cell_length_a                    13.573075
_cell_length_b                    13.59373
_cell_length_c                    27.674124
_cell_angle_alpha                 90.269015
_cell_angle_beta                  90.350183
_cell_angle_gamma                 119.999612
_cell_volume                      4421.78470828

loop_
_atom_site_label
_atom_site_type_symbol
_atom_type_description
_atom_site_fract_x
_atom_site_fract_y
_atom_site_fract_z
_atom_type_partial_charge
C1    C     C_R   0.619416 0.898653 0.431203 0.544446
C2    C     C_R   0.072705 0.781681 0.271016 -0.107073
C3    C     C_R   0.053840 0.772012 0.221037 -0.103083
C4    C     C_R   0.599549 0.218352 0.431261 0.544849
C5    C     C_R   0.255787 0.895572 0.207713 -0.104938
C6    C     C_R   0.274649 0.905366 0.257717 -0.101422
C7    C     C_R   0.183261 0.848028 0.289468 0.037945
C8    C     C_R   0.145330 0.828345 0.189266 0.038166
C9    C     C_1   0.124244 0.813625 0.137955 -0.056849
C10   C     C_1   0.205117 0.854568 0.340696 -0.057956
C11   C     C_1   0.097116 0.794383 0.095903 -0.012319
C12   C     C_R   0.732101 0.437297 0.222590 -0.105388
C13   C     C_1   0.634424 0.869454 0.383025 -0.032937
C14   C     C_R   0.593182 0.741416 0.267811 -0.121933
C15   C     C_R   0.595817 0.726014 0.218052 -0.116076
C16   C     C_R   0.279436 0.878874 0.430550 0.544937
C17   C     C_R   0.727058 0.926825 0.209300 -0.107540
C18   C     C_R   0.726148 0.945303 0.259391 0.015133
C19   C     C_R   0.657686 0.849485 0.289139 0.051942
C20   C     C_R   0.662593 0.818733 0.188711 0.022501
C21   C     C_1   0.674198 0.802246 0.138071 -0.059441
C22   C     C_1   0.646195 0.857318 0.340613 -0.068770
C23   C     C_R   0.720998 0.419890 0.272488 -0.111249
C24   C     C_1   0.691690 0.788710 0.096579 -0.013797
C25   C     C_R   0.632270 0.260421 0.618733 0.027175
C26   C     C_R   0.684142 0.212250 0.646537 -0.123783
C27   C     C_R   0.690662 0.224290 0.696137 -0.126191
C28   C     C_R   0.620441 0.900933 0.569095 0.539935
C29   C     C_R   0.649745 0.288681 0.718800 0.036219
C30   C     C_R   0.604979 0.343684 0.690699 -0.118386
C31   C     C_R   0.594179 0.327696 0.640844 -0.133227
C32   C     C_R   0.566250 0.303929 0.795724 -0.130957
C33   C     C_R   0.578736 0.332607 0.844175 -0.139068
C34   C     C_R   0.665157 0.309258 0.290540 0.032011
C35   C     C_R   0.755480 0.327356 0.847643 -0.005882
C36   C     C_R   0.744008 0.303058 0.798168 -0.104015
C37   C     C_R   0.653134 0.297934 0.771611 0.024394
C38   C     C_R   0.678019 0.354813 0.869545 0.025126
C39   C     C_R   0.225633 0.863817 0.615356 0.023313
C40   C     C_R   0.600643 0.220285 0.569261 0.539220
C41   C     C_R   0.242381 0.958430 0.642629 -0.126255
C42   C     C_R   0.217405 0.947352 0.691529 -0.121314
C43   C     C_R   0.173582 0.841228 0.713647 0.035747
C44   C     C_R   0.148744 0.745096 0.685612 -0.120164
C45   C     C_R   0.687640 0.344274 0.190541 0.038584
C46   C     C_R   0.175089 0.756383 0.636763 -0.127291
C47   C     C_R   0.181203 0.759776 0.793098 -0.119880
C48   C     C_R   0.152980 0.741478 0.841736 -0.136999
C49   C     C_R   0.081145 0.872710 0.837462 -0.125343
C50   C     C_R   0.108198 0.890033 0.788858 -0.122036
C51   C     C_R   0.155076 0.830982 0.765972 0.036687
C52   C     C_R   0.280146 0.881630 0.568322 0.541400
C53   C     C_R   0.098936 0.794664 0.863730 0.022088
C54   C     C_R   0.638029 0.863490 0.616217 0.021105
C55   C     C_R   0.545374 0.772122 0.638941 -0.125061
C56   C     C_1   0.694302 0.364218 0.139317 -0.059285
C57   C     C_R   0.550583 0.753367 0.687837 -0.122827
C58   C     C_R   0.649304 0.824104 0.714595 0.036537
C59   C     C_R   0.745209 0.909662 0.691097 -0.124053
C60   C     C_R   0.739462 0.929637 0.642205 -0.135808
C61   C     C_R   0.708231 0.904950 0.797601 -0.120608
C62   C     C_R   0.721785 0.890913 0.846438 -0.129454
C63   C     C_R   0.612149 0.686267 0.835543 -0.129187
C64   C     C_1   0.630459 0.263882 0.383608 -0.020653
C65   C     C_R   0.600446 0.700255 0.786625 -0.124300
C66   C     C_R   0.651706 0.809615 0.767012 0.036436
C67   C     C_1   0.649241 0.289458 0.341664 -0.067003
C68   C     C_R   0.677315 0.781416 0.865247 0.024500
C69   C     C_R   0.049411 0.761127 0.048217 0.546922
C70   C     C_R   0.714328 0.435628 0.049694 0.542984
C71   C     C_R   0.723508 0.770817 0.049438 0.545592
C72   C     C_R   0.044032 0.756095 0.910560 0.541722
C73   C     C_R   0.705925 0.424844 0.913602 0.536019
C74   C     C_R   0.716882 0.765299 0.912048 0.540192
C75   C     C_R   0.622023 0.216213 0.258536 -0.115550
C76   C     C_R   0.633168 0.233612 0.208624 -0.114370
C77   C     C_3   0.802828 0.068748 0.275573 -0.268599
C78   C     C_1   0.701666 0.390088 0.097340 -0.014433
C79   C     C_3   0.801349 0.101102 0.328580 -0.284566
C80   C     C_3   0.881269 0.228066 0.337143 -0.443437
C81   C     C_3   0.848845 0.320626 0.875020 -0.245609
C82   C     C_3   0.966768 0.418892 0.861837 -0.282461
C83   C     C_3   0.058775 0.423142 0.895182 -0.437203
C84   C     C_1   0.232266 0.862982 0.382735 -0.013547
Cr1   Cr    Cr6+3 0.417720 0.831920 0.499820 1.020525
Cr2   Cr    Cr6+3 0.668190 0.085770 0.500360 1.010768
Cr3   Cr    Cr6+3 0.414060 0.082260 0.499840 1.023048
Cr4   Cr    Cr6+3 0.908000 0.821090 0.979770 1.019964
Cr5   Cr    Cr6+3 0.912420 0.571130 0.979880 1.004546
Cr6   Cr    Cr6+3 0.657970 0.566940 0.980940 1.019526
H1    H     H_    0.578930 0.130214 0.272185 0.105420
H2    H     H_    0.598201 0.161093 0.184255 0.106410
H3    H     H_    0.553463 0.364748 0.619863 0.118172
H4    H     H_    0.282239 0.042563 0.627122 0.135007
H5    H     H_    0.220659 0.716030 0.776392 0.104380
H6    H     H_    0.168933 0.682282 0.861523 0.120387
H7    H     H_    0.237555 0.022771 0.712441 0.102746
H8    H     H_    0.086981 0.945125 0.768690 0.101467
H9    H     H_    0.039133 0.914714 0.853461 0.133963
H10   H     H_    0.111651 0.661753 0.701730 0.103714
H11   H     H_    0.160909 0.682171 0.616339 0.124977
H12   H     H_    0.546900 0.641475 0.202567 0.118884
H13   H     H_    0.465830 0.719615 0.619843 0.131296
H14   H     H_    0.773951 0.523283 0.208951 0.104825
H15   H     H_    0.745188 0.990226 0.783479 0.097796
H16   H     H_    0.771733 0.965332 0.868939 0.117217
H17   H     H_    0.475399 0.686985 0.705083 0.099194
H18   H     H_    0.556815 0.625351 0.763808 0.098965
H19   H     H_    0.578012 0.600812 0.849161 0.129890
H20   H     H_    0.823627 0.962989 0.710782 0.100776
H21   H     H_    0.812243 0.000183 0.625446 0.124574
H22   H     H_    0.754665 0.492374 0.296847 0.106935
H23   H     H_    0.780058 0.997635 0.186025 0.107042
H24   H     H_    0.001534 0.736560 0.295136 0.106572
H25   H     H_    0.968036 0.719620 0.207123 0.105921
H26   H     H_    0.327152 0.939288 0.183565 0.108491
H27   H     H_    0.360647 0.956520 0.271629 0.107131
H28   H     H_    0.540436 0.668183 0.289888 0.116249
H29   H     H_    0.970558 0.250836 0.329833 0.151559
H30   H     H_    0.857775 0.278748 0.313331 0.164664
H31   H     H_    0.875394 0.249817 0.375348 0.161023
H32   H     H_    0.713961 0.080730 0.338493 0.178617
H33   H     H_    0.831213 0.055101 0.352083 0.183076
H34   H     H_    0.711990 0.157524 0.630474 0.141211
H35   H     H_    0.891812 0.093151 0.266362 0.146220
H36   H     H_    0.779711 0.122187 0.253230 0.145715
H37   H     H_    0.044059 0.439816 0.933034 0.164906
H38   H     H_    0.058744 0.341472 0.893386 0.142232
H39   H     H_    0.143472 0.492411 0.883807 0.134102
H40   H     H_    0.986939 0.408351 0.823970 0.138746
H41   H     H_    0.967450 0.500645 0.864389 0.208031
H42   H     H_    0.835435 0.317716 0.914602 0.160141
H43   H     H_    0.844500 0.238830 0.865711 0.120833
H44   H     H_    0.491260 0.292424 0.776635 0.102068
H45   H     H_    0.514130 0.346106 0.860565 0.131606
H46   H     H_    0.723203 0.178823 0.716623 0.099498
H47   H     H_    0.808794 0.292300 0.780349 0.095098
H48   H     H_    0.575971 0.396861 0.707295 0.102654
O1    O     O_R   0.302900 0.805360 0.446400 -0.506411
O2    O     O_R   0.638120 0.455970 0.034270 -0.505401
O3    O     O_R   0.667540 0.672320 0.030160 -0.493523
O4    O     O_R   0.522090 0.841370 0.450730 -0.489860
O5    O     O_R   0.814460 0.840990 0.926980 -0.521514
O6    O     O_R   0.001710 0.811400 0.930110 -0.502987
O7    O     O_R   0.023410 0.659800 0.926210 -0.528836
O8    O     O_R   0.806940 0.473170 0.931090 -0.504701
O9    O     O_R   0.633420 0.451310 0.927930 -0.525738
O10   O     O_R   0.663190 0.668000 0.931580 -0.503565
O11   O     O_3   0.826130 0.653050 0.980200 -0.241129
O12   O     O_R   0.657980 0.180990 0.549630 -0.507220
O13   O     O_R   0.693280 0.995650 0.447220 -0.515308
O14   O     O_R   0.657260 0.178740 0.451050 -0.499671
O15   O     O_R   0.502640 0.195380 0.446850 -0.503032
O16   O     O_R   0.319630 0.976590 0.450330 -0.493429
O17   O     O_R   0.303680 0.807790 0.552740 -0.520918
O18   O     O_R   0.522820 0.843620 0.549310 -0.503553
O19   O     O_R   0.694060 0.998080 0.553560 -0.524571
O20   O     O_R   0.503420 0.197810 0.553190 -0.517308
O21   O     O_R   0.320350 0.978840 0.548910 -0.504539
O22   O     O_3   0.499990 0.999990 0.500010 -0.244714
O23   O     O_R   0.819150 0.845650 0.033320 -0.508087
O24   O     O_R   0.006060 0.815720 0.028680 -0.492882
O25   O     O_R   0.028100 0.664460 0.032550 -0.506519
O26   O     O_R   0.811290 0.477490 0.029660 -0.497614

loop_
_geom_bond_atom_site_label_1
_geom_bond_atom_site_label_2
_ccdc_geom_bond_type
C25   C31   A    
C7    C10   S    
C74   O5    A    
C80   H30   S    
C70   O2    A    
C30   H48   S    
C27   C29   A    
C2    H24   S    
C41   C42   A    
C2    C7    A    
C83   H38   S    
C75   C76   A    
C59   H20   S    
C63   C65   A    
C81   C82   S    
C35   C81   S    
C17   H23   S    
C39   C41   A    
C41   H4    S    
C54   C60   A    
C52   O17   A    
Cr5   O7    S    
C23   H22   S    
C12   C23   A    
C26   C27   A    
C29   C30   A    
C73   O9    A    
C45   C76   A    
C27   H46   S    
C74   O10   A    
C36   C37   A    
C83   H39   S    
Cr2   O12   S    
C25   C40   S    
C30   C31   A    
C49   C53   A    
C70   C78   S    
C68   C74   S    
C72   O7    A    
C55   H13   S    
C16   C84   S    
C17   C20   A    
C56   C78   T    
Cr3   O22   S    
C18   C19   A    
Cr1   O17   S    
C49   C50   A    
Cr6   O10   S    
C1    O4    A    
C48   H6    S    
C63   C68   A    
C61   C66   A    
C58   C66   S    
C35   C36   A    
C45   C56   S    
C8    C9    S    
C14   H28   S    
Cr3   O15   S    
C1    O13   A    
Cr1   O22   S    
C82   H40   S    
C61   H15   S    
C36   H47   S    
Cr1   O1    S    
C6    H27   S    
C75   H1    S    
C34   C75   A    
C71   O3    A    
C52   O21   A    
Cr5   O11   S    
C4    O15   A    
C80   H29   S    
C59   C60   A    
Cr5   O8    S    
C26   H34   S    
Cr6   O11   S    
Cr5   O25   S    
C79   H32   S    
C44   C46   A    
C50   C51   A    
C80   H31   S    
C77   C79   S    
C15   C20   A    
C4    O14   A    
C46   H11   S    
C50   H8    S    
C64   C67   T    
C19   C22   S    
C69   O24   A    
C3    C8    A    
C42   H7    S    
C28   C54   S    
C81   H42   S    
C47   C51   A    
C25   C26   A    
C31   H3    S    
C79   H33   S    
Cr4   O11   S    
Cr1   O18   S    
C63   H19   S    
C43   C44   A    
Cr4   O5    S    
Cr6   O9    S    
Cr2   O14   S    
C49   H9    S    
C33   H45   S    
C47   C48   A    
C23   C34   A    
C35   C38   A    
C17   C18   A    
Cr3   O16   S    
C40   O12   A    
C65   H18   S    
Cr5   O26   S    
C32   C37   A    
C81   H43   S    
C9    C11   T    
C76   H2    S    
C39   C46   A    
C57   H17   S    
C65   C66   A    
C55   C57   A    
C5    H26   S    
C16   O16   A    
C16   O1    A    
C1    C13   S    
C42   C43   A    
C77   H35   S    
C40   O20   A    
C72   O6    A    
C54   C55   A    
C71   O23   A    
C14   C19   A    
C69   O25   A    
C83   H37   S    
C12   C45   A    
C70   O26   A    
C34   C67   S    
C5    C8    A    
Cr6   O2    S    
C11   C69   S    
C12   H14   S    
C6    C7    A    
C62   H16   S    
C48   C53   A    
C4    C64   S    
C33   C38   A    
Cr3   O20   S    
C62   C68   A    
C73   O8    A    
C32   C33   A    
C2    C3    A    
C58   C59   A    
C60   H21   S    
C3    H25   S    
Cr2   O13   S    
C32   H44   S    
C44   H10   S    
C43   C51   S    
C57   C58   A    
C5    C6    A    
C18   C77   S    
Cr4   O24   S    
C10   C84   T    
C28   O19   A    
Cr3   O21   S    
C13   C22   T    
C39   C52   S    
Cr1   O4    S    
C15   H12   S    
C61   C62   A    
Cr2   O19   S    
Cr6   O3    S    
C79   C80   S    
C20   C21   S    
C82   C83   S    
C21   C24   T    
C29   C37   S    
C28   O18   A    
C47   H5    S    
C14   C15   A    
C82   H41   S    
C53   C72   S    
Cr2   O22   S    
Cr4   O6    S    
C77   H36   S    
Cr4   O23   S    
C24   C71   S    
C38   C73   S    
