data_mof_unit_47429.cif
_audit_creation_date              2012-12-10T18:27:56-0500
_audit_creation_method            fapswitch 2.2
_symmetry_space_group_name_H-M    P1
_symmetry_Int_Tables_number       1
_space_group_crystal_system       triclinic
_cell_length_a                    18.29317
_cell_length_b                    18.384565
_cell_length_c                    18.430729
_cell_angle_alpha                 90.845031
_cell_angle_beta                  119.028461
_cell_angle_gamma                 119.684271
_cell_volume                      4435.22300596

loop_
_atom_site_label
_atom_site_type_symbol
_atom_type_description
_atom_site_fract_x
_atom_site_fract_y
_atom_site_fract_z
_atom_type_partial_charge
C1    C     C_R   0.781873 0.641678 0.640359 0.888629
C2    C     C_3   0.061008 0.196287 0.295872 -0.167536
C3    C     C_2   0.579080 0.334543 0.139559 0.602518
C4    C     C_3   0.701765 0.332782 0.270322 -0.873552
C5    C     C_2   0.647115 0.305949 0.443247 0.490453
C6    C     C_2   0.639831 0.188067 0.333442 0.307341
C7    C     C_2   0.498913 0.883235 0.676138 0.436321
C8    C     C_2   0.330444 0.277451 0.175751 0.483495
C9    C     C_3   0.344260 0.186971 0.061047 -0.743998
C10   C     C_2   0.306130 0.084025 0.137441 0.412040
C11   C     C_3   0.470139 0.184752 0.386574 -0.696955
C12   C     C_3   0.472807 0.077151 0.283604 -0.688358
C13   C     C_3   0.103583 0.301603 0.305637 -0.155739
C14   C     C_2   0.635367 0.682527 0.290457 0.451390
C15   C     C_3   0.705000 0.810191 0.405358 -0.670310
C16   C     C_3   0.709896 0.898524 0.283999 -0.712582
C17   C     C_2   0.601002 0.761128 0.162698 0.387965
C18   C     C_3   0.411767 0.563090 0.165517 -0.758812
C19   C     C_3   0.317561 0.675055 0.577117 -0.836920
C20   C     C_2   0.381222 0.667936 0.053946 0.392716
C21   C     C_2   0.388753 0.732027 0.331372 0.523787
C22   C     C_3   0.568870 0.826709 0.442636 -0.768994
C23   C     C_3   0.596939 0.942547 0.339387 -0.739085
C24   C     C_R   0.218474 0.359120 0.361589 0.792379
C25   C     C_2   0.416278 0.859126 0.252753 0.296899
C26   C     C_3   0.299613 0.570757 0.191264 -0.799074
C27   C     C_3   0.294892 0.693207 0.100806 -0.869197
C28   C     C_3   0.122562 0.436663 0.396060 -0.835304
C29   C     C_2   0.095776 0.314662 0.442048 0.313723
C30   C     C_2   0.882701 0.257266 0.326287 0.480780
C31   C     C_3   0.898791 0.199582 0.202567 -0.106799
C32   C     C_3   0.942763 0.239275 0.142753 0.051370
C33   C     C_3   0.939084 0.138171 0.247899 0.187684
C34   C     C_3   0.620533 0.345714 0.782536 0.000413
C35   C     C_3   0.617387 0.291312 0.851030 0.141955
C36   C     C_3   0.433846 0.296909 0.737994 -0.043633
C37   C     C_3   0.445674 0.199997 0.639552 0.054263
C38   C     C_3   0.584629 0.785095 0.831480 0.180601
C39   C     C_3   0.500328 0.301804 0.699519 -0.102616
C40   C     C_3   0.500466 0.198360 0.801055 -0.034050
C41   C     C_3   0.419214 0.221038 0.785607 -0.025795
C42   C     C_R   0.501294 0.642044 0.360015 0.804930
C43   C     C_3   0.463376 0.143358 0.703761 0.134331
C44   C     C_3   0.935206 0.775944 0.779818 0.277986
C45   C     C_3   0.057919 0.828925 0.847445 0.109055
C46   C     C_3   0.938731 0.636194 0.731429 0.130732
C47   C     C_3   0.940675 0.747821 0.637630 -0.009379
C48   C     C_3   0.897479 0.699318 0.696747 -0.092689
C49   C     C_3   0.582118 0.796199 0.747504 0.088071
C50   C     C_3   0.102022 0.801535 0.799836 -0.100660
C51   C     C_3   0.062967 0.697315 0.786638 0.201798
C52   C     C_3   0.064472 0.817284 0.702899 0.062635
C53   C     C_3   0.582209 0.368544 0.276591 -0.158988
C54   C     C_R   0.499936 0.359114 0.640993 0.981676
C55   C     C_3   0.588580 0.306789 0.220716 0.062123
C56   C     C_3   0.541234 0.243891 0.356614 0.035799
C57   C     C_3   0.394833 0.241299 0.220310 -0.242352
C58   C     C_3   0.507404 0.304974 0.305294 -0.167195
C59   C     C_3   0.503425 0.200463 0.201074 -0.031553
C60   C     C_3   0.499940 0.814493 0.717910 -0.019297
C61   C     C_3   0.538651 0.179015 0.293482 0.004190
C62   C     C_3   0.389369 0.179227 0.155347 0.053070
C63   C     C_3   0.609879 0.748335 0.308375 0.031250
C64   C     C_3   0.604532 0.803165 0.240071 0.072470
C65   C     C_3   0.403861 0.636268 0.200747 0.239183
C66   C     C_R   0.504346 0.359711 0.362511 0.925844
C67   C     C_3   0.492021 0.775893 0.339301 0.110799
C68   C     C_3   0.502060 0.700247 0.302860 -0.111692
C69   C     C_3   0.501162 0.803067 0.201472 -0.178926
C70   C     C_3   0.397118 0.700434 0.141274 0.061373
C71   C     C_3   0.415274 0.714293 0.668485 0.033333
C72   C     C_3   0.501493 0.843487 0.282815 0.121175
C73   C     C_R   0.500657 0.140834 0.859094 0.871738
C74   C     C_R   0.501195 0.860466 0.142788 0.771572
C75   C     C_R   0.782287 0.141166 0.142438 0.886989
C76   C     C_R   0.217919 0.859514 0.859050 0.794877
C77   C     C_R   0.499498 0.141436 0.140759 0.817238
C78   C     C_R   0.498361 0.639760 0.640887 0.828343
C79   C     C_R   0.501702 0.860264 0.859053 0.911750
C80   C     C_3   0.499980 0.684833 0.781741 0.056706
C81   C     C_3   0.417796 0.703093 0.752412 -0.041024
C82   C     C_3   0.497458 0.696160 0.697890 -0.033129
C83   C     C_3   0.502312 0.803387 0.801992 -0.095449
C84   C     C_2   0.325242 0.647407 0.754003 0.421161
C85   C     C_2   0.917189 0.351693 0.248445 0.297551
C86   C     C_3   0.093350 0.409647 0.209215 -0.840232
C87   C     C_3   0.887941 0.277323 0.078718 -0.773046
C88   C     C_2   0.088978 0.161154 0.243547 0.433936
C89   C     C_2   0.111670 0.179520 0.383259 0.508880
C90   C     C_3   0.906470 0.108340 0.312773 -0.723292
C91   C     C_3   0.888768 0.041818 0.187059 -0.762522
C92   C     C_3   0.129193 0.312046 0.173086 -0.718169
C93   C     C_3   0.062922 0.332773 0.353600 0.009533
C94   C     C_2   0.907467 0.161680 0.072151 0.348222
C95   C     C_3   0.692103 0.449873 0.834613 -0.798891
C96   C     C_3   0.499750 0.612065 0.819626 -0.771899
C97   C     C_2   0.681868 0.349696 0.745590 0.407621
C98   C     C_2   0.702616 0.276522 0.889291 0.473477
C99   C     C_3   0.656050 0.353484 0.940442 -0.848303
C100  C     C_2   0.483300 0.388107 0.799211 0.301333
C101  C     C_3   0.423826 0.245808 0.870328 -0.829935
C102  C     C_3   0.327453 0.152384 0.565041 -0.747599
C103  C     C_2   0.481826 0.193010 0.581583 0.405616
C104  C     C_3   0.940106 0.283430 0.281795 -0.036770
C105  C     C_3   0.544400 0.127382 0.714931 -0.713141
C106  C     C_3   0.365872 0.042125 0.653579 -0.677621
C107  C     C_2   0.331425 0.282462 0.670954 0.478682
C108  C     C_3   0.681927 0.824791 0.923354 -0.799305
C109  C     C_2   0.311093 0.133530 0.735195 0.323208
C110  C     C_3   0.880209 0.742175 0.830267 -0.810473
C111  C     C_3   0.899272 0.838415 0.746994 -0.908622
C112  C     C_3   0.111368 0.932276 0.882874 -0.743954
C113  C     C_2   0.083971 0.806683 0.934227 0.458761
C114  C     C_3   0.900087 0.583412 0.785158 -0.882253
C115  C     C_3   0.065566 0.313216 0.207997 0.345772
C116  C     C_3   0.115843 0.680234 0.876041 -0.778689
C117  C     C_3   0.906616 0.681057 0.553751 -0.696831
C118  C     C_2   0.889636 0.793176 0.588528 0.474450
C119  C     C_3   0.103440 0.917967 0.714946 -0.656421
C120  C     C_3   0.675692 0.848849 0.744602 -0.920925
C121  C     C_2   0.115544 0.806566 0.658592 0.520830
C122  C     C_2   0.889760 0.554674 0.656026 0.399697
C123  C     C_3   0.103598 0.669104 0.740910 -0.873526
C124  C     C_2   0.690302 0.444825 0.356123 0.297951
C125  C     C_2   0.544840 0.424224 0.228117 0.504321
H1    H     H_    0.351460 0.200858 0.246455 0.131225
H2    H     H_    0.038619 0.130371 0.173099 0.094701
H3    H     H_    0.478755 0.033866 0.247649 0.242881
H4    H     H_    0.503636 0.068013 0.348845 0.259563
H5    H     H_    0.391809 0.044226 0.256086 0.231795
H6    H     H_    0.603848 0.644079 0.226172 0.042565
H7    H     H_    0.776548 0.825874 0.414799 0.285327
H8    H     H_    0.726118 0.876866 0.425014 0.201618
H9    H     H_    0.697544 0.779656 0.454793 0.221684
H10   H     H_    0.773089 0.890207 0.307810 0.242091
H11   H     H_    0.714614 0.934380 0.237694 0.264824
H12   H     H_    0.737112 0.948890 0.339451 0.204019
H13   H     H_    0.179777 0.232336 0.442825 0.116155
H14   H     H_    0.545916 0.693195 0.122389 0.029793
H15   H     H_    0.450523 0.580919 0.132525 0.204999
H16   H     H_    0.444867 0.537854 0.217408 0.235211
H17   H     H_    0.336683 0.502367 0.112134 0.286187
H18   H     H_    0.275278 0.702163 0.577347 0.249893
H19   H     H_    0.336260 0.692443 0.528221 0.286841
H20   H     H_    0.268910 0.601848 0.559000 0.230499
H21   H     H_    0.420401 0.714374 0.029205 0.090921
H22   H     H_    0.321968 0.722838 0.275846 0.053352
H23   H     H_    0.547097 0.865940 0.462983 0.258827
H24   H     H_    0.947971 0.159721 0.374169 0.262976
H25   H     H_    0.566262 0.779768 0.480062 0.229666
H26   H     H_    0.649734 0.876486 0.473647 0.201604
H27   H     H_    0.586961 0.980097 0.377431 0.269456
H28   H     H_    0.666020 0.951927 0.392989 0.218374
H29   H     H_    0.614321 0.981119 0.297467 0.216836
H30   H     H_    0.361235 0.846990 0.185847 0.172630
H31   H     H_    0.237055 0.526717 0.121728 0.245814
H32   H     H_    0.304488 0.525028 0.228981 0.238684
H33   H     H_    0.265866 0.597509 0.207104 0.204611
H34   H     H_    0.290733 0.738393 0.062560 0.244041
H35   H     H_    0.824410 0.077845 0.280041 0.253427
H36   H     H_    0.226969 0.625955 0.052576 0.271823
H37   H     H_    0.277388 0.702926 0.147110 0.199996
H38   H     H_    0.136209 0.477951 0.355854 0.252663
H39   H     H_    0.082642 0.450348 0.418470 0.214640
H40   H     H_    0.200575 0.468167 0.457064 0.246367
H41   H     H_    0.172761 0.332452 0.483799 0.102808
H42   H     H_    0.910700 0.306656 0.383298 0.131737
H43   H     H_    0.915431 0.055374 0.333792 0.259127
H44   H     H_    0.813791 0.988417 0.173313 0.286892
H45   H     H_    0.879407 0.035217 0.123542 0.188743
H46   H     H_    0.935607 0.016656 0.222521 0.258825
H47   H     H_    0.104561 0.323758 0.108831 0.259576
H48   H     H_    0.211714 0.366459 0.218569 0.219131
H49   H     H_    0.267853 0.578782 0.710723 0.084348
H50   H     H_    0.127554 0.252884 0.161125 0.237951
H51   H     H_    0.830771 0.101942 0.040252 0.091397
H52   H     H_    0.665866 0.476736 0.862244 0.272647
H53   H     H_    0.768229 0.469019 0.890406 0.208300
H54   H     H_    0.714524 0.493652 0.798238 0.234833
H55   H     H_    0.499681 0.621172 0.879246 0.242199
H56   H     H_    0.430194 0.546454 0.769813 0.255536
H57   H     H_    0.569240 0.615803 0.838025 0.282167
H58   H     H_    0.680216 0.382505 0.696915 0.160115
H59   H     H_    0.781049 0.333221 0.919532 0.119749
H60   H     H_    0.973743 0.422180 0.275413 0.098023
H61   H     H_    0.625245 0.392651 0.932252 0.219815
H62   H     H_    0.647815 0.322788 0.988942 0.295216
H63   H     H_    0.739847 0.405268 0.980498 0.201423
H64   H     H_    0.494315 0.398583 0.862299 0.096374
H65   H     H_    0.405262 0.190218 0.897260 0.242244
H66   H     H_    0.495503 0.302769 0.926184 0.269923
H67   H     H_    0.366326 0.260186 0.854322 0.243226
H68   H     H_    0.279351 0.136001 0.589264 0.272116
H69   H     H_    0.307891 0.186878 0.518727 0.294943
H70   H     H_    0.293063 0.088432 0.518338 0.206176
H71   H     H_    0.050218 0.427593 0.219198 0.212378
H72   H     H_    0.447548 0.127805 0.539972 0.082334
H73   H     H_    0.616246 0.186925 0.733012 0.274250
H74   H     H_    0.557879 0.091729 0.762228 0.311729
H75   H     H_    0.518907 0.083681 0.653456 0.222913
H76   H     H_    0.350870 0.016965 0.589342 0.201151
H77   H     H_    0.375826 0.993341 0.683545 0.318118
H78   H     H_    0.292127 0.027498 0.635321 0.238074
H79   H     H_    0.280691 0.271802 0.690581 0.140254
H80   H     H_    0.727042 0.801048 0.923146 0.235607
H81   H     H_    0.728306 0.898416 0.943417 0.237146
H82   H     H_    0.174927 0.463259 0.256220 0.266984
H83   H     H_    0.662202 0.803969 0.971073 0.275484
H84   H     H_    0.302499 0.073913 0.748743 0.131750
H85   H     H_    0.864638 0.679870 0.842513 0.230079
H86   H     H_    0.923971 0.794077 0.894284 0.207366
H87   H     H_    0.804400 0.731537 0.796954 0.265594
H88   H     H_    0.915802 0.883819 0.801931 0.257629
H89   H     H_    0.932750 0.883474 0.718249 0.222603
H90   H     H_    0.815226 0.799001 0.697709 0.208746
H91   H     H_    0.094783 0.947470 0.929508 0.254629
H92   H     H_    0.195252 0.970917 0.917932 0.262875
H93   H     H_    0.077338 0.418355 0.144776 0.224322
H94   H     H_    0.087940 0.964579 0.836135 0.205665
H95   H     H_    0.030706 0.748162 0.937982 0.039296
H96   H     H_    0.937731 0.620859 0.852810 0.212900
H97   H     H_    0.816759 0.547927 0.750718 0.253162
H98   H     H_    0.913804 0.530471 0.793475 0.246049
H99   H     H_    0.102219 0.689223 0.925698 0.212331
H100  H     H_    0.090162 0.609739 0.863108 0.239511
H101  H     H_    0.200014 0.720362 0.910031 0.246189
H102  H     H_    0.931911 0.637330 0.566085 0.189124
H103  H     H_    0.824240 0.638081 0.501343 0.304412
H104  H     H_    0.805425 0.226000 0.035132 0.269364
H105  H     H_    0.937044 0.718393 0.517076 0.244762
H106  H     H_    0.819957 0.777631 0.579455 0.053006
H107  H     H_    0.107942 0.938154 0.659900 0.292717
H108  H     H_    0.054296 0.935851 0.712171 0.210618
H109  H     H_    0.181023 0.964556 0.775659 0.197873
H110  H     H_    0.723003 0.919539 0.785587 0.266896
H111  H     H_    0.721661 0.821294 0.770502 0.250091
H112  H     H_    0.651250 0.844365 0.675615 0.230776
H113  H     H_    0.090443 0.744281 0.621488 0.060126
H114  H     H_    0.927502 0.521926 0.664179 0.108122
H115  H     H_    0.896254 0.335671 0.107418 0.247075
H116  H     H_    0.106908 0.611710 0.754752 0.263356
H117  H     H_    0.055342 0.643079 0.669376 0.180337
H118  H     H_    0.182530 0.722642 0.763644 0.282325
H119  H     H_    0.713324 0.452443 0.423249 0.151516
H120  H     H_    0.574239 0.489538 0.265401 0.149444
H121  H     H_    0.630234 0.404105 0.149817 0.086280
H122  H     H_    0.739037 0.342324 0.341076 0.214404
H123  H     H_    0.709783 0.286391 0.242128 0.291179
H124  H     H_    0.754320 0.397140 0.268211 0.273841
H125  H     H_    0.716408 0.332796 0.446386 0.077485
H126  H     H_    0.914845 0.296586 0.034942 0.250837
H127  H     H_    0.659893 0.176587 0.290524 0.139523
H128  H     H_    0.504981 0.884719 0.620411 0.083079
H129  H     H_    0.254493 0.233562 0.115849 0.072213
H130  H     H_    0.376461 0.255119 0.060543 0.303057
H131  H     H_    0.351959 0.150829 0.019435 0.247673
H132  H     H_    0.260786 0.155859 0.024723 0.193846
H133  H     H_    0.272241 0.068094 0.174595 0.054448
H134  H     H_    0.501996 0.152399 0.429628 0.246220
H135  H     H_    0.464479 0.221785 0.427587 0.299564
H136  H     H_    0.390466 0.132563 0.332477 0.192003
O1    O     O_3   0.500000 0.500000 0.500000 -0.513170
O2    O     O_R   0.266230 0.883210 0.944500 -0.581719
O3    O     O_R   0.561150 0.178510 0.117240 -0.609244
O4    O     O_R   0.733670 0.616970 0.678220 -0.666759
O5    O     O_R   0.438720 0.882700 0.821420 -0.578587
O6    O     O_R   0.438610 0.055960 0.117240 -0.600308
O7    O     O_R   0.561250 0.882700 0.943960 -0.647698
O8    O     O_R   0.733630 0.055440 0.116700 -0.675237
O9    O     O_R   0.266260 0.883000 0.821740 -0.624243
O10   O     O_R   0.561190 0.178210 0.944500 -0.610870
O11   O     O_R   0.438650 0.883210 0.116920 -0.678409
O12   O     O_R   0.438720 0.616970 0.383270 -0.607458
O13   O     O_R   0.266300 0.444520 0.383270 -0.644987
O14   O     O_R   0.561280 0.616750 0.383040 -0.628055
O15   O     O_R   0.438750 0.321760 0.555460 -0.613607
O16   O     O_R   0.561320 0.444010 0.382720 -0.669897
O17   O     O_R   0.561210 0.617270 0.678540 -0.628200
O18   O     O_R   0.438790 0.321460 0.382720 -0.613606
O19   O     O_R   0.438680 0.617270 0.556010 -0.632346
O20   O     O_2   0.314451 0.678242 0.804152 -0.596982
O21   O     O_2   0.831053 0.332153 0.197887 -0.556712
O22   O     O_2   0.167418 0.164162 0.279001 -0.543959
O23   O     O_R   0.561250 0.444520 0.678220 -0.616046
O24   O     O_2   0.084344 0.104314 0.384974 -0.559658
O25   O     O_2   0.951730 0.168498 0.037384 -0.582284
O26   O     O_2   0.745488 0.333065 0.776467 -0.593461
O27   O     O_2   0.688617 0.205294 0.893691 -0.641674
O28   O     O_2   0.499991 0.451843 0.773685 -0.567567
O29   O     O_2   0.544991 0.256715 0.577202 -0.585143
O30   O     O_2   0.310229 0.295542 0.601148 -0.638445
O31   O     O_2   0.232312 0.129450 0.693690 -0.594330
O32   O     O_2   0.165369 0.855519 0.005126 -0.481539
O33   O     O_2   0.919931 0.840908 0.550171 -0.577726
O34   O     O_R   0.733700 0.616750 0.555460 -0.634984
O35   O     O_2   0.186006 0.869942 0.659915 -0.567054
O36   O     O_2   0.802335 0.516267 0.591299 -0.568838
O37   O     O_2   0.751760 0.503370 0.344961 -0.573937
O38   O     O_2   0.482430 0.399405 0.149142 -0.617413
O39   O     O_2   0.519513 0.283478 0.064321 -0.629006
O40   O     O_2   0.657228 0.331449 0.511100 -0.497824
O41   O     O_2   0.689465 0.191331 0.409363 -0.547599
O42   O     O_2   0.490034 0.936849 0.703524 -0.602132
O43   O     O_2   0.357082 0.351559 0.208437 -0.602239
O44   O     O_2   0.271245 0.022265 0.077785 -0.503964
O45   O     O_R   0.266330 0.321760 0.383040 -0.615447
O46   O     O_2   0.697497 0.673377 0.349687 -0.528540
O47   O     O_2   0.663102 0.802536 0.144557 -0.554905
O48   O     O_2   0.316038 0.590583 0.005073 -0.548076
O49   O     O_2   0.379308 0.712048 0.390899 -0.556784
O50   O     O_2   0.408132 0.887684 0.306900 -0.596516
O51   O     O_2   0.050897 0.301032 0.477602 -0.579672
O52   O     O_2   0.799760 0.187328 0.294659 -0.642135
O53   O     O_3   0.499930 0.999970 0.999970 -0.522052
O54   O     O_R   0.438680 0.055440 0.821740 -0.660646
O55   O     O_R   0.561210 0.883000 0.116700 -0.621220
O56   O     O_R   0.733610 0.178210 0.116920 -0.557819
Zn1   Zn    Zn3+2 0.412450 0.543930 0.456390 0.977310
Zn2   Zn    Zn3+2 0.587550 0.543620 0.456070 1.019165
Zn3   Zn    Zn3+2 0.412480 0.368530 0.456070 1.063433
Zn4   Zn    Zn3+2 0.587520 0.543930 0.631470 0.983650
Zn5   Zn    Zn3+2 0.587490 0.956040 0.043570 0.983912
Zn6   Zn    Zn3+2 0.587450 0.131440 0.043900 1.035238
Zn7   Zn    Zn3+2 0.412380 0.956350 0.043900 1.002176
Zn8   Zn    Zn3+2 0.412420 0.956040 0.868500 1.020289

loop_
_geom_bond_atom_site_label_1
_geom_bond_atom_site_label_2
_ccdc_geom_bond_type
C8    O43   D    
C38   C108  S    
C89   O24   D    
C55   C59   S    
C38   C83   S    
C51   C123  S    
C110  H86   S    
C99   H62   S    
C18   C65   S    
C49   C60   S    
C12   H5    S    
C73   O54   A    
C111  H90   S    
C74   O55   A    
C27   H37   S    
C37   C102  S    
C49   C120  S    
C117  H105  S    
C34   C35   S    
C103  H72   S    
C95   H52   S    
C40   C43   S    
C15   H7    S    
C98   O27   D    
C50   C52   S    
C114  H98   S    
C124  H119  S    
C120  H112  S    
C71   C82   S    
O55   Zn5   S    
C85   H60   S    
C109  H84   S    
C102  H69   S    
C75   O56   A    
C97   H58   S    
C92   H50   S    
C46   C48   S    
C78   O17   A    
C108  H81   S    
C73   O10   A    
C15   H9    S    
C74   O11   A    
C87   H104  S    
C11   H134  S    
C49   C82   S    
O15   Zn3   S    
C50   C76   S    
C8    C57   S    
C78   C82   S    
C65   C68   S    
C69   C74   S    
O53   Zn8   S    
C96   H55   S    
C13   C115  S    
O12   Zn1   S    
O53   Zn7   S    
C22   H23   S    
C23   H28   S    
C21   O49   D    
C20   H21   S    
C30   O52   D    
C5    H125  S    
C111  H88   S    
C101  H66   S    
C86   H82   S    
C53   C58   S    
C1    C48   S    
C47   C52   S    
C12   H3    S    
O34   Zn2   S    
C84   O20   D    
C51   C116  S    
C91   H46   S    
O23   Zn4   S    
C45   C50   S    
C92   H47   S    
C26   H33   S    
C114  H96   S    
C69   C70   S    
C22   C67   S    
C105  H74   S    
C54   O15   A    
C89   H13   S    
C46   C122  S    
C5    O40   D    
C11   C56   S    
C44   C48   S    
C109  O31   D    
C7    O42   D    
C79   C83   S    
O45   Zn3   S    
C19   C71   S    
C14   O46   D    
C96   H56   S    
C108  H83   S    
C123  H118  S    
C24   O13   A    
C87   H126  S    
C6    C61   S    
C30   H42   S    
C39   C54   S    
C27   H34   S    
C65   C70   S    
C34   C97   S    
C67   C72   S    
C86   H93   S    
C23   C72   S    
C86   H71   S    
O2    Zn7   S    
C3    C55   S    
C119  H108  S    
C47   C48   S    
C20   O48   D    
O11   Zn7   S    
C29   O51   D    
C41   C109  S    
C90   H35   S    
C20   C70   S    
C9    H130  S    
C81   C83   S    
C113  O32   D    
C59   C61   S    
C91   H44   S    
C34   C39   S    
C80   C82   S    
O7    Zn5   S    
C46   C51   S    
C86   C115  S    
C43   C106  S    
O1    Zn2   S    
C69   C72   S    
C44   C111  S    
C4    H122  S    
C31   C32   S    
C118  H106  S    
C79   O7    A    
C66   O18   A    
C17   H14   S    
C64   C69   S    
C18   H15   S    
C53   C125  S    
O18   Zn3   S    
O9    Zn8   S    
C16   H11   S    
C123  H116  S    
C124  O37   D    
C22   H26   S    
C90   H43   S    
C118  O33   D    
C18   H16   S    
C110  H87   S    
C53   C124  S    
C116  H100  S    
C122  O36   D    
C31   C104  S    
C27   H36   S    
C106  H76   S    
C57   C58   S    
C17   O47   D    
C56   C58   S    
C112  H91   S    
C98   H59   S    
C105  H75   S    
C63   C64   S    
C52   C119  S    
C28   H38   S    
C71   C81   S    
C23   H27   S    
C117  H103  S    
C19   H19   S    
C9    H132  S    
C5    C56   S    
C125  H120  S    
C102  H70   S    
C38   C49   S    
C10   C62   S    
C4    H124  S    
C88   H2    S    
C33   C91   S    
C120  H110  S    
C60   C83   S    
C121  H113  S    
C79   O5    A    
C40   C73   S    
C66   O16   A    
C6    O41   D    
C63   C68   S    
C47   C118  S    
C25   O50   D    
O14   Zn2   S    
C76   O9    A    
O19   Zn1   S    
C35   C98   S    
C113  H95   S    
C14   H6    S    
C36   C41   S    
C110  H85   S    
C84   H49   S    
C99   H63   S    
O8    Zn5   S    
C36   C39   S    
C12   H4    S    
C1    O34   A    
C67   C68   S    
C34   C95   S    
C101  H65   S    
C37   C103  S    
C60   C71   S    
C10   O44   D    
C13   C93   S    
C28   C93   S    
C37   C43   S    
C2    C89   S    
O17   Zn4   S    
C100  O28   D    
C52   C121  S    
C95   H53   S    
C31   C75   S    
O10   Zn6   S    
C50   C51   S    
C36   C100  S    
C114  H97   S    
C85   C104  S    
C119  H107  S    
O54   Zn8   S    
C42   O14   A    
C2    C33   S    
C105  H73   S    
C85   O21   D    
C4    C55   S    
C102  H68   S    
C7    C60   S    
C44   C45   S    
C96   H57   S    
C108  H80   S    
C11   H135  S    
C37   C39   S    
C29   C93   S    
C12   C61   S    
C14   C63   S    
C41   C101  S    
C32   C115  S    
C24   O45   A    
C92   C115  S    
O4    Zn4   S    
C3    O39   D    
O53   Zn5   S    
O5    Zn8   S    
C45   C113  S    
O53   Zn6   S    
C22   H25   S    
C23   H29   S    
C56   C61   S    
C99   H61   S    
C94   H51   S    
C29   H41   S    
C32   C94   S    
C116  H99   S    
C77   O3    A    
C25   H30   S    
C26   H31   S    
C16   H12   S    
C111  H89   S    
C101  H67   S    
C59   C77   S    
C45   C112  S    
C57   C62   S    
C94   O25   D    
C19   H20   S    
C21   H22   S    
C17   C64   S    
C125  O38   D    
C100  H64   S    
C26   H32   S    
C43   C105  S    
O1    Zn3   S    
C2    C13   S    
C4    H123  S    
C42   O12   A    
C58   C66   S    
O1    Zn4   S    
C112  H92   S    
C10   H133  S    
C2    C88   S    
C80   C96   S    
C106  H78   S    
C21   C67   S    
C36   C107  S    
C42   C68   S    
C90   H24   S    
C35   C99   S    
C97   O26   D    
C93   C104  S    
C107  O30   D    
C53   C55   S    
C54   O23   A    
C46   C114  S    
C35   C40   S    
C9    C62   S    
C18   H17   S    
C57   H1    S    
O13   Zn1   S    
C103  O29   D    
C75   O8    A    
C32   C87   S    
C77   O6    A    
C13   C24   S    
C116  H101  S    
C106  H77   S    
O56   Zn6   S    
C119  H109  S    
C122  H114  S    
C31   C33   S    
C25   C72   S    
C27   C70   S    
C28   H40   S    
C95   H54   S    
C40   C41   S    
C3    H121  S    
C76   O2    A    
C9    H131  S    
C88   O22   D    
C81   C84   S    
O6    Zn7   S    
C28   H39   S    
C117  H102  S    
C59   C62   S    
C19   H18   S    
C87   H115  S    
C91   H45   S    
C26   C65   S    
C80   C81   S    
C15   H8    S    
C92   H48   S    
C6    H127  S    
O1    Zn1   S    
C78   O19   A    
C107  H79   S    
C33   C90   S    
C120  H111  S    
C38   C80   S    
C8    H129  S    
C112  H94   S    
C11   H136  S    
O16   Zn2   S    
C47   C117  S    
C1    O4    A    
O3    Zn6   S    
C30   C104  S    
C121  O35   D    
C15   C63   S    
C16   C64   S    
C16   H10   S    
C123  H117  S    
C7    H128  S    
C44   C110  S    
