data_mof_unit_11830.cif
_audit_creation_date              2012-12-10T18:59:13-0500
_audit_creation_method            fapswitch 2.2
_symmetry_space_group_name_H-M    P1
_symmetry_Int_Tables_number       1
_space_group_crystal_system       triclinic
_cell_length_a                    9.817514
_cell_length_b                    10.713203
_cell_length_c                    16.677197
_cell_angle_alpha                 89.376039
_cell_angle_beta                  94.033507
_cell_angle_gamma                 89.883826
_cell_volume                      1749.60262304

loop_
_atom_site_label
_atom_site_type_symbol
_atom_type_description
_atom_site_fract_x
_atom_site_fract_y
_atom_site_fract_z
_atom_type_partial_charge
C1    C     C_R   0.500057 0.259810 0.500139 0.858647
C2    C     C_R   0.499939 0.740199 0.499859 0.868625
C3    C     C_R   0.381224 0.936004 0.517244 -0.174248
C4    C     C_R   0.618633 0.064047 0.482575 -0.203099
C5    C     C_R   0.499845 0.872611 0.499789 -0.011035
C6    C     C_R   0.500114 0.127429 0.500182 -0.005004
C7    C     C_R   0.067072 0.578967 0.449346 0.607887
C8    C     C_R   0.932894 0.418722 0.548926 0.606252
C9    C     C_R   0.921509 0.579761 0.451015 -0.336768
C10   C     C_R   0.078439 0.421192 0.549627 -0.327574
C11   C     C_R   0.517198 0.492656 0.653678 0.928164
C12   C     C_R   0.483030 0.499418 0.346141 0.930878
C13   C     C_R   0.526555 0.457972 0.738420 -0.169672
C14   C     C_R   0.475971 0.483812 0.259448 -0.148708
C15   C     C_R   0.411373 0.408748 0.772333 -0.300719
C16   C     C_R   0.592464 0.442804 0.223963 -0.356487
C17   C     C_R   0.419955 0.366914 0.851350 0.412221
C18   C     C_R   0.589374 0.422153 0.141924 0.414716
C19   C     C_R   0.544077 0.380673 0.898249 0.080305
C20   C     C_R   0.467384 0.447737 0.093824 0.130424
C21   C     C_R   0.662859 0.420610 0.863745 0.485864
C22   C     C_R   0.348989 0.487896 0.128870 0.478902
C23   C     C_R   0.652450 0.461601 0.783369 -0.317931
C24   C     C_R   0.354619 0.505908 0.212543 -0.361905
C25   C     C_R   0.381407 0.063867 0.517549 -0.207310
C26   C     C_R   0.618548 0.936193 0.482436 -0.205109
H1    H     H_    0.687366 0.426982 0.259837 0.181308
H2    H     H_    0.314284 0.401562 0.737550 0.188893
H3    H     H_    0.740685 0.499848 0.756537 0.191912
H4    H     H_    0.266770 0.539974 0.241233 0.183761
H5    H     H_    0.289427 0.112557 0.531784 0.150395
H6    H     H_    0.710543 0.887522 0.468230 0.154959
H7    H     H_    0.289133 0.887161 0.531222 0.167958
H8    H     H_    0.710546 0.112892 0.468321 0.156211
H9    H     H_    0.859134 0.644335 0.414201 0.171272
H10   H     H_    0.140515 0.361555 0.590171 0.165836
N1    N     N_2   0.546986 0.371385 0.982170 -0.097369
N2    N     N_2   0.461662 0.442790 0.009125 -0.069810
N3    N     N_R   0.857210 0.499970 0.500020 -0.133739
N4    N     N_R   0.142790 0.500030 0.499980 -0.133213
O1    O     O_R   0.614620 0.316750 0.500010 -0.588503
O2    O     O_R   0.385380 0.683250 0.499990 -0.575624
O3    O     O_R   0.385290 0.316780 0.500000 -0.637762
O4    O     O_R   0.614710 0.683220 0.500000 -0.633879
O5    O     O_R   0.627460 0.498830 0.616130 -0.571881
O6    O     O_R   0.372540 0.501170 0.383870 -0.578260
O7    O     O_R   0.398130 0.498850 0.616130 -0.629858
O8    O     O_R   0.601870 0.501150 0.383870 -0.633197
Zn1   Zn    Zn3+2 0.653130 0.499980 0.500000 0.980134
Zn2   Zn    Zn3+2 0.346870 0.500020 0.500000 0.984252
O9    O     O_3   0.708742 0.388962 0.107647 -0.565913
C27   C     C_3   0.746230 0.265781 0.131592 0.108486
H11   H     H_    0.656088 0.202497 0.132616 0.124948
H12   H     H_    0.801165 0.266259 0.192214 0.127666
C28   C     C_3   0.841333 0.212387 0.072315 -0.789778
H13   H     H_    0.933462 0.271559 0.069642 0.246417
H14   H     H_    0.873591 0.116650 0.091605 0.196270
H15   H     H_    0.788013 0.207989 0.011446 0.268518
O10   O     O_3   0.302659 0.325753 0.884557 -0.581597
C29   C     C_3   0.311748 0.195207 0.896313 0.104406
H16   H     H_    0.398791 0.169765 0.939876 0.143705
H17   H     H_    0.323899 0.147129 0.838279 0.128752
C30   C     C_3   0.181216 0.148442 0.930296 -0.826496
H18   H     H_    0.092854 0.166029 0.886347 0.240583
H19   H     H_    0.189271 0.046503 0.942530 0.215738
H20   H     H_    0.164289 0.197044 0.987282 0.260971
O11   O     O_3   0.781352 0.435279 0.913473 -0.572973
C31   C     C_3   0.896863 0.390582 0.876709 -0.263560
H21   H     H_    0.935446 0.462292 0.835481 0.183023
H22   H     H_    0.876377 0.301042 0.844710 0.140921
H23   H     H_    0.979387 0.372564 0.924318 0.216631
O12   O     O_3   0.234792 0.517107 0.077469 -0.579399
C32   C     C_3   0.110547 0.494167 0.112686 -0.264540
H24   H     H_    0.084686 0.573255 0.151366 0.156659
H25   H     H_    0.112069 0.404074 0.146720 0.140660
H26   H     H_    0.027975 0.488290 0.063964 0.228726
O13   O     O_3   0.137532 0.661656 0.402520 -0.569836
C33   C     C_3   0.066458 0.688958 0.327867 -0.375749
H27   H     H_    0.987841 0.762006 0.334781 0.167019
H28   H     H_    0.020701 0.604018 0.299069 0.148440
H29   H     H_    0.140028 0.727799 0.286729 0.199101
O14   O     O_3   0.864226 0.343323 0.600958 -0.573484
C34   C     C_3   0.918569 0.221168 0.605828 -0.365600
H30   H     H_    0.008370 0.216575 0.650154 0.160783
H31   H     H_    0.945061 0.185835 0.546249 0.145769
H32   H     H_    0.839867 0.157766 0.627920 0.203624

loop_
_geom_bond_atom_site_label_1
_geom_bond_atom_site_label_2
_ccdc_geom_bond_type
O4    Zn1   S    
C25   H5    S    
C28   H13   S    
C30   H19   S    
C26   H6    S    
C32   H24   S    
C11   O7    A    
O2    Zn2   S    
C12   O8    A    
O13   C33   S    
C29   C30   S    
C8    O14   S    
C23   H3    S    
C10   N4    A    
C19   C21   A    
C33   H28   S    
C6    C25   A    
C3    H7    S    
C14   C24   A    
C9    N3    A    
C13   C23   A    
C29   H17   S    
C22   O12   S    
C19   N1    S    
C1    O3    A    
C2    O4    A    
C31   H21   S    
C7    N4    A    
C8    N3    A    
C27   C28   S    
C7    O13   S    
C16   H1    S    
C30   H20   S    
O10   C29   S    
C21   O11   S    
C32   H25   S    
O1    Zn1   S    
C27   H12   S    
C18   O9    S    
O7    Zn2   S    
C21   C23   A    
C4    H8    S    
O11   C31   S    
C3    C25   A    
C4    C6    A    
C33   H27   S    
C30   H18   S    
O9    C27   S    
C29   H16   S    
C12   O6    A    
N1    N2    D    
C20   N2    S    
C34   H30   S    
O5    Zn1   S    
C16   C18   A    
C17   O10   S    
C1    O1    A    
O8    Zn1   S    
C34   H31   S    
C20   C22   A    
C13   C15   A    
C32   H26   S    
C22   C24   A    
C11   O5    A    
C2    C5    S    
C27   H11   S    
C7    C9    A    
N3    Zn1   S    
C14   C16   A    
C12   C14   S    
O12   C32   S    
C3    C5    A    
C4    C26   A    
O3    Zn2   S    
C15   C17   A    
O6    Zn2   S    
C28   H14   S    
C11   C13   S    
C33   H29   S    
C15   H2    S    
C2    O2    A    
C31   H23   S    
N4    Zn2   S    
C17   C19   A    
C18   C20   A    
C24   H4    S    
C5    C26   A    
C34   H32   S    
C8    C10   A    
O14   C34   S    
C28   H15   S    
C1    C6    S    
C9    H9    S    
C31   H22   S    
C10   H10   S    
