data_mof_unit_47057.cif
_audit_creation_date              2012-10-26T21:05:21-0400
_audit_creation_method            fapswitch 2.2
_symmetry_space_group_name_H-M    P1
_symmetry_Int_Tables_number       1
_space_group_crystal_system       triclinic
_cell_length_a                    9.62253
_cell_length_b                    10.768232
_cell_length_c                    13.87981
_cell_angle_alpha                 92.417946
_cell_angle_beta                  84.828634
_cell_angle_gamma                 89.909258
_cell_volume                      1431.04279736

loop_
_atom_site_label
_atom_site_type_symbol
_atom_type_description
_atom_site_fract_x
_atom_site_fract_y
_atom_site_fract_z
_atom_type_partial_charge
C1    C     C_R   0.499760 0.737128 0.500920 0.535534
C2    C     C_R   0.540438 0.930055 0.419666 -0.100646
C3    C     C_R   0.539426 0.058431 0.418144 0.195939
C4    C     C_R   0.477322 0.500783 0.682823 0.522749
C5    C     C_R   0.499073 0.128982 0.503364 0.019890
C6    C     C_R   0.873403 0.335009 0.371636 -0.065047
C7    C     C_R   0.953560 0.253780 0.309129 -0.149027
C8    C     C_R   0.096703 0.253324 0.309300 -0.166293
C9    C     C_R   0.160607 0.334225 0.371855 -0.073894
C10   C     C_R   0.083077 0.418560 0.437105 0.153909
C11   C     C_R   0.933702 0.418768 0.437055 0.147020
C12   C     C_1   0.463682 0.500719 0.786060 -0.026401
C13   C     C_R   0.918279 0.577448 0.559880 0.006123
C14   C     C_R   0.066010 0.577444 0.559838 0.005151
C15   C     C_R   0.499996 0.262819 0.500006 0.576420
C16   C     C_R   0.522676 0.499446 0.317185 0.564082
C17   C     C_1   0.536236 0.498154 0.213922 0.014383
C18   C     C_2   0.557412 0.496024 0.023220 -0.110926
C19   C     C_2   0.442252 0.500557 0.976694 -0.119357
C20   C     C_1   0.452957 0.500598 0.872963 -0.051878
C21   C     C_1   0.546812 0.497048 0.126982 -0.029260
C22   C     C_R   0.414669 0.880797 0.678230 -0.097043
C23   C     C_R   0.374220 0.950967 0.762880 -0.114911
C24   C     C_R   0.374733 0.080214 0.762458 -0.109214
C25   C     C_R   0.415595 0.140022 0.677371 -0.093861
C26   C     C_R   0.456632 0.070798 0.590634 -0.009428
C27   C     C_R   0.456150 0.939631 0.591223 0.012430
C28   C     C_R   0.498884 0.870985 0.504828 -0.032597
Cl1   Cl    Cl    0.583708 0.127952 0.306862 -0.681270
Cu1   Cu    Cu3+1 0.359340 0.500010 0.500010 0.939931
Cu2   Cu    Cu3+1 0.640660 0.499990 0.499990 0.950375
H1    H     H_    0.339484 0.504703 0.016227 0.138142
H2    H     H_    0.342721 0.904876 0.829105 0.119822
H3    H     H_    0.343603 0.134407 0.828359 0.122790
H4    H     H_    0.414958 0.240445 0.680304 0.126477
H5    H     H_    0.856852 0.641049 0.609015 0.121201
H6    H     H_    0.764827 0.328201 0.365340 0.224282
H7    H     H_    0.903992 0.190821 0.260005 0.176886
H8    H     H_    0.159088 0.189965 0.260369 0.149224
H9    H     H_    0.270956 0.326368 0.365458 0.204064
H10   H     H_    0.114533 0.641055 0.608926 0.118490
H11   H     H_    0.660178 0.491988 0.983683 0.139333
H12   H     H_    0.571507 0.875736 0.353638 0.154689
H13   H     H_    0.413670 0.780596 0.681652 0.117579
N1    N     N_R   0.852210 0.498790 0.499090 -0.245828
N2    N     N_R   0.148080 0.498710 0.499060 -0.243482
O1    O     O_R   0.381190 0.680360 0.500010 -0.496000
O2    O     O_R   0.618760 0.680340 0.500000 -0.496658
O3    O     O_R   0.364420 0.499990 0.637850 -0.505937
O4    O     O_R   0.601990 0.499960 0.637840 -0.495412
O5    O     O_R   0.381240 0.319660 0.500000 -0.518162
O6    O     O_R   0.618810 0.319640 0.499990 -0.502201
O7    O     O_R   0.398010 0.500040 0.362160 -0.511672
O8    O     O_R   0.635580 0.500010 0.362150 -0.510511

loop_
_geom_bond_atom_site_label_1
_geom_bond_atom_site_label_2
_ccdc_geom_bond_type
C10   N2    A    
C1    C28   S    
C23   C24   A    
C1    O2    A    
C9    H9    S    
C6    C7    A    
C8    H8    S    
C15   O5    A    
C4    C12   S    
C18   C21   S    
C9    C10   A    
Cu2   O6    S    
C19   C20   S    
C4    O3    A    
Cu1   O5    S    
C12   C20   T    
C2    C3    A    
C6    H6    S    
C7    C8    A    
C14   N2    A    
C15   O6    A    
C13   N1    A    
C26   C27   A    
Cu1   Cu2   S    
C2    H12   S    
C25   H4    S    
C14   H10   S    
C19   H1    S    
C7    H7    S    
Cu1   N2    S    
Cu2   O2    S    
C18   H11   S    
Cu2   O8    S    
C22   C27   A    
Cu1   O7    S    
C16   O8    A    
C11   N1    A    
C5    C15   S    
C10   C11   A    
Cu2   O4    S    
C5    C26   A    
Cu1   O1    S    
C6    C11   A    
C24   C25   A    
C13   H5    S    
C18   C19   D    
Cu2   N1    S    
C27   C28   A    
C3    Cl1   S    
C16   O7    A    
C1    O1    A    
C2    C28   A    
C17   C21   T    
C23   H2    S    
C25   C26   A    
C13   C14   A    
Cu1   O3    S    
C22   C23   A    
C22   H13   S    
C16   C17   S    
C4    O4    A    
C8    C9    A    
C3    C5    A    
C24   H3    S    
