data_mof_unit_67785.cif
_audit_creation_date              2012-12-10T16:53:52-0500
_audit_creation_method            fapswitch 2.2
_symmetry_space_group_name_H-M    P1
_symmetry_Int_Tables_number       1
_space_group_crystal_system       triclinic
_cell_length_a                    7.921853
_cell_length_b                    8.66353
_cell_length_c                    10.670969
_cell_angle_alpha                 94.215545
_cell_angle_beta                  84.500923
_cell_angle_gamma                 92.702475
_cell_volume                      726.42522794

loop_
_atom_site_label
_atom_site_type_symbol
_atom_type_description
_atom_site_fract_x
_atom_site_fract_y
_atom_site_fract_z
_atom_type_partial_charge
C1    C     C_R   0.543694 0.793247 0.491110 0.971515
C2    C     C_3   0.426665 0.636468 0.943036 -0.482888
C3    C     C_3   0.450334 0.648126 0.083746 -0.434839
C4    C     C_3   0.380305 0.349055 0.931331 0.396028
C5    C     C_3   0.684715 0.464690 0.915347 0.304101
C6    C     C_3   0.498694 0.482570 0.878038 -0.027942
C7    C     C_3   0.149230 0.003566 0.566727 -0.266321
C8    C     C_3   0.941707 0.282370 0.298651 0.119894
C9    C     C_3   0.003737 0.120655 0.254823 -0.354295
C10   C     C_3   0.874347 0.024591 0.181612 -1.031065
C11   C     C_3   0.053464 0.673641 0.720600 -0.202165
C12   C     C_3   0.501541 0.489644 0.121711 0.066682
C13   C     C_3   0.121090 0.219334 0.909600 -0.306011
C14   C     C_3   0.732293 0.220180 0.782376 0.193241
C15   C     C_3   0.724213 0.073940 0.855889 -0.500881
C16   C     C_3   0.688831 0.931636 0.769158 -0.938366
C17   C     C_3   0.374229 0.361322 0.077240 -0.441584
C18   C     C_3   0.680434 0.451907 0.057056 -0.474321
C19   C     C_2   0.564183 0.956159 0.485207 -0.543674
C20   C     C_2   0.427979 0.042800 0.487948 0.360383
C21   C     C_R   0.498953 0.493532 0.741530 0.816888
C22   C     C_R   0.454982 0.206150 0.499237 0.798038
C23   C     C_R   0.500101 0.495709 0.258252 0.857297
H1    H     H_    0.289010 0.641657 0.931254 0.228675
H2    H     H_    0.750534 0.578430 0.897649 0.134920
H3    H     H_    0.780303 0.532851 0.094289 0.176426
H4    H     H_    0.089781 0.116775 0.567155 0.192986
H5    H     H_    0.203204 0.991831 0.658009 0.115498
H6    H     H_    0.044627 0.915900 0.557495 0.217876
H7    H     H_    0.958846 0.358406 0.218650 0.120320
H8    H     H_    0.806680 0.269304 0.328103 0.211651
H9    H     H_    0.125997 0.131007 0.195333 0.213799
H10   H     H_    0.025070 0.057331 0.337990 0.281131
H11   H     H_    0.763167 0.989950 0.246298 0.276875
H12   H     H_    0.710999 0.332706 0.076863 0.181163
H13   H     H_    0.932926 0.918336 0.135735 0.274803
H14   H     H_    0.829175 0.092364 0.108754 0.250216
H15   H     H_    0.180162 0.728067 0.696539 0.180820
H16   H     H_    0.058949 0.565947 0.770137 0.238061
H17   H     H_    0.985696 0.757916 0.787604 0.110898
H18   H     H_    0.010167 0.245448 0.977534 0.223546
H19   H     H_    0.187309 0.124185 0.947105 0.115374
H20   H     H_    0.080823 0.176470 0.816523 0.195580
H21   H     H_    0.823846 0.200914 0.697742 0.166515
H22   H     H_    0.611630 0.231269 0.742021 0.107173
H23   H     H_    0.431584 0.236701 0.896608 0.051504
H24   H     H_    0.845536 0.056075 0.893263 0.223150
H25   H     H_    0.626266 0.080434 0.937342 0.215754
H26   H     H_    0.554506 0.926912 0.747039 0.248051
H27   H     H_    0.716144 0.827055 0.815280 0.262080
H28   H     H_    0.775151 0.932022 0.681244 0.272690
H29   H     H_    0.404778 0.247944 0.110597 0.109058
H30   H     H_    0.692052 0.006222 0.489919 0.154357
H31   H     H_    0.484930 0.739912 0.900858 0.167605
H32   H     H_    0.550805 0.738252 0.104329 0.179181
H33   H     H_    0.329946 0.684909 0.137856 0.206649
H34   H     H_    0.244209 0.388739 0.119071 0.217641
N1    N     N_2   0.950330 0.457950 0.465890 0.164121
N2    N     N_2   0.049670 0.542050 0.534110 0.207470
O1    O     O_R   0.389250 0.738570 0.508370 -0.573513
O2    O     O_3   0.036239 0.345029 0.396504 -0.563271
O3    O     O_3   0.964120 0.645222 0.613711 -0.532393
O4    O     O_3   0.215877 0.358989 0.893333 -0.593234
O5    O     O_3   0.797156 0.353368 0.850771 -0.637385
O6    O     O_R   0.678390 0.711620 0.486510 -0.587526
O7    O     O_R   0.355430 0.513500 0.696140 -0.621112
O8    O     O_R   0.644580 0.486550 0.674270 -0.580984
O9    O     O_R   0.321610 0.288380 0.513490 -0.565524
O10   O     O_R   0.610750 0.261430 0.491630 -0.699139
O11   O     O_R   0.355420 0.513450 0.325730 -0.591034
O12   O     O_R   0.644570 0.486500 0.303860 -0.677897
O13   O     O_3   0.269392 0.979696 0.461171 -0.586725
Zn1   Zn    Zn3+2 0.306940 0.517990 0.514600 1.042252
Zn2   Zn    Zn3+2 0.693060 0.482010 0.485400 0.994152

loop_
_geom_bond_atom_site_label_1
_geom_bond_atom_site_label_2
_ccdc_geom_bond_type
C12   C17   S    
C16   H27   S    
O12   Zn2   S    
C1    O6    A    
N1    Zn2   S    
C7    H6    S    
C21   O7    A    
C11   H15   S    
C3    H33   S    
N2    Zn1   S    
C22   O10   A    
C19   C20   D    
C18   H3    S    
C16   H28   S    
C15   H24   S    
C8    O2    S    
O7    Zn1   S    
C11   O3    S    
C8    H7    S    
C19   H30   S    
O11   Zn1   S    
C13   H18   S    
C2    C3    S    
C3    C12   S    
C14   O5    S    
O10   Zn2   S    
C10   H11   S    
O8    Zn2   S    
C4    H23   S    
C21   O8    A    
C9    H10   S    
C8    H8    S    
C4    O4    S    
C22   O9    A    
C2    C6    S    
C15   H25   S    
N1    O2    S    
C10   H14   S    
C5    H2    S    
C4    C17   S    
C17   H29   S    
C4    C6    S    
C13   H19   S    
C20   C22   S    
C14   H22   S    
C13   O4    S    
C2    H1    S    
C5    C6    S    
C11   H16   S    
C2    H31   S    
C1    C19   S    
N1    N2    D    
C7    H5    S    
C11   H17   S    
C23   O12   A    
O1    Zn1   S    
C13   H20   S    
C7    H4    S    
C16   H26   S    
C18   H12   S    
C14   H21   S    
C9    C10   S    
C1    O1    A    
C12   C18   S    
C7    O13   S    
C14   C15   S    
C20   O13   S    
N2    O3    S    
C12   C23   S    
C5    C18   S    
C9    H9    S    
O9    Zn1   S    
C6    C21   S    
C3    H32   S    
O6    Zn2   S    
C15   C16   S    
C5    O5    S    
C17   H34   S    
C8    C9    S    
C10   H13   S    
C23   O11   A    
