data_mof_unit_18463.cif
_audit_creation_date              2013-03-05T15:51:45-0500
_audit_creation_method            fapswitch 2.2
_symmetry_space_group_name_H-M    P1
_symmetry_Int_Tables_number       1
_space_group_crystal_system       triclinic
_cell_length_a                    7.354324
_cell_length_b                    12.123793
_cell_length_c                    28.890033
_cell_angle_alpha                 89.999837
_cell_angle_beta                  89.981369
_cell_angle_gamma                 90.004937
_cell_volume                      2575.90169649

loop_
_atom_site_label
_atom_site_type_symbol
_atom_site_description
_atom_site_fract_x
_atom_site_fract_y
_atom_site_fract_z
_atom_type_partial_charge
O1    O     O_R   0.647170 0.849180 0.201220 -0.571652
O2    O     O_R   0.352830 0.150820 0.798780 -0.571653
O3    O     O_R   0.352830 0.150820 0.701220 -0.571622
O4    O     O_R   0.647170 0.849180 0.298780 -0.571625
O5    O     O_R   0.147170 0.650820 0.298780 -0.571641
O6    O     O_R   0.852830 0.349180 0.701220 -0.571623
O7    O     O_R   0.852830 0.349180 0.798780 -0.571635
O8    O     O_R   0.147170 0.650820 0.201220 -0.571660
O9    O     O_R   0.317430 0.862210 0.298450 -0.582376
O10   O     O_R   0.682570 0.137790 0.701550 -0.582392
O11   O     O_R   0.682570 0.137790 0.798450 -0.582313
O12   O     O_R   0.317430 0.862210 0.201550 -0.582323
O13   O     O_R   0.817430 0.637790 0.201550 -0.582444
O14   O     O_R   0.182570 0.362210 0.798450 -0.582333
O15   O     O_R   0.182570 0.362210 0.701550 -0.582390
O16   O     O_R   0.817430 0.637790 0.298450 -0.582384
C1    C     C_R   0.485804 0.887891 0.313084 0.917293
C2    C     C_R   0.514196 0.112108 0.686916 0.917258
C3    C     C_R   0.514152 0.112094 0.813079 0.917250
C4    C     C_R   0.485849 0.887879 0.186910 0.917314
C5    C     C_R   0.985831 0.612119 0.186910 0.917523
C6    C     C_R   0.014166 0.387888 0.813088 0.917273
C7    C     C_R   0.014204 0.387891 0.686915 0.917303
C8    C     C_R   0.985796 0.612109 0.313085 0.917298
H1    H     H_    0.896227 0.598694 0.691312 0.106692
H2    H     H_    0.103773 0.401306 0.308689 0.106697
H3    H     H_    0.105490 0.401668 0.191223 0.106934
H4    H     H_    0.896181 0.598695 0.808706 0.106689
H5    H     H_    0.396159 0.901272 0.808667 0.106684
H6    H     H_    0.605287 0.098412 0.191200 0.106747
H7    H     H_    0.603772 0.098710 0.308688 0.106694
H8    H     H_    0.396226 0.901290 0.691313 0.106675
H9    H     H_    0.131132 0.271558 0.372170 0.159553
H10   H     H_    0.868867 0.728444 0.627832 0.159547
H11   H     H_    0.868548 0.728410 0.872194 0.159567
H12   H     H_    0.133112 0.271951 0.127766 0.160342
H13   H     H_    0.632818 0.228114 0.127690 0.159523
H14   H     H_    0.368511 0.771512 0.872142 0.159553
H15   H     H_    0.368867 0.771539 0.627833 0.159532
H16   H     H_    0.631122 0.228461 0.372169 0.159539
H17   H     H_    0.112614 0.356725 0.599921 0.183559
H18   H     H_    0.887379 0.643276 0.400079 0.183558
H19   H     H_    0.886397 0.642994 0.099960 0.183610
H20   H     H_    0.112229 0.356681 0.900094 0.183549
H21   H     H_    0.612112 0.143267 0.900082 0.183559
H22   H     H_    0.386659 0.856857 0.099955 0.183552
H23   H     H_    0.387410 0.856708 0.400079 0.183548
H24   H     H_    0.612584 0.143289 0.599921 0.183549
O17   O     O_3   0.480630 0.680630 0.250000 -0.288672
O18   O     O_3   0.519370 0.319370 0.750000 -0.288645
O19   O     O_3   0.980630 0.819370 0.250000 -0.288625
O20   O     O_3   0.019370 0.180630 0.750000 -0.288652
V1    V     V_3+5 0.205800 0.762860 0.250000 1.226182
V2    V     V_3+5 0.794200 0.237140 0.750000 1.226162
V3    V     V_3+5 0.705800 0.737140 0.250000 1.226147
V4    V     V_3+5 0.294200 0.262860 0.750000 1.226172
C9    C     C_R   0.996571 0.532269 0.351058 -0.122305
C10   C     C_R   0.003428 0.467732 0.648942 -0.122307
C11   C     C_R   0.003276 0.467722 0.851069 -0.122345
C12   C     C_R   0.996700 0.532269 0.148937 -0.122606
C13   C     C_R   0.496795 0.967683 0.148920 -0.122730
C14   C     C_R   0.503228 0.032232 0.851048 -0.122301
C15   C     C_R   0.503404 0.032269 0.648942 -0.122273
C16   C     C_R   0.496595 0.967729 0.351058 -0.122290
C17   C     C_R   0.080887 0.353284 0.379945 0.023278
C18   C     C_R   0.919111 0.646718 0.620057 0.023270
C19   C     C_R   0.918799 0.646689 0.879967 0.023329
C20   C     C_R   0.081904 0.353453 0.120009 0.024670
C21   C     C_R   0.582047 0.146479 0.119962 0.024184
C22   C     C_R   0.418758 0.853234 0.879924 0.023236
C23   C     C_R   0.419104 0.853271 0.620057 0.023270
C24   C     C_R   0.580888 0.146727 0.379944 0.023269
C25   C     C_R   0.065937 0.427134 0.343283 -0.193528
C26   C     C_R   0.934062 0.572867 0.656718 -0.193541
C27   C     C_R   0.933909 0.572856 0.843299 -0.193511
C28   C     C_R   0.066948 0.427333 0.156666 -0.193729
C29   C     C_R   0.566973 0.072659 0.156636 -0.192694
C30   C     C_R   0.433873 0.927093 0.843264 -0.193588
C31   C     C_R   0.434051 0.927123 0.656719 -0.193532
C32   C     C_R   0.565945 0.072875 0.343282 -0.193505
C33   C     C_R   0.954495 0.565198 0.396101 -0.073298
C34   C     C_R   0.045501 0.434804 0.603900 -0.073292
C35   C     C_R   0.045179 0.434778 0.896114 -0.073082
C36   C     C_R   0.953950 0.565041 0.103923 -0.073315
C37   C     C_R   0.454220 0.934817 0.103905 -0.072909
C38   C     C_R   0.545096 0.065157 0.896095 -0.073241
C39   C     C_R   0.545473 0.065202 0.603900 -0.073289
C40   C     C_R   0.454521 0.934795 0.396101 -0.073294
C41   C     C_R   0.998715 0.498630 0.434701 0.157886
C42   C     C_R   0.001279 0.501373 0.565300 0.157888
C43   C     C_R   0.000816 0.501333 0.934718 0.157907
C44   C     C_R   0.998271 0.498525 0.065306 0.157589
C45   C     C_R   0.498584 0.001291 0.065279 0.157656
C46   C     C_R   0.500787 0.998560 0.934689 0.157957
C47   C     C_R   0.501262 0.998628 0.565300 0.157893
C48   C     C_R   0.498727 0.001370 0.434701 0.157898
C49   C     C_R   0.040201 0.386303 0.425763 -0.008980
C50   C     C_R   0.959793 0.613699 0.574238 -0.008972
C51   C     C_R   0.959344 0.613660 0.925785 -0.009003
C52   C     C_R   0.040248 0.386254 0.074226 -0.009669
C53   C     C_R   0.540636 0.113554 0.074184 -0.010478
C54   C     C_R   0.459320 0.886234 0.925746 -0.008948
C55   C     C_R   0.459784 0.886296 0.574239 -0.008956
C56   C     C_R   0.540205 0.113702 0.425763 -0.008965
C57   C     C_R   0.996924 0.538951 0.481381 -0.038960
C58   C     C_R   0.003068 0.461052 0.518619 -0.038962
C59   C     C_R   0.002498 0.460998 0.981396 -0.038708
C60   C     C_R   0.996298 0.538873 0.018638 -0.038887
C61   C     C_R   0.496435 0.960957 0.018605 -0.039041
C62   C     C_R   0.502555 0.038856 0.981370 -0.039152
C63   C     C_R   0.503059 0.038949 0.518619 -0.038990
C64   C     C_R   0.496927 0.961049 0.481382 -0.038987
C65   C     C_R   0.001855 0.345764 0.507684 0.310706
C66   C     C_R   0.998134 0.654239 0.492317 0.310703
C67   C     C_R   0.997459 0.654170 0.007713 0.310694
C68   C     C_R   0.001223 0.345710 0.992324 0.310987
C69   C     C_R   0.501367 0.154134 0.992309 0.311004
C70   C     C_R   0.497482 0.845666 0.007670 0.310761
C71   C     C_R   0.498138 0.845761 0.492318 0.310731
C72   C     C_R   0.501847 0.154236 0.507684 0.310731
C73   C     C_R   0.034841 0.308924 0.462116 0.239012
C74   C     C_R   0.965148 0.691078 0.537885 0.239016
C75   C     C_R   0.964591 0.691028 0.962146 0.238901
C76   C     C_R   0.034482 0.308814 0.037880 0.237607
C77   C     C_R   0.534866 0.190969 0.037850 0.237406
C78   C     C_R   0.464572 0.808843 0.962098 0.238870
C79   C     C_R   0.465145 0.808918 0.537885 0.238995
C80   C     C_R   0.534841 0.191080 0.462116 0.238992
N1    N     N_R   0.041793 0.191989 0.452318 0.245446
O21   O     O_R   0.127430 0.124734 0.479694 -0.332384
O22   O     O_R   0.949182 0.150388 0.418233 -0.426820
N2    N     N_R   0.958193 0.808013 0.547683 0.245446
O23   O     O_R   0.872551 0.875267 0.520307 -0.332389
O24   O     O_R   0.050814 0.849615 0.581766 -0.426822
N3    N     N_R   0.957682 0.807968 0.952354 0.245450
O25   O     O_R   0.872027 0.875224 0.979741 -0.332467
O26   O     O_R   0.050307 0.849571 0.918255 -0.426780
N4    N     N_R   0.041720 0.191831 0.047643 0.245374
O27   O     O_R   0.125885 0.124520 0.019972 -0.331042
O28   O     O_R   0.952073 0.150242 0.082276 -0.427142
N5    N     N_R   0.541861 0.307905 0.047661 0.245355
O29   O     O_R   0.626731 0.375269 0.020157 -0.332036
O30   O     O_R   0.450065 0.349398 0.081925 -0.426992
N6    N     N_R   0.457612 0.691911 0.952293 0.245453
O31   O     O_R   0.371887 0.624646 0.979666 -0.332508
O32   O     O_R   0.550248 0.650324 0.918195 -0.426795
N7    N     N_R   0.458188 0.691982 0.547684 0.245443
O33   O     O_R   0.372541 0.624722 0.520308 -0.332421
O34   O     O_R   0.550814 0.650388 0.581765 -0.426819
N8    N     N_R   0.541800 0.308016 0.452318 0.245444
O35   O     O_R   0.627446 0.375275 0.479695 -0.332415
O36   O     O_R   0.449186 0.349612 0.418235 -0.426821
Br1   Br    Br    0.904870 0.235869 0.549759 -0.461865
Br2   Br    Br    0.095118 0.764136 0.450242 -0.461868
Br3   Br    Br    0.094247 0.764062 0.049810 -0.461681
Br4   Br    Br    0.903847 0.236015 0.950234 -0.462232
Br5   Br    Br    0.404020 0.263959 0.950279 -0.461771
Br6   Br    Br    0.594151 0.735725 0.049756 -0.461770
Br7   Br    Br    0.595128 0.735872 0.450244 -0.461838
Br8   Br    Br    0.404856 0.264124 0.549757 -0.461837

loop_
_geom_bond_atom_site_label_1
_geom_bond_atom_site_label_2
_geom_bond_distance
_ccdc_geom_bond_type
C7    C10   1.465210 S    
O14   V4    2.020753 S    
H14   C22   1.081079 S    
H13   C21   1.081120 S    
C22   C30   1.391331 A    
C21   C29   1.391321 A    
C63   C64   1.432261 A    
H20   C35   1.073775 S    
O13   V3    2.020754 S    
H10   C18   1.081087 S    
C23   C31   1.391280 A    
H9    C17   1.081084 S    
N3    O25   1.299036 A    
C15   C31   1.391202 A    
C48   C64   1.434526 A    
O11   C3    1.345142 A    
C60   C67   1.433059 A    
C76   N4    1.447024 S    
N7    O34   1.299336 A    
C11   C35   1.395801 A    
C45   C61   1.434448 A    
N5    O30   1.299357 A    
C1    C16   1.465209 S    
C2    C15   1.465210 S    
H17   C34   1.073757 S    
C3    C14   1.465278 S    
C18   C26   1.391274 A    
H2    C25   1.083578 S    
C17   C25   1.391274 A    
O3    C2    1.341329 A    
N3    O26   1.299381 A    
H1    C26   1.083576 S    
C9    C25   1.391201 A    
C4    C13   1.465281 S    
C49   C73   1.408767 A    
C38   C46   1.414574 A    
H6    C29   1.083582 S    
C37   C45   1.414523 A    
C44   C60   1.434301 A    
H5    C30   1.083569 S    
N7    O33   1.299023 A    
O20   V2    1.792156 S    
C8    C9    1.465210 S    
C39   C47   1.414549 A    
C53   C77   1.408763 A    
C59   C60   1.432167 A    
C65   C73   1.411102 A    
C22   C54   1.414826 A    
C66   Br2   1.939265 S    
C55   C79   1.408770 A    
O12   V1    2.020665 S    
C19   C51   1.414817 A    
H22   C37   1.073871 S    
C33   C41   1.414551 A    
O15   C7    1.345099 A    
O16   C8    1.345099 A    
H16   C24   1.081087 S    
H19   C36   1.073885 S    
C16   C32   1.391203 A    
H18   C33   1.073761 S    
O6    V2    2.004130 S    
C62   C69   1.432926 A    
C74   N2    1.446590 S    
C47   C55   1.419285 A    
C61   C70   1.433033 A    
C77   N5    1.446683 S    
C75   N3    1.446603 S    
C67   C75   1.411158 A    
C58   C65   1.433013 A    
C69   Br5   1.939202 S    
C43   C59   1.434490 A    
C57   C66   1.433013 A    
H7    C32   1.083579 S    
C42   C58   1.434528 A    
C5    C12   1.465288 S    
N6    O32   1.299374 A    
C13   C29   1.391333 A    
C6    C11   1.465327 S    
C44   C52   1.419353 A    
N2    O23   1.299021 A    
C24   C56   1.414820 A    
O17   V3    1.792048 S    
C46   C62   1.434434 A    
O18   V4    1.792047 S    
C41   C49   1.419284 A    
C40   C48   1.414548 A    
O19   V1    1.792157 S    
C20   C52   1.414827 A    
C14   C38   1.395725 A    
O3    V4    2.004186 S    
C56   C80   1.408768 A    
H11   C19   1.081085 S    
O12   C4    1.345169 A    
C72   C80   1.411103 A    
O8    C5    1.341328 A    
H24   C39   1.073753 S    
O13   C5    1.345103 A    
C36   C44   1.414589 A    
O11   V2    2.020664 S    
C13   C37   1.395846 A    
O4    C1    1.341329 A    
O9    C1    1.345100 A    
C67   Br3   1.939380 S    
C48   C56   1.419286 A    
O4    V3    2.004184 S    
C9    C33   1.395776 A    
C70   Br6   1.939361 S    
O9    V1    2.021038 S    
C45   C53   1.419257 A    
H3    C28   1.083567 S    
C11   C27   1.391218 A    
C10   C26   1.391200 A    
C51   C75   1.408826 A    
N1    O21   1.299023 A    
O5    V1    2.004128 S    
C50   C74   1.408766 A    
C23   C55   1.414814 A    
C73   N1    1.446591 S    
O1    C4    1.341281 A    
C16   C40   1.395774 A    
C68   C76   1.411499 A    
C15   C39   1.395771 A    
O2    C3    1.341302 A    
C14   C30   1.391227 A    
C71   Br7   1.939266 S    
C80   N8    1.446590 S    
C65   Br1   1.939259 S    
N6    O31   1.299028 A    
C54   C78   1.408844 A    
O8    V1    2.004333 S    
C64   C71   1.433018 A    
H12   C20   1.080997 S    
N4    O28   1.299809 A    
C21   C53   1.414698 A    
C20   C28   1.391343 A    
O7    C6    1.341320 A    
C35   C43   1.414645 A    
C57   C58   1.432260 A    
C34   C42   1.414549 A    
C43   C51   1.419273 A    
H23   C40   1.073754 S    
C18   C50   1.414817 A    
C10   C34   1.395776 A    
H21   C38   1.073742 S    
O1    V3    2.004377 S    
O16   V3    2.021117 S    
C17   C49   1.414813 A    
C24   C32   1.391275 A    
O2    V4    2.004375 S    
C61   C62   1.432168 A    
O15   V4    2.021120 S    
H8    C31   1.083577 S    
C12   C36   1.395762 A    
O14   C6    1.345129 A    
O5    C8    1.341315 A    
O10   C2    1.345101 A    
O6    C7    1.341314 A    
C78   N6    1.446592 S    
C12   C28   1.391219 A    
N8    O36   1.299336 A    
O10   V2    2.021040 S    
C59   C68   1.432977 A    
C68   Br4   1.939210 S    
N4    O27   1.299205 A    
C66   C74   1.411106 A    
C19   C27   1.391311 A    
C46   C54   1.419248 A    
N2    O24   1.299333 A    
C41   C57   1.434527 A    
C72   Br8   1.939268 S    
H15   C23   1.081085 S    
N8    O35   1.299024 A    
C63   C72   1.433014 A    
C47   C63   1.434525 A    
C70   C78   1.411184 A    
O7    V2    2.004330 S    
C52   C76   1.409200 A    
N5    O29   1.299041 A    
H4    C27   1.083569 S    
C69   C77   1.411138 A    
C42   C50   1.419279 A    
C79   N7    1.446589 S    
N1    O22   1.299335 A    
C71   C79   1.411099 A    
