data_mof_unit_45701.cif
_audit_creation_date              2012-12-11T15:10:51-0500
_audit_creation_method            fapswitch 2.2
_symmetry_space_group_name_H-M    P1
_symmetry_Int_Tables_number       1
_space_group_crystal_system       triclinic
_cell_length_a                    21.155176
_cell_length_b                    7.230401
_cell_length_c                    18.374825
_cell_angle_alpha                 89.938886
_cell_angle_beta                  93.021649
_cell_angle_gamma                 89.978084
_cell_volume                      2806.71118105

loop_
_atom_site_label
_atom_site_type_symbol
_atom_type_description
_atom_site_fract_x
_atom_site_fract_y
_atom_site_fract_z
_atom_type_partial_charge
O1    O     O_R   0.448880 0.506250 0.415280 -0.527097
O2    O     O_R   0.551120 0.006250 0.584720 -0.527091
O3    O     O_R   0.434830 0.174000 0.557310 -0.519691
O4    O     O_R   0.565170 0.674000 0.442690 -0.519730
C1    C     C_R   0.417450 0.344432 0.580289 0.726921
C2    C     C_R   0.582541 0.844499 0.419704 0.727118
O5    O     O_R   0.441680 0.176440 0.414130 -0.540971
O6    O     O_R   0.558320 0.676440 0.585870 -0.541333
O7    O     O_R   0.558020 0.007570 0.440520 -0.518466
O8    O     O_R   0.441980 0.507570 0.559480 -0.518344
C3    C     C_R   0.427849 0.345153 0.388977 0.844008
C4    C     C_R   0.572312 0.844934 0.611200 0.840306
O9    O     O_3   0.538160 0.339670 0.508820 -0.373657
O10   O     O_3   0.461840 0.839670 0.491180 -0.372610
V1    V     V_3+5 0.492920 0.064260 0.498360 1.455462
V2    V     V_3+5 0.507080 0.564260 0.501640 1.455584
C5    C     C_R   0.882541 0.903773 0.688307 0.383965
C6    C     C_R   0.118129 0.396388 0.310535 0.380354
H1    H     H_    0.804697 0.903118 0.570474 0.169572
H2    H     H_    0.195030 0.385080 0.429352 0.168047
C7    C     C_R   0.888527 0.938374 0.819831 -0.293685
C8    C     C_R   0.113165 0.434026 0.178984 -0.290340
C9    C     C_R   0.582986 0.819640 0.744463 0.428946
C10   C     C_R   0.418048 0.325843 0.255962 0.424298
C11   C     C_R   0.618194 0.813845 0.810693 -0.225590
C12   C     C_R   0.383034 0.320960 0.189706 -0.216621
C13   C     C_R   0.683414 0.836784 0.813579 -0.206684
C14   C     C_R   0.317759 0.341131 0.187090 -0.165794
C15   C     C_R   0.716351 0.877099 0.750568 0.083060
C16   C     C_R   0.284616 0.378369 0.250100 0.101029
C17   C     C_R   0.680982 0.875658 0.681400 0.009282
C18   C     C_R   0.319574 0.373853 0.319210 0.002486
C19   C     C_R   0.783953 0.906545 0.753970 -0.066925
C20   C     C_R   0.217036 0.404941 0.246358 -0.046754
C21   C     C_R   0.815704 0.902625 0.687817 -0.116805
C22   C     C_R   0.184802 0.394946 0.311935 -0.115047
C23   C     C_R   0.780752 0.898562 0.621165 -0.165338
C24   C     C_R   0.219313 0.386753 0.378870 -0.159345
C25   C     C_R   0.714823 0.891653 0.617096 0.161019
C26   C     C_R   0.285313 0.383188 0.383410 0.162738
C27   C     C_R   0.821733 0.940970 0.820011 0.323564
C28   C     C_R   0.180725 0.444314 0.180049 0.340910
C29   C     C_R   0.918597 0.924218 0.754013 0.291948
C30   C     C_R   0.082946 0.397941 0.243684 0.295947
C31   C     C_R   0.613351 0.851425 0.679372 -0.190357
C32   C     C_R   0.387213 0.352604 0.321056 -0.188693
H3    H     H_    0.707048 0.812844 0.865974 0.200361
H4    H     H_    0.293942 0.315895 0.135175 0.170570
H5    H     H_    0.594763 0.788066 0.860704 0.142461
H6    H     H_    0.406574 0.297644 0.139601 0.139751
C33   C     C_1   0.864497 0.938973 0.132052 -0.192188
C34   C     C_1   0.134624 0.438968 0.866791 -0.202644
C35   C     C_1   0.821590 0.925013 0.175742 0.002710
C36   C     C_1   0.177624 0.424815 0.823241 -0.001389
C37   C     C_1   0.770918 0.905952 0.227718 0.004993
C38   C     C_1   0.228462 0.405620 0.771493 0.000928
C39   C     C_1   0.728233 0.889301 0.271565 0.004601
C40   C     C_1   0.271301 0.388951 0.727850 0.004012
C41   C     C_1   0.677562 0.870082 0.323527 -0.003719
C42   C     C_1   0.322158 0.369787 0.676125 -0.003719
C43   C     C_1   0.634678 0.855916 0.367229 -0.206112
C44   C     C_1   0.365183 0.355708 0.632604 -0.206163
O11   O     O_R   0.058070 0.289240 0.940580 -0.525327
O12   O     O_R   0.941930 0.789240 0.059420 -0.518434
O13   O     O_R   0.058330 0.616740 0.085880 -0.529505
O14   O     O_R   0.941670 0.116740 0.914120 -0.546114
C45   C     C_R   0.072335 0.448071 0.111151 0.810291
C46   C     C_R   0.928022 0.948530 0.888598 0.847416
O15   O     O_R   0.065180 0.619040 0.942700 -0.520079
O16   O     O_R   0.934820 0.119040 0.057300 -0.521791
O17   O     O_R   0.948870 0.787780 0.915270 -0.530861
O18   O     O_R   0.051130 0.287780 0.084730 -0.541491
C47   C     C_R   0.082364 0.450436 0.919112 0.677335
C48   C     C_R   0.916788 0.950319 0.079790 0.711578
O19   O     O_3   0.961870 0.453310 0.991210 -0.371164
O20   O     O_3   0.038130 0.953310 0.008790 -0.373500
V3    V     V_3+5 0.007070 0.728770 0.001630 1.462042
V4    V     V_3+5 0.992930 0.228770 0.998370 1.418358
O21   O     O_3   0.984026 0.922758 0.754089 -0.546266
C49   C     C_3   0.005115 0.104109 0.740674 -0.185858
H7    H     H_    0.057626 0.104263 0.743510 0.157301
H8    H     H_    0.989515 0.202987 0.782520 0.113149
H9    H     H_    0.988909 0.152189 0.685257 0.160535
O22   O     O_3   0.017547 0.386318 0.242326 -0.548340
C50   C     C_3   0.000243 0.199025 0.249637 -0.167820
H10   H     H_    0.020586 0.110915 0.207044 0.115677
H11   H     H_    0.947965 0.188517 0.242689 0.148568
H12   H     H_    0.014445 0.144850 0.304734 0.163393
O23   O     O_3   0.913261 0.891231 0.623818 -0.546991
C51   C     C_3   0.927458 0.703631 0.611383 -0.207128
H13   H     H_    0.951141 0.692866 0.559108 0.155743
H14   H     H_    0.883712 0.617981 0.606452 0.120497
H15   H     H_    0.960602 0.647372 0.654980 0.160168
O24   O     O_3   0.086912 0.383031 0.374678 -0.549488
C52   C     C_3   0.068588 0.562220 0.395365 -0.208011
H16   H     H_    0.110297 0.655168 0.403760 0.122238
H17   H     H_    0.045348 0.552521 0.447960 0.155838
H18   H     H_    0.033742 0.623448 0.354726 0.165474
O25   O     O_3   0.795041 0.985554 0.884764 -0.565950
C53   C     C_3   0.779861 0.175628 0.883536 -0.242688
H19   H     H_    0.743330 0.208293 0.839606 0.145740
H20   H     H_    0.822662 0.262613 0.877344 0.143362
H21   H     H_    0.759952 0.212525 0.936248 0.162796
O26   O     O_3   0.211102 0.531570 0.124121 -0.544315
C54   C     C_3   0.200403 0.441744 0.056442 -0.255025
H22   H     H_    0.166877 0.525255 0.022302 0.150060
H23   H     H_    0.183987 0.295742 0.060646 0.111511
H24   H     H_    0.245294 0.439983 0.027850 0.153727
O27   O     O_3   0.517735 0.801644 0.743128 -0.560143
C55   C     C_3   0.502261 0.614898 0.755696 -0.233906
H25   H     H_    0.515291 0.573617 0.812825 0.135393
H26   H     H_    0.524905 0.520492 0.716882 0.131065
H27   H     H_    0.450279 0.598328 0.747074 0.166536
O28   O     O_3   0.483404 0.311047 0.257432 -0.559970
C56   C     C_3   0.499999 0.125462 0.244303 -0.231965
H28   H     H_    0.477879 0.028863 0.282784 0.132360
H29   H     H_    0.552067 0.111231 0.252951 0.166439
H30   H     H_    0.487263 0.085155 0.187031 0.137186
N1    N     N_3   0.683345 0.894373 0.546270 -0.694438
H31   H     H_    0.695752 0.016434 0.519983 0.228860
H32   H     H_    0.699888 0.782736 0.516514 0.218336
N2    N     N_3   0.316427 0.382197 0.454425 -0.694484
H33   H     H_    0.303073 0.501469 0.481879 0.226791
H34   H     H_    0.300463 0.267411 0.482868 0.221241

loop_
_geom_bond_atom_site_label_1
_geom_bond_atom_site_label_2
_ccdc_geom_bond_type
O14   C46   A    
C10   O28   S    
C9    C31   A    
C13   C15   A    
O12   V3    S    
C35   C37   S    
O15   V3    S    
C52   H16   S    
O1    C3    A    
C33   C48   S    
O2    C4    A    
C2    O7    A    
O28   C56   S    
C52   H18   S    
C50   H10   S    
O5    C3    A    
C54   H23   S    
C2    C43   S    
C21   C23   A    
C10   C12   A    
C12   H6    S    
C39   C41   S    
O16   V4    S    
C29   O21   S    
C56   H28   S    
C15   C19   A    
C42   C44   T    
C45   O18   A    
C55   H25   S    
O18   V4    S    
H1    C23   S    
C7    C29   A    
C8    C30   A    
C38   C40   T    
O13   C45   A    
C20   C28   A    
O16   C48   A    
C27   O25   S    
O15   C47   A    
C16   C18   A    
O5    V1    S    
O6    V2    S    
C49   H9    S    
C9    O27   S    
O26   C54   S    
C34   C36   T    
C40   C42   S    
C11   H5    S    
N1    H32   S    
O14   V4    S    
C54   H24   S    
C36   C38   S    
C41   C43   T    
O13   V3    S    
C16   C20   A    
C50   H11   S    
C5    O23   S    
O22   C50   S    
C49   H8    S    
C34   C47   S    
C49   H7    S    
O11   C47   A    
C56   H29   S    
C53   H21   S    
C33   C35   T    
O4    V2    S    
C5    C29   A    
C6    C30   A    
H2    C24   S    
C51   H14   S    
O25   C53   S    
O6    C4    A    
C56   H30   S    
C53   H20   S    
O1    V2    S    
O20   V3    S    
O2    V1    S    
C55   H27   S    
C7    C27   A    
O4    C2    A    
C37   C39   T    
C7    C46   S    
C6    O24   S    
N2    H34   S    
O23   C51   S    
O17   V3    S    
O3    V1    S    
C51   H15   S    
C50   H12   S    
C13   H3    S    
C14   H4    S    
C18   C32   A    
C4    C31   S    
O3    C1    A    
C28   O26   S    
N1    H31   S    
C52   H17   S    
C11   C13   A    
C26   N2    S    
C54   H22   S    
C12   C14   A    
C30   O22   S    
C19   C27   A    
C14   C16   A    
O7    V1    S    
C10   C32   A    
C1    O8    A    
C23   C25   A    
O8    V2    S    
O27   C55   S    
C24   C26   A    
C51   H13   S    
C8    C28   A    
C46   O17   A    
C25   N1    S    
C22   C24   A    
C53   H19   S    
C19   C21   A    
C17   C25   A    
C1    C44   S    
C20   C22   A    
C18   C26   A    
O24   C52   S    
O19   V4    S    
C55   H26   S    
C8    C45   S    
O21   C49   S    
C9    C11   A    
C15   C17   A    
C17   C31   A    
O9    V2    S    
O12   C48   A    
O10   V1    S    
C3    C32   S    
C5    C21   A    
N2    H33   S    
C6    C22   A    
O11   V4    S    
