data_mof_unit_54983.cif
_audit_creation_date              2012-12-10T17:43:16-0500
_audit_creation_method            fapswitch 2.2
_symmetry_space_group_name_H-M    P1
_symmetry_Int_Tables_number       1
_space_group_crystal_system       triclinic
_cell_length_a                    15.007277
_cell_length_b                    13.706878
_cell_length_c                    10.704284
_cell_angle_alpha                 88.959228
_cell_angle_beta                  88.496216
_cell_angle_gamma                 90.00903
_cell_volume                      2200.78049103

loop_
_atom_site_label
_atom_site_type_symbol
_atom_type_description
_atom_site_fract_x
_atom_site_fract_y
_atom_site_fract_z
_atom_type_partial_charge
C1    C     C_R   0.328830 0.499964 0.501674 0.823032
C2    C     C_R   0.960016 0.455182 0.279674 0.006066
C3    C     C_R   0.440269 0.792140 0.574537 0.078214
C4    C     C_R   0.560565 0.207995 0.426720 0.086720
C5    C     C_R   0.560356 0.794276 0.426200 0.143809
C6    C     C_R   0.439647 0.205803 0.573639 0.155667
C7    C     C_R   0.562152 0.897584 0.423923 -0.115085
C8    C     C_R   0.437924 0.102611 0.575591 -0.126651
C9    C     C_R   0.438997 0.895288 0.577106 -0.129275
C10   C     C_R   0.562716 0.104873 0.425357 -0.118916
C11   C     C_R   0.500431 0.948313 0.500323 -0.061841
C12   C     C_R   0.671238 0.499808 0.500015 0.827439
C13   C     C_R   0.500259 0.051843 0.500247 -0.056365
C14   C     C_R   0.623734 0.950690 0.346988 0.381285
C15   C     C_R   0.375541 0.049445 0.650873 0.391393
C16   C     C_R   0.378230 0.946238 0.655050 0.385935
C17   C     C_R   0.626336 0.054159 0.351932 0.366242
C18   C     C_R   0.499503 0.500737 0.259583 0.907688
C19   C     C_R   0.499455 0.499057 0.740453 0.909718
C20   C     C_3   0.492854 0.592685 0.036523 -0.115357
C21   C     C_3   0.504290 0.405984 0.963782 -0.136445
C22   C     C_3   0.568877 0.550848 0.954214 -0.115101
C23   C     C_R   0.953349 0.490874 0.503271 0.031895
C24   C     C_3   0.428164 0.448020 0.046074 -0.156596
C25   C     C_3   0.423580 0.538956 0.958958 0.402187
C26   C     C_3   0.573188 0.460206 0.041029 0.396302
C27   C     C_3   0.499552 0.497123 0.876290 -0.157904
C28   C     C_3   0.497830 0.501680 0.123804 -0.160598
C29   C     C_R   0.815658 0.479499 0.390333 -0.207010
C30   C     C_R   0.184890 0.508808 0.615934 -0.203750
C31   C     C_R   0.767668 0.498320 0.500706 -0.071195
C32   C     C_R   0.232528 0.499404 0.503011 -0.075008
C33   C     C_R   0.811117 0.509792 0.612943 -0.201776
C34   C     C_R   0.046923 0.491712 0.504972 0.030428
C35   C     C_R   0.188804 0.485652 0.391737 -0.204115
C36   C     C_R   0.903896 0.506370 0.615118 0.109949
C37   C     C_R   0.096207 0.481156 0.391825 0.106712
C38   C     C_3   0.283933 0.604361 0.001092 -0.296811
C39   C     C_3   0.710837 0.393604 0.989484 -0.216850
C40   C     C_2   0.488615 0.697375 0.073974 0.378755
C41   C     C_2   0.512661 0.298563 0.939615 0.408931
C42   C     C_2   0.647943 0.610431 0.910393 0.351481
C43   C     C_2   0.350539 0.386708 0.091037 0.320928
C44   C     C_2   0.080187 0.509384 0.857533 0.315135
C45   C     C_R   0.909150 0.474284 0.389981 0.088455
C46   C     C_2   0.920530 0.419876 0.163933 0.331734
C47   C     C_3   0.668048 0.916964 0.146076 -0.175680
C48   C     C_3   0.235002 0.109407 0.662200 -0.263038
C49   C     C_3   0.355247 0.881949 0.849550 -0.264754
C50   C     C_3   0.767351 0.113328 0.350960 -0.250445
C51   C     C_R   0.091298 0.503379 0.619314 0.088325
C52   C     C_R   0.947486 0.516096 0.728105 -0.291288
C53   C     C_R   0.052722 0.463423 0.280675 -0.290854
C54   C     C_R   0.040456 0.510961 0.732401 0.025355
Cu1   Cu    Cu3+1 0.500000 0.597420 0.500000 0.999120
Cu2   Cu    Cu3+1 0.500000 0.402580 0.500000 1.013027
H1    H     H_    0.779188 0.471445 0.305221 0.196112
H2    H     H_    0.392979 0.246529 0.631124 0.170788
H3    H     H_    0.313479 0.640679 0.082145 0.125807
H4    H     H_    0.247715 0.538030 0.034253 0.197179
H5    H     H_    0.234148 0.655142 0.961307 0.188580
H6    H     H_    0.680233 0.388157 0.896113 0.138560
H7    H     H_    0.740856 0.321410 0.010178 0.232431
H8    H     H_    0.764861 0.448893 0.982774 0.155507
H9    H     H_    0.434916 0.743982 0.043281 0.059321
H10   H     H_    0.509632 0.247429 0.018147 0.096532
H11   H     H_    0.696024 0.633743 0.977619 0.097840
H12   H     H_    0.221856 0.521481 0.699512 0.203738
H13   H     H_    0.303592 0.360312 0.024122 0.131641
H14   H     H_    0.050394 0.552164 0.932045 0.048723
H15   H     H_    0.948447 0.442501 0.073462 0.059922
H16   H     H_    0.701374 0.984722 0.111041 0.196268
H17   H     H_    0.595468 0.919889 0.126414 0.157222
H18   H     H_    0.696943 0.855725 0.092121 0.189549
H19   H     H_    0.204475 0.037547 0.642198 0.189943
H20   H     H_    0.245552 0.152648 0.573971 0.145181
H21   H     H_    0.186930 0.150072 0.722056 0.200548
H22   H     H_    0.366166 0.952940 0.895624 0.190572
H23   H     H_    0.772556 0.520019 0.698611 0.164988
H24   H     H_    0.418834 0.840271 0.843106 0.146050
H25   H     H_    0.308005 0.838786 0.909787 0.183197
H26   H     H_    0.796760 0.040270 0.370456 0.183152
H27   H     H_    0.754388 0.152475 0.439852 0.149793
H28   H     H_    0.817376 0.156350 0.295246 0.220549
H29   H     H_    0.227049 0.478797 0.305137 0.168253
H30   H     H_    0.908612 0.524227 0.814241 0.129751
H31   H     H_    0.091529 0.451305 0.195338 0.157802
H32   H     H_    0.393687 0.749808 0.632225 0.178643
H33   H     H_    0.607271 0.250436 0.369362 0.183173
H34   H     H_    0.607303 0.753533 0.369258 0.195564
N1    N     N_R   0.500000 0.743810 0.500000 -0.217181
N2    N     N_R   0.500000 0.256190 0.500000 -0.208080
O1    O     O_R   0.370260 0.582280 0.500030 -0.599935
O2    O     O_3   0.651012 0.417282 0.088677 -0.580898
O3    O     O_2   0.547161 0.731336 0.136842 -0.580803
O4    O     O_2   0.523880 0.267855 0.834295 -0.542245
O5    O     O_2   0.658032 0.634287 0.800687 -0.556521
O6    O     O_2   0.340468 0.364770 0.201361 -0.550582
O7    O     O_2   0.142284 0.455200 0.881072 -0.568093
O8    O     O_2   0.860997 0.359254 0.168908 -0.553771
O9    O     O_3   0.685276 0.900451 0.273846 -0.588315
O10   O     O_3   0.315029 0.097986 0.726998 -0.571241
O11   O     O_3   0.317686 0.895534 0.731139 -0.575570
O12   O     O_R   0.629740 0.417720 0.499970 -0.592078
O13   O     O_3   0.689380 0.105776 0.281119 -0.588549
O14   O     O_R   0.629740 0.582280 0.499970 -0.565883
O15   O     O_R   0.370260 0.417720 0.500030 -0.570013
O16   O     O_R   0.499980 0.582260 0.316850 -0.583022
O17   O     O_R   0.500020 0.417740 0.683150 -0.560575
O18   O     O_R   0.500020 0.582260 0.683150 -0.549537
O19   O     O_R   0.499980 0.417740 0.316850 -0.546565
O20   O     O_3   0.347196 0.581627 0.906233 -0.582642

loop_
_geom_bond_atom_site_label_1
_geom_bond_atom_site_label_2
_ccdc_geom_bond_type
C26   O2    S    
C30   C32   A    
Cu1   Cu2   S    
C8    C13   A    
C23   C45   A    
C34   C37   A    
C11   C13   A    
C48   H20   S    
C48   H19   S    
C43   O6    D    
Cu1   O1    S    
C50   H28   S    
C39   O2    S    
C2    C46   S    
C7    C11   A    
C39   H8    S    
C34   C51   A    
C47   O9    S    
C35   C37   A    
C9    C16   A    
C12   O12   A    
C20   C40   S    
C44   O7    D    
C41   O4    D    
C20   C25   S    
C10   C17   A    
C15   C16   A    
C33   C36   A    
C49   H22   S    
C3    N1    A    
C49   H25   S    
C6    H2    S    
Cu1   N1    S    
C25   O20   S    
Cu1   O18   S    
C7    C14   A    
C50   O13   S    
C31   C33   A    
C44   H14   S    
C19   C27   S    
Cu2   O19   S    
C5    H34   S    
C36   C52   A    
C38   H5    S    
C37   C53   A    
C21   C27   S    
C43   H13   S    
C14   C17   A    
C21   C26   S    
C52   C54   A    
C50   H27   S    
C19   O17   A    
C2    C45   A    
Cu1   O14   S    
C30   C51   A    
C32   C35   A    
C18   C28   S    
C24   C25   S    
Cu2   O12   S    
C42   O5    D    
C5    C7    A    
C33   H23   S    
C14   O9    S    
C6    C8    A    
C20   C28   S    
C2    C53   A    
C1    C32   S    
C29   C45   A    
C48   H21   S    
Cu2   O15   S    
C3    C9    A    
C17   O13   S    
C16   O11   S    
C23   C34   A    
C48   O10   S    
C53   H31   S    
C18   O19   A    
C9    C11   A    
C47   H17   S    
C46   H15   S    
C5    N1    A    
C1    O15   A    
C38   H4    S    
C29   H1    S    
C8    C15   A    
C22   C27   S    
C12   C31   S    
C42   H11   S    
C21   C41   S    
C40   O3    D    
C38   O20   S    
Cu2   O17   S    
C50   H26   S    
C4    H33   S    
C19   O18   A    
C39   H6    S    
C46   O8    D    
C3    H32   S    
C24   C28   S    
C47   H18   S    
C20   C22   S    
C10   C13   A    
C49   O11   S    
C41   H10   S    
C25   C27   S    
C39   H7    S    
C26   C28   S    
C49   H24   S    
Cu1   O16   S    
C40   H9    S    
C51   C54   A    
C52   H30   S    
C29   C31   A    
C12   O14   A    
C35   H29   S    
C22   C42   S    
C6    N2    A    
C15   O10   S    
C18   O16   A    
C47   H16   S    
C38   H3    S    
C44   C54   S    
Cu2   N2    S    
C1    O1    A    
C23   C36   A    
C22   C26   S    
C21   C24   S    
C24   C43   S    
C4    C10   A    
C30   H12   S    
C4    N2    A    
