data_mof_unit_51039.cif
_audit_creation_date              2012-12-11T14:13:26-0500
_audit_creation_method            fapswitch 2.2
_symmetry_space_group_name_H-M    P1
_symmetry_Int_Tables_number       1
_space_group_crystal_system       triclinic
_cell_length_a                    17.457214
_cell_length_b                    17.407791
_cell_length_c                    17.331209
_cell_angle_alpha                 89.978519
_cell_angle_beta                  90.110946
_cell_angle_gamma                 89.987846
_cell_volume                      5266.79730398

loop_
_atom_site_label
_atom_site_type_symbol
_atom_type_description
_atom_site_fract_x
_atom_site_fract_y
_atom_site_fract_z
_atom_type_partial_charge
C1    C     C_R   0.601688 0.308245 0.114754 -0.106507
C2    C     C_R   0.188048 0.099184 0.622022 -0.222547
C3    C     C_R   0.914469 0.176650 0.637710 -0.149724
C4    C     C_R   0.822256 0.910587 0.635824 -0.169025
C5    C     C_R   0.090977 0.178856 0.365286 -0.186202
C6    C     C_R   0.191275 0.896496 0.385881 -0.142744
C7    C     C_R   0.900249 0.810713 0.379915 -0.225540
C8    C     C_R   0.823836 0.085195 0.361868 -0.149310
C9    C     C_R   0.581739 0.670721 0.141660 -0.055819
C10   C     C_R   0.333179 0.575962 0.144086 0.028815
C11   C     C_R   0.404414 0.311287 0.121145 -0.077116
C12   C     C_R   0.674149 0.582731 0.140183 -0.258665
C13   C     C_R   0.690881 0.399838 0.115651 -0.033799
C14   C     C_R   0.599648 0.309132 0.883984 -0.032776
C15   C     C_R   0.327170 0.417123 0.860061 -0.066741
C16   C     C_R   0.426528 0.662992 0.853502 0.044517
C17   C     C_R   0.689824 0.597117 0.881378 -0.084206
C18   C     C_R   0.096330 0.188356 0.621337 -0.020953
C19   C     C_R   0.828331 0.082512 0.640851 -0.045366
C20   C     C_R   0.925536 0.836826 0.646322 -0.024116
C21   C     C_R   0.192420 0.899455 0.612654 -0.026898
C22   C     C_R   0.097140 0.810273 0.380997 -0.065553
C23   C     C_R   0.410249 0.677112 0.137006 -0.172086
C24   C     C_R   0.811457 0.902704 0.379301 -0.025718
C25   C     C_R   0.918548 0.170661 0.358152 -0.036115
C26   C     C_R   0.168745 0.077894 0.357175 -0.044374
C27   C     C_R   0.673246 0.327843 0.142634 -0.104860
C28   C     C_R   0.639531 0.638801 0.186033 -0.046693
C29   C     C_R   0.358542 0.638663 0.184648 -0.102301
C30   C     C_R   0.332238 0.327437 0.146980 -0.091170
C31   C     C_R   0.674362 0.670097 0.856839 -0.086470
C32   C     C_R   0.671289 0.326821 0.856706 -0.104522
C33   C     C_R   0.359266 0.359866 0.815101 -0.039061
C34   C     C_R   0.309193 0.396398 0.114914 -0.156305
C35   C     C_R   0.364735 0.636938 0.812186 -0.127636
C36   C     C_R   0.177190 0.825515 0.634923 -0.053908
C37   C     C_R   0.166555 0.169785 0.651364 -0.088890
C38   C     C_R   0.859191 0.141692 0.684240 -0.084659
C39   C     C_R   0.861014 0.860579 0.685160 -0.073756
C40   C     C_R   0.143613 0.141681 0.317428 -0.064144
C41   C     C_R   0.169309 0.826689 0.355149 -0.078380
C42   C     C_R   0.829979 0.832018 0.349698 -0.065314
C43   C     C_R   0.859175 0.140031 0.314962 -0.087513
C44   C     C_2   0.798653 0.728912 0.840697 0.344869
C45   C     C_R   0.604361 0.691990 0.886881 -0.166307
C46   C     C_2   0.356602 0.734554 0.710118 0.280333
C47   C     C_2   0.264754 0.352955 0.708918 0.303774
C48   C     C_2   0.733995 0.203018 0.845696 0.364660
C49   C     C_2   0.796754 0.264985 0.153308 0.365282
C50   C     C_2   0.272017 0.203586 0.160082 0.347582
C51   C     C_2   0.262629 0.646225 0.287359 0.285305
C52   C     C_2   0.647520 0.733139 0.292628 0.302599
C53   C     C_2   0.236317 0.146814 0.211047 0.297298
C54   C     C_2   0.854542 0.229968 0.204385 0.287719
C55   C     C_2   0.706206 0.769527 0.341419 0.352789
C56   C     C_R   0.691236 0.398361 0.884817 -0.104693
C57   C     C_2   0.228829 0.702475 0.340012 0.360067
C58   C     C_2   0.302597 0.768356 0.654330 0.389265
C59   C     C_2   0.854166 0.764750 0.788376 0.295913
C60   C     C_2   0.769736 0.145445 0.794929 0.287015
C61   C     C_2   0.227476 0.294611 0.660342 0.356226
C62   C     C_2   0.727472 0.716968 0.813266 0.500548
C63   C     C_2   0.344396 0.661420 0.733055 0.487808
C64   C     C_2   0.335138 0.337021 0.736301 0.454690
C65   C     C_2   0.720566 0.273321 0.815913 0.478498
C66   C     C_2   0.726672 0.278053 0.183097 0.480295
C67   C     C_R   0.416546 0.325695 0.860026 -0.257918
C68   C     C_2   0.285697 0.273697 0.189751 0.492922
C69   C     C_2   0.334781 0.659653 0.263488 0.485173
C70   C     C_2   0.662650 0.662485 0.264992 0.456468
C71   C     C_2   0.166032 0.163625 0.238337 0.481757
C72   C     C_2   0.838555 0.160322 0.234281 0.491752
C73   C     C_2   0.775579 0.782652 0.309830 0.444664
C74   C     C_2   0.216320 0.773439 0.312025 0.483262
C75   C     C_2   0.229236 0.775481 0.676909 0.450488
C76   C     C_2   0.838892 0.836597 0.763641 0.476325
C77   C     C_2   0.838745 0.162544 0.764752 0.493452
C78   C     C_R   0.324991 0.586988 0.860722 -0.158421
C79   C     C_2   0.215993 0.224237 0.691036 0.422661
C80   C     C_2   0.575712 0.228645 0.102572 1.014736
C81   C     C_2   0.757654 0.567333 0.140118 1.128503
C82   C     C_2   0.420325 0.761785 0.135691 1.071263
C83   C     C_2   0.228679 0.421032 0.105032 1.030307
C84   C     C_2   0.577484 0.772497 0.894103 1.040795
C85   C     C_2   0.770746 0.424143 0.896666 1.014613
C86   C     C_2   0.432182 0.242035 0.860149 1.126892
C87   C     C_2   0.240376 0.581453 0.862390 1.085796
C88   C     C_2   0.084074 0.725916 0.590329 1.064922
C89   C     C_R   0.104884 0.806247 0.609528 -0.187503
C90   C     C_2   0.268877 0.076660 0.614826 1.107146
C91   C     C_2   0.927854 0.260540 0.633621 1.021156
C92   C     C_2   0.737990 0.919383 0.630276 1.075495
C93   C     C_2   0.081187 0.263223 0.371424 1.073720
C94   C     C_2   0.271511 0.920710 0.397761 1.052800
C95   C     C_2   0.927006 0.730405 0.385434 1.056323
C96   C     C_2   0.740235 0.071437 0.365314 1.022385
H1    H     H_    0.549910 0.720444 0.154969 0.176570
H2    H     H_    0.779313 0.049563 0.654587 0.173054
H3    H     H_    0.972024 0.805813 0.671446 0.196883
H4    H     H_    0.247471 0.927074 0.613799 0.169711
H5    H     H_    0.069046 0.755583 0.376385 0.151202
H6    H     H_    0.755594 0.928409 0.376934 0.146642
H7    H     H_    0.952951 0.218282 0.343006 0.171122
H8    H     H_    0.207831 0.035334 0.337243 0.167383
H9    H     H_    0.521738 0.153326 0.033194 0.361825
H10   H     H_    0.771050 0.606993 0.031463 0.330517
H11   H     H_    0.460420 0.854302 0.079043 0.339953
H12   H     H_    0.295327 0.532841 0.165081 0.152427
H13   H     H_    0.153978 0.491042 0.051705 0.353604
H14   H     H_    0.496326 0.845547 0.931338 0.355875
H15   H     H_    0.846760 0.476615 0.966414 0.361239
H16   H     H_    0.391813 0.228202 0.968356 0.331673
H17   H     H_    0.145186 0.573933 0.927295 0.334727
H18   H     H_    0.010946 0.636922 0.601634 0.366177
H19   H     H_    0.279099 0.125172 0.509683 0.314747
H20   H     H_    0.955530 0.351044 0.566643 0.343680
H21   H     H_    0.648123 0.953426 0.565540 0.344137
H22   H     H_    0.042603 0.352097 0.434883 0.346480
H23   H     H_    0.433926 0.257498 0.127940 0.141282
H24   H     H_    0.346135 0.983691 0.459146 0.366990
H25   H     H_    0.950977 0.738990 0.498157 0.298906
H26   H     H_    0.649694 0.043594 0.431774 0.343889
H27   H     H_    0.875342 0.714778 0.919969 0.339510
H28   H     H_    0.401028 0.835323 0.727791 0.350549
H29   H     H_    0.171371 0.413226 0.710183 0.351305
H30   H     H_    0.722472 0.129307 0.928317 0.346947
H31   H     H_    0.870186 0.277432 0.070912 0.345663
H32   H     H_    0.282915 0.129447 0.077860 0.341510
H33   H     H_    0.162954 0.598915 0.272980 0.349813
H34   H     H_    0.747150 0.424971 0.115192 0.169659
H35   H     H_    0.589137 0.827886 0.291152 0.350400
H36   H     H_    0.332718 0.091741 0.218325 0.345645
H37   H     H_    0.911642 0.325515 0.205733 0.358802
H38   H     H_    0.634816 0.781545 0.425761 0.339762
H39   H     H_    0.217007 0.626513 0.420308 0.349594
H40   H     H_    0.383809 0.791456 0.582412 0.337214
H41   H     H_    0.905505 0.666700 0.775593 0.344263
H42   H     H_    0.675912 0.085845 0.794866 0.359777
H43   H     H_    0.213255 0.367376 0.577101 0.341579
H44   H     H_    0.653285 0.727078 0.730048 0.335141
H45   H     H_    0.574434 0.252778 0.884342 0.170076
H46   H     H_    0.309359 0.559651 0.705023 0.346414
H47   H     H_    0.435441 0.305278 0.703802 0.340671
H48   H     H_    0.728576 0.344666 0.729866 0.342370
H49   H     H_    0.655791 0.269399 0.269162 0.341966
H50   H     H_    0.278599 0.345512 0.275329 0.339637
H51   H     H_    0.435593 0.698642 0.289612 0.339140
H52   H     H_    0.694045 0.561382 0.296570 0.340066
H53   H     H_    0.066568 0.208130 0.215954 0.340964
H54   H     H_    0.801418 0.058271 0.210830 0.327004
H55   H     H_    0.844101 0.774501 0.221975 0.348160
H56   H     H_    0.275603 0.447548 0.849416 0.171781
H57   H     H_    0.224567 0.846666 0.227715 0.339769
H58   H     H_    0.150319 0.755421 0.753698 0.332884
H59   H     H_    0.795589 0.936264 0.787597 0.344286
H60   H     H_    0.940122 0.200681 0.788504 0.326989
H61   H     H_    0.229174 0.152860 0.776316 0.349518
H62   H     H_    0.471009 0.698070 0.830534 0.149896
H63   H     H_    0.743575 0.567637 0.875226 0.144801
H64   H     H_    0.070317 0.244179 0.623759 0.148972
N1    N     N_R   0.574080 0.369570 0.076720 -0.061840
N2    N     N_R   0.130430 0.074080 0.576720 -0.068540
N3    N     N_R   0.925920 0.130430 0.576720 -0.050605
N4    N     N_R   0.869570 0.925920 0.576720 -0.050437
N5    N     N_R   0.074080 0.130430 0.423280 -0.052962
N6    N     N_R   0.130430 0.925920 0.423280 -0.061471
N7    N     N_R   0.925920 0.869570 0.423280 -0.079646
N8    N     N_R   0.869570 0.074080 0.423280 -0.051155
N9    N     N_R   0.574050 0.630410 0.076720 -0.044281
N10   N     N_R   0.369590 0.574050 0.076720 -0.040655
N11   N     N_R   0.425950 0.369590 0.076720 -0.054155
N12   N     N_R   0.630430 0.574080 0.076720 -0.069835
N13   N     N_R   0.630410 0.425950 0.076720 -0.054374
N14   N     N_R   0.574050 0.369590 0.923280 -0.054365
N15   N     N_R   0.369590 0.425950 0.923280 -0.047983
N16   N     N_R   0.425950 0.630410 0.923280 -0.037458
N17   N     N_R   0.630410 0.574050 0.923280 -0.055126
N18   N     N_R   0.074050 0.130410 0.576720 -0.045577
N19   N     N_R   0.869590 0.074050 0.576720 -0.043665
N20   N     N_R   0.925950 0.869590 0.576720 -0.074948
N21   N     N_R   0.130410 0.925950 0.576720 -0.055322
N22   N     N_R   0.074050 0.869590 0.423280 -0.062741
N23   N     N_R   0.425920 0.630430 0.076720 -0.052718
N24   N     N_R   0.869590 0.925950 0.423280 -0.042134
N25   N     N_R   0.925950 0.130410 0.423280 -0.042636
N26   N     N_R   0.130410 0.074050 0.423280 -0.057970
N27   N     N_R   0.369570 0.425920 0.076720 -0.064965
N28   N     N_R   0.574080 0.630430 0.923280 -0.065074
N29   N     N_R   0.630430 0.425920 0.923280 -0.062023
N30   N     N_R   0.425920 0.369570 0.923280 -0.068686
N31   N     N_R   0.369570 0.574080 0.923280 -0.053250
N32   N     N_R   0.074080 0.869570 0.576720 -0.081653
Ni1   Ni    Ni4+2 0.500000 0.370760 0.000000 0.253999
Ni2   Ni    Ni4+2 0.629240 0.500000 0.000000 0.252933
Ni3   Ni    Ni4+2 0.500000 0.629240 0.000000 0.299657
Ni4   Ni    Ni4+2 0.370760 0.500000 0.000000 0.295191
Ni5   Ni    Ni4+2 0.000000 0.870760 0.500000 0.229869
Ni6   Ni    Ni4+2 0.129240 0.000000 0.500000 0.253602
Ni7   Ni    Ni4+2 0.000000 0.129240 0.500000 0.303256
Ni8   Ni    Ni4+2 0.870760 0.000000 0.500000 0.302352
O1    O     O_2   0.591594 0.178703 0.149559 -0.568965
O2    O     O_R   0.509663 0.788860 0.932892 -0.752827
O3    O     O_2   0.819922 0.409281 0.848815 -0.569860
O4    O     O_R   0.790272 0.463278 0.964114 -0.795819
O5    O     O_2   0.457988 0.210450 0.803055 -0.561716
O6    O     O_R   0.416200 0.197580 0.925229 -0.722393
O7    O     O_2   0.203042 0.583651 0.802744 -0.557926
O8    O     O_R   0.202958 0.576075 0.933107 -0.755632
O9    O     O_2   0.129472 0.686608 0.554103 -0.537909
O10   O     O_R   0.016386 0.692797 0.617211 -0.780937
O11   O     O_2   0.301459 0.046730 0.669455 -0.578715
O12   O     O_R   0.535081 0.209946 0.035804 -0.797001
O13   O     O_R   0.311021 0.096981 0.549596 -0.717145
O14   O     O_2   0.916757 0.301866 0.689428 -0.554339
O15   O     O_R   0.949245 0.293233 0.563327 -0.757490
O16   O     O_2   0.696284 0.898220 0.682646 -0.538910
O17   O     O_R   0.706094 0.950720 0.563383 -0.756666
O18   O     O_2   0.105842 0.306078 0.321468 -0.535841
O19   O     O_R   0.045378 0.293937 0.436375 -0.756131
O20   O     O_2   0.322617 0.894124 0.357681 -0.551088
O21   O     O_R   0.289111 0.973106 0.455811 -0.801441
O22   O     O_2   0.922489 0.688255 0.329363 -0.534101
O23   O     O_2   0.789461 0.542120 0.197474 -0.555777
O24   O     O_R   0.955772 0.700972 0.454437 -0.747807
O25   O     O_2   0.699389 0.081877 0.308984 -0.553363
O26   O     O_R   0.707273 0.050303 0.435550 -0.759812
O27   O     O_3   0.820768 0.701034 0.912024 -0.767065
O28   O     O_3   0.404132 0.783323 0.751042 -0.772743
O29   O     O_3   0.222926 0.415247 0.734257 -0.780680
O30   O     O_3   0.707103 0.183196 0.918011 -0.740385
O31   O     O_3   0.816275 0.292249 0.081021 -0.740219
O32   O     O_3   0.297864 0.183567 0.087479 -0.769248
O33   O     O_3   0.214383 0.596295 0.248841 -0.769666
O34   O     O_R   0.801698 0.582751 0.074749 -0.721766
O35   O     O_3   0.586638 0.776538 0.266474 -0.791562
O36   O     O_3   0.281909 0.090757 0.243860 -0.780285
O37   O     O_3   0.913443 0.275017 0.232217 -0.787395
O38   O     O_3   0.688380 0.796586 0.414225 -0.752566
O39   O     O_3   0.203244 0.681219 0.412232 -0.706003
O40   O     O_3   0.328120 0.801821 0.586762 -0.746734
O41   O     O_3   0.906990 0.718436 0.751602 -0.747760
O42   O     O_3   0.726259 0.084718 0.768456 -0.788091
O43   O     O_3   0.198669 0.313475 0.588381 -0.758596
O44   O     O_3   0.706592 0.743671 0.740924 -0.713354
O45   O     O_2   0.395997 0.801662 0.188203 -0.533923
O46   O     O_3   0.304236 0.612636 0.684638 -0.702673
O47   O     O_3   0.381822 0.290666 0.692010 -0.704692
O48   O     O_3   0.747179 0.292438 0.743117 -0.720034
O49   O     O_3   0.707858 0.250899 0.255804 -0.719507
O50   O     O_3   0.261242 0.292565 0.263336 -0.715542
O51   O     O_3   0.382880 0.702331 0.310472 -0.701229
O52   O     O_3   0.708476 0.614991 0.309194 -0.703112
O53   O     O_3   0.119093 0.210757 0.194516 -0.698526
O54   O     O_3   0.794145 0.110987 0.190452 -0.700064
O55   O     O_3   0.792700 0.755295 0.236811 -0.732749
O56   O     O_R   0.456775 0.796434 0.073406 -0.767358
O57   O     O_3   0.241544 0.793429 0.239008 -0.711995
O58   O     O_3   0.204509 0.740989 0.744510 -0.732485
O59   O     O_3   0.793137 0.883421 0.808771 -0.694941
O60   O     O_3   0.887399 0.207899 0.808350 -0.699715
O61   O     O_3   0.246288 0.205428 0.762532 -0.738444
O62   O     O_2   0.177724 0.390807 0.142641 -0.549059
O63   O     O_R   0.210782 0.478869 0.052499 -0.762610
O64   O     O_2   0.614444 0.824922 0.865549 -0.552736

loop_
_geom_bond_atom_site_label_1
_geom_bond_atom_site_label_2
_ccdc_geom_bond_type
C78   C87   S    
C61   O43   S    
H61   O61   S    
N18   Ni7   S    
C6    N6    A    
C11   N11   A    
H24   O21   S    
C23   C82   S    
C19   N19   A    
N10   N23   A    
C24   N24   A    
C24   C42   A    
C10   H12   S    
C8    C96   S    
C8    C43   A    
N11   Ni1   S    
H57   O57   S    
C25   C43   A    
N15   N30   A    
C56   C85   S    
C67   N30   A    
C20   N20   A    
C21   C36   A    
C2    C37   A    
C21   N21   A    
C37   C79   S    
H51   O51   S    
C43   C72   S    
H9    O12   S    
H50   O50   S    
C23   C29   A    
H49   O49   S    
C40   C71   S    
C18   C37   A    
C91   O14   D    
H29   O29   S    
N5    Ni7   S    
C16   C35   A    
C90   O11   D    
N27   Ni4   S    
N21   N32   A    
H54   O54   S    
C22   C41   A    
H27   O27   S    
N19   Ni8   S    
C66   O49   S    
C44   C59   S    
H53   O53   S    
C49   C54   S    
H26   O26   S    
C26   C40   A    
N1    N13   A    
H19   O13   S    
C3    C91   S    
C7    C42   A    
C2    C90   S    
N31   Ni4   S    
C71   O53   S    
C91   O15   S    
N20   Ni5   S    
C8    N8    A    
N30   Ni1   S    
C26   H8    S    
C41   C74   S    
C73   O55   S    
N12   Ni2   S    
N29   Ni2   S    
H25   O24   S    
C80   O1    D    
N28   Ni3   S    
H47   O47   S    
N24   Ni8   S    
C6    C41   A    
N6    N22   A    
H14   O2    S    
H11   O56   S    
C94   O21   S    
N23   Ni3   S    
C13   H34   S    
C4    C39   A    
H21   O17   S    
C51   C57   S    
C5    N5    A    
C48   C65   D    
H13   O63   S    
H43   O43   S    
N4    N20   A    
C52   C55   S    
C3    N3    A    
C80   O12   S    
C48   O30   S    
C16   N16   A    
C35   C63   S    
C14   H45   S    
N3    Ni7   S    
C55   O38   S    
C88   O10   S    
C46   C58   S    
C32   C56   A    
H38   O38   S    
C31   C62   S    
C86   O6    S    
C34   N27   A    
N22   Ni5   S    
H37   O37   S    
H20   O15   S    
C58   O40   S    
N21   Ni6   S    
C86   O5    D    
C94   O20   D    
C15   H56   S    
H28   O28   S    
C19   H2    S    
C58   C75   D    
C48   C60   S    
C29   C69   S    
C81   O23   D    
C76   O59   S    
C28   C70   S    
C60   C77   D    
H52   O52   S    
C50   C53   S    
H35   O35   S    
C49   C66   D    
C30   C34   A    
C32   C65   S    
C16   H62   S    
C52   O35   S    
C95   O22   D    
H17   O8    S    
C52   C70   D    
C3    C38   A    
N9    Ni3   S    
C11   H23   S    
N17   Ni2   S    
C14   C32   A    
C47   C64   D    
C21   H4    S    
C85   O3    D    
C25   H7    S    
N16   N31   A    
H46   O46   S    
N32   Ni5   S    
C77   O60   S    
C63   O46   S    
H33   O33   S    
C93   O18   D    
H44   O44   S    
C96   O26   S    
C9    N9    A    
C49   O31   S    
C13   N13   A    
N6    Ni6   S    
C23   N23   A    
C36   C75   S    
H59   O59   S    
N7    N24   A    
C75   O58   S    
C55   C73   D    
C1    C27   A    
H31   O31   S    
N7    Ni5   S    
N1    Ni1   S    
C39   C76   S    
N25   Ni7   S    
C50   O32   S    
N17   N28   A    
C53   O36   S    
C87   O7    D    
C57   O39   S    
C25   N25   A    
C65   O48   S    
C12   C28   A    
C22   H5    S    
C88   O9    D    
H40   O40   S    
C36   C89   A    
N3    N19   A    
C79   O61   S    
N9    N12   A    
C45   C84   S    
C34   C83   S    
C31   C45   A    
C53   C71   D    
C70   O52   S    
N15   Ni4   S    
H22   O19   S    
C12   N12   A    
H55   O55   S    
C74   O57   S    
C84   O2    S    
C20   C39   A    
C68   O50   S    
C7    N7    A    
C56   N29   A    
C67   C86   S    
C9    H1    S    
N8    N25   A    
H10   O34   S    
C82   O45   D    
H30   O30   S    
C82   O56   S    
C13   C27   A    
C78   N31   A    
C95   O24   S    
C54   O37   S    
C72   O54   S    
C83   O62   D    
H58   O58   S    
H15   O4    S    
C47   C61   S    
C5    C93   S    
C45   N28   A    
C62   O44   S    
C47   O29   S    
C38   C77   S    
C15   N15   A    
C10   N10   A    
C7    C95   S    
N2    Ni6   S    
C35   C78   A    
C60   O42   S    
N5    N26   A    
C51   O33   S    
C46   C63   D    
C59   O41   S    
C44   C62   D    
C96   O25   D    
H18   O10   S    
H48   O48   S    
H16   O6    S    
C14   N14   A    
C33   C67   A    
C85   O4    S    
C11   C30   A    
N10   Ni4   S    
N26   Ni6   S    
C26   N26   A    
C10   C29   A    
C6    C94   S    
H42   O42   S    
C20   H3    S    
H41   O41   S    
C61   C79   D    
C33   C64   S    
C17   C31   A    
N8    Ni8   S    
C59   C76   D    
C42   C73   S    
C89   N32   A    
H39   O39   S    
C12   C81   S    
C92   O16   D    
C24   H6    S    
C4    N4    A    
N16   Ni3   S    
C92   O17   S    
C17   H63   S    
C44   O27   S    
C87   O8    S    
N2    N18   A    
C18   H64   S    
C93   O19   S    
C69   O51   S    
N14   N29   A    
C1    N1    A    
H36   O36   S    
C64   O47   S    
C19   C38   A    
C54   C72   D    
C88   C89   S    
C18   N18   A    
N14   Ni1   S    
C22   N22   A    
H32   O32   S    
C5    C40   A    
N13   Ni2   S    
C27   C66   S    
C1    C80   S    
C46   O28   S    
C81   O34   S    
C84   O64   D    
C83   O63   S    
C17   N17   A    
C51   C69   D    
H60   O60   S    
C50   C68   D    
N11   N27   A    
C15   C33   A    
C90   O13   S    
C30   C68   S    
N4    Ni8   S    
C9    C28   A    
C2    N2    A    
C4    C92   S    
C57   C74   D    
