data_mof_unit_29121.cif
_audit_creation_date              2012-12-10T19:50:58-0500
_audit_creation_method            fapswitch 2.2
_symmetry_space_group_name_H-M    P1
_symmetry_Int_Tables_number       1
_space_group_crystal_system       triclinic
_cell_length_a                    23.507332
_cell_length_b                    10.852772
_cell_length_c                    22.315503
_cell_angle_alpha                 90.710616
_cell_angle_beta                  88.907914
_cell_angle_gamma                 87.977935
_cell_volume                      5688.05920021

loop_
_atom_site_label
_atom_site_type_symbol
_atom_type_description
_atom_site_fract_x
_atom_site_fract_y
_atom_site_fract_z
_atom_type_partial_charge
C1    C     C_R   0.500915 0.262225 0.499680 0.811921
C2    C     C_R   0.701240 0.462258 0.551103 -0.211853
C3    C     C_2   0.791264 0.436208 0.608227 0.357074
C4    C     C_R   0.238177 0.487667 0.556425 0.013603
C5    C     C_R   0.760918 0.457900 0.551391 0.019572
C6    C     C_R   0.208894 0.509511 0.502735 0.283151
C7    C     C_R   0.791172 0.477984 0.497366 0.275143
C8    C     C_R   0.314378 0.226690 0.441262 -0.119766
C9    C     C_R   0.687724 0.774930 0.554589 -0.125425
C10   C     C_R   0.359459 0.169676 0.471470 -0.165250
C11   C     C_R   0.642321 0.835567 0.526408 -0.184580
C12   C     C_R   0.411114 0.141152 0.441021 0.108633
C13   C     C_R   0.498888 0.737792 0.500388 0.821353
C14   C     C_R   0.590441 0.858104 0.557508 0.117806
C15   C     C_R   0.417695 0.173404 0.380598 -0.095324
C16   C     C_R   0.583851 0.814515 0.616182 -0.086813
C17   C     C_R   0.390789 0.501120 0.500502 0.810061
C18   C     C_R   0.609217 0.496925 0.499463 0.812244
C19   C     C_R   0.372972 0.233320 0.350989 -0.136249
C20   C     C_R   0.629078 0.752300 0.643876 -0.126176
C21   C     C_R   0.321149 0.258787 0.381125 -0.115818
C22   C     C_R   0.681196 0.733924 0.613375 -0.113605
C23   C     C_R   0.454381 0.939075 0.472940 0.053176
C24   C     C_R   0.239185 0.530512 0.449511 -0.136652
C25   C     C_R   0.545160 0.061145 0.528739 0.036461
C26   C     C_R   0.498650 0.871662 0.501243 -0.123835
C27   C     C_R   0.501590 0.128288 0.499081 -0.129341
C28   C     C_R   0.543679 0.931475 0.529250 -0.053435
C29   C     C_R   0.456856 0.068281 0.470874 -0.047712
C30   C     C_R   0.526414 0.394999 0.872246 0.544111
C31   C     C_R   0.471472 0.594902 0.127115 0.537539
C32   C     C_R   0.478528 0.591144 0.873860 0.521314
C33   C     C_R   0.510912 0.391270 0.127338 0.516725
C34   C     C_R   0.467050 0.583855 0.936562 -0.061298
C35   C     C_R   0.761727 0.500959 0.444478 -0.090492
C36   C     C_R   0.518553 0.392314 0.064043 -0.043643
C37   C     C_R   0.493866 0.487061 0.968284 -0.071224
C38   C     C_R   0.491300 0.488027 0.031940 -0.075518
C39   C     C_R   0.522169 0.388120 0.936231 -0.062811
C40   C     C_R   0.463207 0.586846 0.063890 -0.056236
C41   C     C_R   0.876257 0.595597 0.498058 0.505595
C42   C     C_R   0.123855 0.392109 0.498264 0.496954
C43   C     C_R   0.427970 0.667157 0.967869 0.067298
C44   C     C_R   0.551974 0.300217 0.032232 0.079755
C45   C     C_R   0.426813 0.670793 0.032130 0.078392
C46   C     C_R   0.298368 0.528493 0.448876 -0.239458
C47   C     C_R   0.545167 0.286233 0.969326 0.065783
C48   C     C_R   0.542265 0.450713 0.253441 -0.190472
C49   C     C_R   0.454324 0.535217 0.746179 -0.200529
C50   C     C_R   0.543222 0.444480 0.316457 0.145807
C51   C     C_R   0.454565 0.546475 0.683345 0.152735
C52   C     C_R   0.454335 0.554048 0.323122 0.028423
C53   C     C_R   0.547821 0.457795 0.677437 -0.008404
C54   C     C_R   0.449986 0.551650 0.260260 -0.238898
C55   C     C_R   0.551127 0.458757 0.740374 -0.226270
C56   C     C_R   0.494651 0.500126 0.224029 0.304695
C57   C     C_R   0.702483 0.506176 0.444885 -0.203973
C58   C     C_R   0.503301 0.494834 0.776226 0.300181
C59   C     C_R   0.884064 0.375796 0.495030 0.527601
C60   C     C_R   0.116173 0.611807 0.502178 0.534067
C61   C     C_R   0.943499 0.378554 0.496516 -0.030427
C62   C     C_R   0.056706 0.609151 0.501111 -0.028609
C63   C     C_R   0.969968 0.492920 0.498683 -0.044330
C64   C     C_R   0.030158 0.494868 0.499709 -0.044820
C65   C     C_R   0.936300 0.604767 0.499968 -0.032659
C66   C     C_R   0.063768 0.383040 0.499545 -0.032062
C67   C     C_R   0.976383 0.268659 0.497391 -0.202853
C68   C     C_R   0.328215 0.505237 0.501591 -0.074274
C69   C     C_R   0.023780 0.719000 0.502482 -0.204153
C70   C     C_R   0.035797 0.268236 0.500682 0.089846
C71   C     C_R   0.964220 0.719592 0.503181 0.086659
C72   C     C_3   0.401999 0.875215 0.449611 -0.410186
C73   C     C_3   0.360130 0.849095 0.501307 -0.367431
C74   C     C_3   0.299149 0.842037 0.479487 -0.762530
C75   C     C_3   0.594039 0.126403 0.558590 -0.374791
C76   C     C_3   0.584296 0.138518 0.626746 -0.335322
C77   C     C_3   0.638788 0.171558 0.658370 -0.803210
C78   C     C_3   0.381550 0.735847 0.932981 -0.347226
C79   C     C_R   0.671784 0.488258 0.498345 -0.085422
C80   C     C_3   0.395181 0.871778 0.923350 -0.329337
C81   C     C_3   0.354341 0.933055 0.879559 -0.802965
C82   C     C_3   0.601327 0.231138 0.062850 -0.373433
C83   C     C_3   0.643160 0.319844 0.091316 -0.336617
C84   C     C_3   0.691817 0.249278 0.121539 -0.791082
C85   C     C_3   0.382572 0.753285 0.066622 -0.361835
C86   C     C_3   0.337960 0.676604 0.099098 -0.338533
C87   C     C_3   0.295267 0.758978 0.134784 -0.835915
C88   C     C_3   0.559874 0.160758 0.939615 -0.344585
C89   C     C_3   0.508700 0.104940 0.908183 -0.309884
C90   C     C_R   0.297903 0.485527 0.555207 -0.186009
C91   C     C_3   0.528674 0.009746 0.860507 -0.773661
C92   C     C_2   0.589589 0.369177 0.343246 0.364969
C93   C     C_2   0.407918 0.621400 0.657009 0.368313
C94   C     C_3   0.065967 0.143350 0.508825 -0.337508
C95   C     C_3   0.086890 0.129114 0.573320 -0.339693
C96   C     C_3   0.122385 0.009985 0.580405 -0.745473
C97   C     C_3   0.933722 0.845176 0.509716 -0.329906
C98   C     C_3   0.910760 0.866817 0.574077 -0.341517
C99   C     C_3   0.874722 0.986264 0.579508 -0.753201
C100  C     C_2   0.206620 0.466734 0.613406 0.402045
Cu1   Cu    Cu3+1 0.500000 0.499970 0.559570 0.928844
Cu2   Cu    Cu3+1 0.500000 0.500030 0.440430 0.934600
H1    H     H_    0.955389 0.181440 0.497016 0.172002
H2    H     H_    0.584660 0.425476 0.651583 0.152448
H3    H     H_    0.411704 0.589518 0.240285 0.161108
H4    H     H_    0.591102 0.431703 0.760437 0.186743
H5    H     H_    0.216665 0.546719 0.408311 0.142804
H6    H     H_    0.785007 0.517252 0.403158 0.152205
H7    H     H_    0.320749 0.544455 0.406976 0.153647
H8    H     H_    0.680782 0.526516 0.403619 0.188545
H9    H     H_    0.320828 0.466766 0.595895 0.217896
H10   H     H_    0.677645 0.448667 0.592457 0.177948
H11   H     H_    0.286315 0.303970 0.358001 0.133982
H12   H     H_    0.044746 0.806166 0.504044 0.171101
H13   H     H_    0.716379 0.686839 0.635072 0.155494
H14   H     H_    0.274302 0.246749 0.464603 0.188838
H15   H     H_    0.727927 0.759406 0.530812 0.188251
H16   H     H_    0.353763 0.145427 0.518052 0.137704
H17   H     H_    0.647929 0.867682 0.480993 0.141388
H18   H     H_    0.282812 0.935105 0.466626 0.252317
H19   H     H_    0.297367 0.779432 0.439972 0.251650
H20   H     H_    0.271348 0.807228 0.515861 0.270888
H21   H     H_    0.372962 0.760690 0.522472 0.204404
H22   H     H_    0.361000 0.922566 0.536391 0.225934
H23   H     H_    0.457231 0.151224 0.356480 0.134670
H24   H     H_    0.380203 0.931328 0.415141 0.216908
H25   H     H_    0.413591 0.788366 0.425141 0.196605
H26   H     H_    0.671163 0.094896 0.653195 0.263903
H27   H     H_    0.656316 0.256487 0.639354 0.258593
H28   H     H_    0.629509 0.187406 0.706892 0.254106
H29   H     H_    0.550713 0.210461 0.636749 0.240286
H30   H     H_    0.569225 0.051493 0.645758 0.220837
H31   H     H_    0.634997 0.076048 0.548360 0.209769
H32   H     H_    0.600270 0.219288 0.539833 0.176302
H33   H     H_    0.357725 0.885723 0.835140 0.278220
H34   H     H_    0.543910 0.830005 0.640583 0.120404
H35   H     H_    0.309856 0.929824 0.897006 0.250638
H36   H     H_    0.365318 0.030960 0.873809 0.236577
H37   H     H_    0.393230 0.925124 0.966013 0.190220
H38   H     H_    0.439066 0.877624 0.905569 0.267342
H39   H     H_    0.374801 0.689542 0.889199 0.226148
H40   H     H_    0.339297 0.728055 0.955372 0.171415
H41   H     H_    0.674856 0.190896 0.157820 0.273185
H42   H     H_    0.716065 0.190043 0.088320 0.244131
H43   H     H_    0.721260 0.315562 0.141461 0.248710
H44   H     H_    0.661207 0.379071 0.055905 0.214787
H45   H     H_    0.378251 0.258610 0.304499 0.137212
H46   H     H_    0.621731 0.381125 0.125451 0.230561
H47   H     H_    0.585160 0.165007 0.096005 0.248549
H48   H     H_    0.627945 0.175834 0.030302 0.176619
H49   H     H_    0.317483 0.812619 0.169404 0.264867
H50   H     H_    0.272429 0.823532 0.104525 0.251377
H51   H     H_    0.263574 0.701071 0.157476 0.240482
H52   H     H_    0.314671 0.622404 0.065475 0.210280
H53   H     H_    0.358371 0.610768 0.130407 0.227076
H54   H     H_    0.403285 0.817286 0.097575 0.247857
H55   H     H_    0.358770 0.817840 0.038054 0.180123
H56   H     H_    0.623862 0.719276 0.689149 0.137352
H57   H     H_    0.558974 0.050608 0.828228 0.275062
H58   H     H_    0.549751 0.928854 0.881950 0.249772
H59   H     H_    0.491774 0.978600 0.834773 0.253204
H60   H     H_    0.481552 0.060232 0.942265 0.188053
H61   H     H_    0.481054 0.175636 0.886641 0.239383
H62   H     H_    0.597387 0.168894 0.909138 0.235825
H63   H     H_    0.572583 0.090000 0.972580 0.163433
H64   H     H_    0.583199 0.322821 0.385185 0.116451
H65   H     H_    0.415323 0.674076 0.617042 0.099938
H66   H     H_    0.096046 0.929067 0.571868 0.255612
H67   H     H_    0.577797 0.411734 0.227140 0.191894
H68   H     H_    0.159547 0.007455 0.548838 0.276476
H69   H     H_    0.138221 0.004537 0.626889 0.238763
H70   H     H_    0.112948 0.207846 0.586677 0.246747
H71   H     H_    0.049493 0.128051 0.604564 0.205919
H72   H     H_    0.036566 0.067476 0.500219 0.155086
H73   H     H_    0.100492 0.127355 0.474826 0.245122
H74   H     H_    0.900891 0.066395 0.568639 0.255652
H75   H     H_    0.838142 0.983675 0.548777 0.279295
H76   H     H_    0.857996 0.997941 0.626177 0.235260
H77   H     H_    0.884562 0.789263 0.588850 0.246471
H78   H     H_    0.416771 0.564898 0.772087 0.194181
H79   H     H_    0.947186 0.872220 0.604961 0.205825
H80   H     H_    0.963415 0.919971 0.499742 0.154073
H81   H     H_    0.900370 0.857408 0.475656 0.246795
H82   H     H_    0.160443 0.470819 0.614878 0.058956
H83   H     H_    0.837330 0.437708 0.609371 0.079160
H84   H     H_    0.420068 0.597399 0.349574 0.127767
N1    N     N_R   0.852094 0.482960 0.496411 -0.467860
N2    N     N_R   0.148061 0.504581 0.501075 -0.466474
N3    N     N_R   0.503658 0.493984 0.842125 -0.432700
N4    N     N_R   0.491797 0.495162 0.158359 -0.441242
N5    N     N_R   0.500010 0.500010 0.350920 -0.209131
N6    N     N_R   0.499990 0.499990 0.649080 -0.210345
O1    O     O_R   0.500000 0.319610 0.550310 -0.575705
O2    O     O_2   0.158474 0.290835 0.493461 -0.583431
O3    O     O_2   0.858140 0.266851 0.492602 -0.554013
O4    O     O_2   0.142168 0.720684 0.504426 -0.568043
O5    O     O_2   0.554164 0.304911 0.840369 -0.576329
O6    O     O_2   0.461537 0.702491 0.156708 -0.558770
O7    O     O_2   0.467349 0.697400 0.845112 -0.576505
O8    O     O_2   0.521049 0.286025 0.157331 -0.558576
O9    O     O_2   0.635688 0.354558 0.317475 -0.573279
O10   O     O_2   0.360818 0.629216 0.681113 -0.551616
O11   O     O_2   0.231813 0.444893 0.659653 -0.521640
O12   O     O_R   0.500000 0.680390 0.449690 -0.577597
O13   O     O_2   0.765136 0.416545 0.654763 -0.565154
O14   O     O_R   0.499990 0.319670 0.449690 -0.604656
O15   O     O_R   0.500010 0.680330 0.550310 -0.604523
O16   O     O_R   0.417880 0.499930 0.550320 -0.610388
O17   O     O_R   0.582120 0.500070 0.449680 -0.604094
O18   O     O_R   0.417880 0.499990 0.449700 -0.581801
O19   O     O_R   0.582120 0.500010 0.550300 -0.587086
O20   O     O_2   0.841619 0.697019 0.497672 -0.582556

loop_
_geom_bond_atom_site_label_1
_geom_bond_atom_site_label_2
_ccdc_geom_bond_type
C63   C65   A    
Cu1   Cu2   S    
C100  O11   D    
C12   C29   S    
C27   C29   A    
C34   C37   A    
C9    H15   S    
C73   C74   S    
C57   C79   A    
C1    O1    A    
C95   C96   S    
C87   H49   S    
C75   C76   S    
Cu1   N6    S    
C11   H17   S    
C97   C98   S    
C75   H32   S    
C67   H1    S    
C97   H80   S    
C84   H43   S    
Cu1   O19   S    
C25   C28   A    
C15   C19   A    
C71   C97   S    
C31   N4    A    
C2    H10   S    
C85   H55   S    
C55   C58   A    
C10   H16   S    
C23   C29   A    
C60   C62   A    
C70   C94   S    
C99   H75   S    
C32   O7    S    
C44   C82   S    
C78   H40   S    
C85   C86   S    
C80   C81   S    
C76   H29   S    
C78   C80   S    
C9    C22   A    
C30   N3    A    
C42   O2    S    
C84   H42   S    
C53   H2    S    
C42   N2    A    
C98   C99   S    
C6    N2    S    
C33   C36   A    
C31   C40   A    
C41   N1    A    
C69   C71   A    
C23   C26   A    
C61   C63   A    
Cu2   O12   S    
C62   C64   A    
C2    C79   A    
Cu1   O15   S    
C41   O20   S    
C99   H74   S    
C57   H8    S    
Cu1   O1    S    
C18   C79   S    
C49   C51   A    
C96   H69   S    
C32   N3    A    
C68   C90   A    
C87   H51   S    
C59   N1    A    
C35   H6    S    
C89   C91   S    
C95   H70   S    
C91   H57   S    
C44   C47   A    
C94   H73   S    
C49   H78   S    
C1    O14   A    
C48   C50   A    
C60   N2    A    
C96   H68   S    
C80   H38   S    
C81   H36   S    
C52   H84   S    
C90   H9    S    
C3    H83   S    
C52   C54   A    
C81   H33   S    
C4    C90   A    
C53   C55   A    
C40   C45   A    
C56   N4    S    
C69   H12   S    
C59   C61   A    
C55   H4    S    
C3    O13   D    
C18   O17   A    
C42   C66   A    
C76   C77   S    
C99   H76   S    
C4    C6    A    
C17   O18   A    
C78   H39   S    
C81   H35   S    
C5    C7    A    
C86   C87   S    
Cu2   O18   S    
C41   C65   A    
C72   H25   S    
C33   O8    S    
C59   O3    S    
C65   C71   A    
C19   H45   S    
C49   C58   A    
C63   C64   A    
C62   C69   A    
C72   H24   S    
C33   N4    A    
C43   C78   S    
C52   N5    A    
C64   C66   A    
C45   C85   S    
C86   H53   S    
C46   C68   A    
C37   C38   A    
C93   O10   D    
Cu1   O16   S    
C83   H44   S    
C9    C11   A    
C61   C67   A    
C83   C84   S    
C12   C15   A    
C16   C20   A    
C73   H22   S    
C6    C24   A    
C74   H19   S    
C58   N3    S    
C96   H66   S    
C8    C21   A    
Cu2   O17   S    
C24   H5    S    
C77   H27   S    
C50   N5    A    
Cu2   O14   S    
C91   H58   S    
C82   H48   S    
C77   H26   S    
C10   C12   A    
C94   H72   S    
C21   H11   S    
C22   H13   S    
C74   H20   S    
C51   C93   S    
C82   C83   S    
C87   H50   S    
C4    C100  S    
C14   C16   A    
C13   C26   S    
C36   C44   A    
C2    C5    A    
C25   C75   S    
C16   H34   S    
C89   H60   S    
C60   O4    S    
C39   C47   A    
C7    N1    S    
C48   C56   A    
C50   C92   S    
C17   C68   S    
C54   H3    S    
C19   C21   A    
C7    C35   A    
C23   C72   S    
C17   O16   A    
C34   C43   A    
C20   C22   A    
C72   C73   S    
C3    C5    S    
C75   H31   S    
C54   C56   A    
C25   C27   A    
C80   H37   S    
C74   H18   S    
C26   C28   A    
C84   H41   S    
C13   O12   A    
C35   C57   A    
C67   C70   A    
C24   C46   A    
C47   C88   S    
C98   H79   S    
C36   C38   A    
C18   O19   A    
C86   H52   S    
C37   C39   A    
C73   H21   S    
C88   H62   S    
C38   C40   A    
C76   H30   S    
C66   C70   A    
C11   C14   A    
C89   H61   S    
C30   C39   A    
C77   H28   S    
C95   H71   S    
C94   C95   S    
C100  H82   S    
C53   N6    A    
C82   H47   S    
C13   O15   A    
C8    H14   S    
C83   H46   S    
C92   H64   S    
C30   O5    S    
C88   C89   S    
C93   H65   S    
C8    C10   A    
C88   H63   S    
C15   H23   S    
C46   H7    S    
C1    C27   S    
C92   O9    D    
C91   H59   S    
C97   H81   S    
C20   H56   S    
C48   H67   S    
C14   C28   S    
Cu2   N5    S    
C43   C45   A    
C85   H54   S    
C31   O6    S    
C51   N6    A    
C32   C34   A    
C98   H77   S    
